MODEL 1
REMARK VINA RESULT:      -6.1      0.000      0.000
REMARK  Name = 
REMARK  4 active torsions:
REMARK  status: ('A' for Active; 'I' for Inactive)
REMARK    1  A    between atoms: C_1  and  O_2
REMARK    2  A    between atoms: O_2  and  N_3
REMARK    3  A    between atoms: C_4  and  C_6
REMARK    4  A    between atoms: C_9  and  N_10
REMARK                            x       y       z     vdW  Elec       q    Type
REMARK                         _______ _______ _______ _____ _____    ______ ____
ROOT
ATOM      1  C   UNL     1       4.121   3.609  18.164  0.00  0.00    +0.000 A 
ATOM      2  C   UNL     1       5.174   4.168  18.900  0.00  0.00    +0.000 A 
ATOM      3  C   UNL     1       6.184   4.884  18.250  0.00  0.00    +0.000 A 
ATOM      4  C   UNL     1       6.131   5.046  16.860  0.00  0.00    +0.000 A 
ATOM      5  C   UNL     1       5.076   4.498  16.117  0.00  0.00    +0.000 A 
ATOM      6  C   UNL     1       4.073   3.777  16.772  0.00  0.00    +0.000 A 
ENDROOT
BRANCH   1   8
ATOM      7  N   UNL     1       2.356   3.435  19.782  0.00  0.00    +0.000 NA
ATOM      8  C   UNL     1       3.053   2.835  18.863  0.00  0.00    +0.000 C 
ATOM      9  N   UNL     1       2.863   1.515  18.521  0.00  0.00    +0.000 N 
ATOM     10  H   UNL     1       2.274   1.061  19.215  0.00  0.00    +0.000 HD
ATOM     11  H   UNL     1       3.710   0.989  18.340  0.00  0.00    +0.000 HD
BRANCH   7  13
ATOM     12  C   UNL     1       1.528   2.604  21.754  0.00  0.00    +0.000 C 
ATOM     13  O   UNL     1       1.404   2.559  20.338  0.00  0.00    +0.000 OA
ENDBRANCH   7  13
ENDBRANCH   1   8
BRANCH   4  14
ATOM     14  N   UNL     1       7.190   5.796  16.173  0.00  0.00    +0.000 N 
ATOM     15  O   UNL     1       7.554   5.391  15.059  0.00  0.00    +0.000 OA
ATOM     16  O   UNL     1       7.654   6.793  16.744  0.00  0.00    +0.000 OA
ENDBRANCH   4  14
TORSDOF 3
ENDMDL
MODEL 2
REMARK VINA RESULT:      -6.1      1.909      6.031
REMARK  Name = 
REMARK  4 active torsions:
REMARK  status: ('A' for Active; 'I' for Inactive)
REMARK    1  A    between atoms: C_1  and  O_2
REMARK    2  A    between atoms: O_2  and  N_3
REMARK    3  A    between atoms: C_4  and  C_6
REMARK    4  A    between atoms: C_9  and  N_10
REMARK                            x       y       z     vdW  Elec       q    Type
REMARK                         _______ _______ _______ _____ _____    ______ ____
ROOT
ATOM      1  C   UNL     1       4.206   5.344  17.345  0.00  0.00    +0.000 A 
ATOM      2  C   UNL     1       3.307   5.967  18.221  0.00  0.00    +0.000 A 
ATOM      3  C   UNL     1       2.252   5.240  18.780  0.00  0.00    +0.000 A 
ATOM      4  C   UNL     1       2.105   3.883  18.466  0.00  0.00    +0.000 A 
ATOM      5  C   UNL     1       3.006   3.250  17.599  0.00  0.00    +0.000 A 
ATOM      6  C   UNL     1       4.055   3.984  17.036  0.00  0.00    +0.000 A 
ENDROOT
BRANCH   1   8
ATOM      7  N   UNL     1       6.375   6.366  17.467  0.00  0.00    +0.000 NA
ATOM      8  C   UNL     1       5.323   6.131  16.741  0.00  0.00    +0.000 C 
ATOM      9  N   UNL     1       5.185   6.589  15.450  0.00  0.00    +0.000 N 
ATOM     10  H   UNL     1       5.903   7.281  15.252  0.00  0.00    +0.000 HD
ATOM     11  H   UNL     1       4.259   6.922  15.207  0.00  0.00    +0.000 HD
BRANCH   7  13
ATOM     12  C   UNL     1       7.794   8.166  17.587  0.00  0.00    +0.000 C 
ATOM     13  O   UNL     1       7.320   7.121  16.746  0.00  0.00    +0.000 OA
ENDBRANCH   7  13
ENDBRANCH   1   8
BRANCH   4  14
ATOM     14  N   UNL     1       0.998   3.116  19.050  0.00  0.00    +0.000 N 
ATOM     15  O   UNL     1       0.712   3.329  20.237  0.00  0.00    +0.000 OA
ATOM     16  O   UNL     1       0.410   2.306  18.321  0.00  0.00    +0.000 OA
ENDBRANCH   4  14
TORSDOF 3
ENDMDL
MODEL 3
REMARK VINA RESULT:      -6.1      1.858      6.077
REMARK  Name = 
REMARK  4 active torsions:
REMARK  status: ('A' for Active; 'I' for Inactive)
REMARK    1  A    between atoms: C_1  and  O_2
REMARK    2  A    between atoms: O_2  and  N_3
REMARK    3  A    between atoms: C_4  and  C_6
REMARK    4  A    between atoms: C_9  and  N_10
REMARK                            x       y       z     vdW  Elec       q    Type
REMARK                         _______ _______ _______ _____ _____    ______ ____
ROOT
ATOM      1  C   UNL     1       4.217   5.234  17.365  0.00  0.00    +0.000 A 
ATOM      2  C   UNL     1       3.992   3.897  17.014  0.00  0.00    +0.000 A 
ATOM      3  C   UNL     1       2.932   3.188  17.588  0.00  0.00    +0.000 A 
ATOM      4  C   UNL     1       2.091   3.827  18.508  0.00  0.00    +0.000 A 
ATOM      5  C   UNL     1       2.303   5.169  18.857  0.00  0.00    +0.000 A 
ATOM      6  C   UNL     1       3.369   5.870  18.285  0.00  0.00    +0.000 A 
ENDROOT
BRANCH   1   8
ATOM      7  N   UNL     1       6.315   6.387  17.539  0.00  0.00    +0.000 NA
ATOM      8  C   UNL     1       5.359   5.981  16.759  0.00  0.00    +0.000 C 
ATOM      9  N   UNL     1       5.343   6.225  15.404  0.00  0.00    +0.000 N 
ATOM     10  H   UNL     1       6.049   6.918  15.171  0.00  0.00    +0.000 HD
ATOM     11  H   UNL     1       4.436   6.462  15.017  0.00  0.00    +0.000 HD
BRANCH   7  13
ATOM     12  C   UNL     1       7.760   8.169  17.589  0.00  0.00    +0.000 C 
ATOM     13  O   UNL     1       7.301   7.074  16.805  0.00  0.00    +0.000 OA
ENDBRANCH   7  13
ENDBRANCH   1   8
BRANCH   4  14
ATOM     14  N   UNL     1       0.977   3.087  19.113  0.00  0.00    +0.000 N 
ATOM     15  O   UNL     1       0.697   3.330  20.296  0.00  0.00    +0.000 OA
ATOM     16  O   UNL     1       0.377   2.266  18.405  0.00  0.00    +0.000 OA
ENDBRANCH   4  14
TORSDOF 3
ENDMDL
MODEL 4
REMARK VINA RESULT:      -6.0      0.197      1.546
REMARK  Name = 
REMARK  4 active torsions:
REMARK  status: ('A' for Active; 'I' for Inactive)
REMARK    1  A    between atoms: C_1  and  O_2
REMARK    2  A    between atoms: O_2  and  N_3
REMARK    3  A    between atoms: C_4  and  C_6
REMARK    4  A    between atoms: C_9  and  N_10
REMARK                            x       y       z     vdW  Elec       q    Type
REMARK                         _______ _______ _______ _____ _____    ______ ____
ROOT
ATOM      1  C   UNL     1       3.998   3.709  18.154  0.00  0.00    +0.000 A 
ATOM      2  C   UNL     1       4.097   3.689  16.757  0.00  0.00    +0.000 A 
ATOM      3  C   UNL     1       5.132   4.376  16.115  0.00  0.00    +0.000 A 
ATOM      4  C   UNL     1       6.075   5.076  16.880  0.00  0.00    +0.000 A 
ATOM      5  C   UNL     1       5.988   5.092  18.279  0.00  0.00    +0.000 A 
ATOM      6  C   UNL     1       4.946   4.410  18.914  0.00  0.00    +0.000 A 
ENDROOT
BRANCH   1   8
ATOM      7  N   UNL     1       2.259   3.579  19.805  0.00  0.00    +0.000 NA
ATOM      8  C   UNL     1       2.882   2.984  18.831  0.00  0.00    +0.000 C 
ATOM      9  N   UNL     1       2.570   1.710  18.410  0.00  0.00    +0.000 N 
ATOM     10  H   UNL     1       1.959   1.264  19.089  0.00  0.00    +0.000 HD
ATOM     11  H   UNL     1       3.364   1.127  18.173  0.00  0.00    +0.000 HD
BRANCH   7  13
ATOM     12  C   UNL     1       1.465   2.610  21.727  0.00  0.00    +0.000 C 
ATOM     13  O   UNL     1       1.247   2.753  20.329  0.00  0.00    +0.000 OA
ENDBRANCH   7  13
ENDBRANCH   1   8
BRANCH   4  14
ATOM     14  N   UNL     1       7.163   5.799  16.211  0.00  0.00    +0.000 N 
ATOM     15  O   UNL     1       7.623   6.801  16.777  0.00  0.00    +0.000 OA
ATOM     16  O   UNL     1       7.563   5.362  15.123  0.00  0.00    +0.000 OA
ENDBRANCH   4  14
TORSDOF 3
ENDMDL
MODEL 5
REMARK VINA RESULT:      -6.0      1.542      5.818
REMARK  Name = 
REMARK  4 active torsions:
REMARK  status: ('A' for Active; 'I' for Inactive)
REMARK    1  A    between atoms: C_1  and  O_2
REMARK    2  A    between atoms: O_2  and  N_3
REMARK    3  A    between atoms: C_4  and  C_6
REMARK    4  A    between atoms: C_9  and  N_10
REMARK                            x       y       z     vdW  Elec       q    Type
REMARK                         _______ _______ _______ _____ _____    ______ ____
ROOT
ATOM      1  C   UNL     1       4.846   4.440  18.118  0.00  0.00    +0.000 A 
ATOM      2  C   UNL     1       4.782   3.637  19.264  0.00  0.00    +0.000 A 
ATOM      3  C   UNL     1       3.560   3.096  19.677  0.00  0.00    +0.000 A 
ATOM      4  C   UNL     1       2.403   3.354  18.930  0.00  0.00    +0.000 A 
ATOM      5  C   UNL     1       2.461   4.148  17.776  0.00  0.00    +0.000 A 
ATOM      6  C   UNL     1       3.684   4.693  17.373  0.00  0.00    +0.000 A 
ENDROOT
BRANCH   1   8
ATOM      7  N   UNL     1       6.154   6.219  17.176  0.00  0.00    +0.000 NA
ATOM      8  C   UNL     1       6.152   5.026  17.692  0.00  0.00    +0.000 C 
ATOM      9  N   UNL     1       7.294   4.273  17.845  0.00  0.00    +0.000 N 
ATOM     10  H   UNL     1       8.057   4.695  17.320  0.00  0.00    +0.000 HD
ATOM     11  H   UNL     1       7.192   3.286  17.640  0.00  0.00    +0.000 HD
BRANCH   7  13
ATOM     12  C   UNL     1       7.748   7.844  17.474  0.00  0.00    +0.000 C 
ATOM     13  O   UNL     1       7.462   6.610  16.827  0.00  0.00    +0.000 OA
ENDBRANCH   7  13
ENDBRANCH   1   8
BRANCH   4  14
ATOM     14  N   UNL     1       1.119   2.788  19.359  0.00  0.00    +0.000 N 
ATOM     15  O   UNL     1       0.394   2.278  18.492  0.00  0.00    +0.000 OA
ATOM     16  O   UNL     1       0.836   2.848  20.564  0.00  0.00    +0.000 OA
ENDBRANCH   4  14
TORSDOF 3
ENDMDL
MODEL 6
REMARK VINA RESULT:      -6.0      1.765      2.514
REMARK  Name = 
REMARK  4 active torsions:
REMARK  status: ('A' for Active; 'I' for Inactive)
REMARK    1  A    between atoms: C_1  and  O_2
REMARK    2  A    between atoms: O_2  and  N_3
REMARK    3  A    between atoms: C_4  and  C_6
REMARK    4  A    between atoms: C_9  and  N_10
REMARK                            x       y       z     vdW  Elec       q    Type
REMARK                         _______ _______ _______ _____ _____    ______ ____
ROOT
ATOM      1  C   UNL     1       3.806   5.574  19.100  0.00  0.00    +0.000 A 
ATOM      2  C   UNL     1       3.642   6.423  17.998  0.00  0.00    +0.000 A 
ATOM      3  C   UNL     1       4.747   6.792  17.224  0.00  0.00    +0.000 A 
ATOM      4  C   UNL     1       6.017   6.299  17.553  0.00  0.00    +0.000 A 
ATOM      5  C   UNL     1       6.187   5.440  18.648  0.00  0.00    +0.000 A 
ATOM      6  C   UNL     1       5.079   5.081  19.423  0.00  0.00    +0.000 A 
ENDROOT
BRANCH   1   8
ATOM      7  N   UNL     1       2.179   3.976  19.852  0.00  0.00    +0.000 NA
ATOM      8  C   UNL     1       2.624   5.195  19.930  0.00  0.00    +0.000 C 
ATOM      9  N   UNL     1       2.043   6.155  20.728  0.00  0.00    +0.000 N 
ATOM     10  H   UNL     1       1.136   5.828  21.055  0.00  0.00    +0.000 HD
ATOM     11  H   UNL     1       1.988   7.081  20.320  0.00  0.00    +0.000 HD
BRANCH   7  13
ATOM     12  C   UNL     1       1.344   2.731  21.589  0.00  0.00    +0.000 C 
ATOM     13  O   UNL     1       1.063   3.797  20.691  0.00  0.00    +0.000 OA
ENDBRANCH   7  13
ENDBRANCH   1   8
BRANCH   4  14
ATOM     14  N   UNL     1       7.179   6.684  16.744  0.00  0.00    +0.000 N 
ATOM     15  O   UNL     1       7.720   7.772  16.992  0.00  0.00    +0.000 OA
ATOM     16  O   UNL     1       7.557   5.897  15.865  0.00  0.00    +0.000 OA
ENDBRANCH   4  14
TORSDOF 3
ENDMDL
MODEL 7
REMARK VINA RESULT:      -6.0      1.425      6.115
REMARK  Name = 
REMARK  4 active torsions:
REMARK  status: ('A' for Active; 'I' for Inactive)
REMARK    1  A    between atoms: C_1  and  O_2
REMARK    2  A    between atoms: O_2  and  N_3
REMARK    3  A    between atoms: C_4  and  C_6
REMARK    4  A    between atoms: C_9  and  N_10
REMARK                            x       y       z     vdW  Elec       q    Type
REMARK                         _______ _______ _______ _____ _____    ______ ____
ROOT
ATOM      1  C   UNL     1       4.770   4.053  17.757  0.00  0.00    +0.000 A 
ATOM      2  C   UNL     1       3.592   3.962  17.005  0.00  0.00    +0.000 A 
ATOM      3  C   UNL     1       2.408   3.521  17.603  0.00  0.00    +0.000 A 
ATOM      4  C   UNL     1       2.405   3.181  18.962  0.00  0.00    +0.000 A 
ATOM      5  C   UNL     1       3.577   3.280  19.725  0.00  0.00    +0.000 A 
ATOM      6  C   UNL     1       4.761   3.713  19.119  0.00  0.00    +0.000 A 
ENDROOT
BRANCH   1   8
ATOM      7  N   UNL     1       5.960   5.075  15.940  0.00  0.00    +0.000 NA
ATOM      8  C   UNL     1       6.035   4.511  17.108  0.00  0.00    +0.000 C 
ATOM      9  N   UNL     1       7.227   4.302  17.765  0.00  0.00    +0.000 N 
ATOM     10  H   UNL     1       8.003   4.454  17.125  0.00  0.00    +0.000 HD
ATOM     11  H   UNL     1       7.304   3.416  18.250  0.00  0.00    +0.000 HD
BRANCH   7  13
ATOM     12  C   UNL     1       7.359   5.021  14.121  0.00  0.00    +0.000 C 
ATOM     13  O   UNL     1       7.240   5.436  15.476  0.00  0.00    +0.000 OA
ENDBRANCH   7  13
ENDBRANCH   1   8
BRANCH   4  14
ATOM     14  N   UNL     1       1.164   2.718  19.594  0.00  0.00    +0.000 N 
ATOM     15  O   UNL     1       1.074   2.812  20.827  0.00  0.00    +0.000 OA
ATOM     16  O   UNL     1       0.275   2.266  18.858  0.00  0.00    +0.000 OA
ENDBRANCH   4  14
TORSDOF 3
ENDMDL
MODEL 8
REMARK VINA RESULT:      -6.0      1.428      5.982
REMARK  Name = 
REMARK  4 active torsions:
REMARK  status: ('A' for Active; 'I' for Inactive)
REMARK    1  A    between atoms: C_1  and  O_2
REMARK    2  A    between atoms: O_2  and  N_3
REMARK    3  A    between atoms: C_4  and  C_6
REMARK    4  A    between atoms: C_9  and  N_10
REMARK                            x       y       z     vdW  Elec       q    Type
REMARK                         _______ _______ _______ _____ _____    ______ ____
ROOT
ATOM      1  C   UNL     1       4.754   4.032  17.805  0.00  0.00    +0.000 A 
ATOM      2  C   UNL     1       4.760   3.632  19.148  0.00  0.00    +0.000 A 
ATOM      3  C   UNL     1       3.578   3.202  19.759  0.00  0.00    +0.000 A 
ATOM      4  C   UNL     1       2.390   3.166  19.017  0.00  0.00    +0.000 A 
ATOM      5  C   UNL     1       2.378   3.555  17.670  0.00  0.00    +0.000 A 
ATOM      6  C   UNL     1       3.562   3.992  17.067  0.00  0.00    +0.000 A 
ENDROOT
BRANCH   1   8
ATOM      7  N   UNL     1       5.944   5.069  15.996  0.00  0.00    +0.000 NA
ATOM      8  C   UNL     1       6.018   4.503  17.163  0.00  0.00    +0.000 C 
ATOM      9  N   UNL     1       7.209   4.302  17.824  0.00  0.00    +0.000 N 
ATOM     10  H   UNL     1       7.986   4.462  17.189  0.00  0.00    +0.000 HD
ATOM     11  H   UNL     1       7.291   3.415  18.308  0.00  0.00    +0.000 HD
BRANCH   7  13
ATOM     12  C   UNL     1       7.352   5.031  14.184  0.00  0.00    +0.000 C 
ATOM     13  O   UNL     1       7.223   5.442  15.540  0.00  0.00    +0.000 OA
ENDBRANCH   7  13
ENDBRANCH   1   8
BRANCH   4  14
ATOM     14  N   UNL     1       1.147   2.717  19.654  0.00  0.00    +0.000 N 
ATOM     15  O   UNL     1       1.051   2.843  20.884  0.00  0.00    +0.000 OA
ATOM     16  O   UNL     1       0.263   2.244  18.926  0.00  0.00    +0.000 OA
ENDBRANCH   4  14
TORSDOF 3
ENDMDL
MODEL 9
REMARK VINA RESULT:      -5.9      1.685      2.223
REMARK  Name = 
REMARK  4 active torsions:
REMARK  status: ('A' for Active; 'I' for Inactive)
REMARK    1  A    between atoms: C_1  and  O_2
REMARK    2  A    between atoms: O_2  and  N_3
REMARK    3  A    between atoms: C_4  and  C_6
REMARK    4  A    between atoms: C_9  and  N_10
REMARK                            x       y       z     vdW  Elec       q    Type
REMARK                         _______ _______ _______ _____ _____    ______ ____
ROOT
ATOM      1  C   UNL     1       3.888   5.017  17.882  0.00  0.00    +0.000 A 
ATOM      2  C   UNL     1       4.334   3.782  17.391  0.00  0.00    +0.000 A 
ATOM      3  C   UNL     1       5.232   3.734  16.321  0.00  0.00    +0.000 A 
ATOM      4  C   UNL     1       5.690   4.928  15.749  0.00  0.00    +0.000 A 
ATOM      5  C   UNL     1       5.257   6.167  16.240  0.00  0.00    +0.000 A 
ATOM      6  C   UNL     1       4.352   6.209  17.306  0.00  0.00    +0.000 A 
ENDROOT
BRANCH   1   8
ATOM      7  N   UNL     1       1.955   4.188  19.039  0.00  0.00    +0.000 NA
ATOM      8  C   UNL     1       2.918   5.060  19.017  0.00  0.00    +0.000 C 
ATOM      9  N   UNL     1       3.073   6.032  19.980  0.00  0.00    +0.000 N 
ATOM     10  H   UNL     1       2.234   6.083  20.554  0.00  0.00    +0.000 HD
ATOM     11  H   UNL     1       3.353   6.942  19.635  0.00  0.00    +0.000 HD
BRANCH   7  13
ATOM     12  C   UNL     1       1.236   3.222  20.993  0.00  0.00    +0.000 C 
ATOM     13  O   UNL     1       1.137   4.377  20.169  0.00  0.00    +0.000 OA
ENDBRANCH   7  13
ENDBRANCH   1   8
BRANCH   4  14
ATOM     14  N   UNL     1       6.632   4.882  14.624  0.00  0.00    +0.000 N 
ATOM     15  O   UNL     1       6.336   4.172  13.652  0.00  0.00    +0.000 OA
ATOM     16  O   UNL     1       7.665   5.561  14.708  0.00  0.00    +0.000 OA
ENDBRANCH   4  14
TORSDOF 3
ENDMDL
