MODEL 1
REMARK VINA RESULT:      -9.2      0.000      0.000
REMARK  Name = 
REMARK  8 active torsions:
REMARK  status: ('A' for Active; 'I' for Inactive)
REMARK    1  A    between atoms: C_2  and  C_5
REMARK    2  A    between atoms: N_3  and  O_4
REMARK    3  A    between atoms: C_10  and  N_11
REMARK    4  A    between atoms: N_11  and  C_12
REMARK    5  A    between atoms: N_15  and  C_16
REMARK    6  A    between atoms: C_19  and  O_20
REMARK    7  A    between atoms: O_20  and  C_21
REMARK    8  A    between atoms: C_21  and  C_22
REMARK                            x       y       z     vdW  Elec       q    Type
REMARK                         _______ _______ _______ _____ _____    ______ ____
ROOT
ATOM      1  C   UNL     1       2.631   5.248  19.910  0.00  0.00    +0.000 A 
ATOM      2  N   UNL     1       3.953   5.451  19.743  0.00  0.00    +0.000 NA
ATOM      3  C   UNL     1       4.737   4.435  19.351  0.00  0.00    +0.000 A 
ATOM      4  N   UNL     1       6.110   4.643  19.240  0.00  0.00    +0.000 N 
ATOM      5  N   UNL     1       4.270   3.202  19.111  0.00  0.00    +0.000 NA
ATOM      6  C   UNL     1       2.940   3.017  19.261  0.00  0.00    +0.000 A 
ATOM      7  C   UNL     1       2.070   4.004  19.672  0.00  0.00    +0.000 A 
ATOM      8 CL   UNL     1       0.387   3.695  19.819  0.00  0.00    +0.000 Cl
ATOM      9  H   UNL     1       6.580   3.776  19.021  0.00  0.00    +0.000 HD
ENDROOT
BRANCH   4  10
ATOM     10  C   UNL     1       6.772   5.798  18.791  0.00  0.00    +0.000 A 
ATOM     11  C   UNL     1       6.249   6.510  17.708  0.00  0.00    +0.000 A 
ATOM     12  C   UNL     1       6.871   7.668  17.238  0.00  0.00    +0.000 A 
ATOM     13  C   UNL     1       8.008   8.166  17.870  0.00  0.00    +0.000 A 
ATOM     14  C   UNL     1       8.557   7.459  18.939  0.00  0.00    +0.000 A 
ATOM     15  C   UNL     1       7.939   6.286  19.394  0.00  0.00    +0.000 A 
BRANCH  13  16
ATOM     16  O   UNL     1       8.502   9.335  17.356  0.00  0.00    +0.000 OA
BRANCH  16  17
ATOM     17  C   UNL     1       9.212  10.156  18.272  0.00  0.00    +0.000 C 
BRANCH  17  18
ATOM     18  C   UNL     1       9.202  11.625  17.841  0.00  0.00    +0.000 C 
ATOM     19  O   UNL     1       8.153  12.131  17.427  0.00  0.00    +0.000 OA
ATOM     20  N   UNL     1      10.355  12.374  17.993  0.00  0.00    +0.000 N 
ATOM     21  C   UNL     1      11.649  11.892  18.487  0.00  0.00    +0.000 C 
ATOM     22  C   UNL     1      12.130  12.769  19.652  0.00  0.00    +0.000 C 
ATOM     23  O   UNL     1      12.146  14.160  19.294  0.00  0.00    +0.000 OA
ATOM     24  C   UNL     1      10.839  14.603  18.887  0.00  0.00    +0.000 C 
ATOM     25  C   UNL     1      10.348  13.804  17.677  0.00  0.00    +0.000 C 
ENDBRANCH  17  18
ENDBRANCH  16  17
ENDBRANCH  13  16
ENDBRANCH   4  10
BRANCH   1  26
ATOM     26  N   UNL     1       1.849   6.317  20.446  0.00  0.00    +0.000 N 
ATOM     27  H   UNL     1       0.896   5.974  20.593  0.00  0.00    +0.000 HD
BRANCH  26  33
ATOM     28  C   UNL     1       1.012   8.667  20.391  0.00  0.00    +0.000 A 
ATOM     29  C   UNL     1       0.887   9.877  19.674  0.00  0.00    +0.000 A 
ATOM     30  C   UNL     1       1.481  10.043  18.424  0.00  0.00    +0.000 A 
ATOM     31  C   UNL     1       2.205   9.001  17.866  0.00  0.00    +0.000 A 
ATOM     32  C   UNL     1       2.328   7.796  18.556  0.00  0.00    +0.000 A 
ATOM     33  C   UNL     1       1.768   7.609  19.838  0.00  0.00    +0.000 A 
BRANCH  28  35
ATOM     34  O   UNL     1      -0.688   7.949  21.899  0.00  0.00    +0.000 OA
ATOM     35  C   UNL     1       0.320   8.630  21.717  0.00  0.00    +0.000 C 
ATOM     36  N   UNL     1       0.840   9.401  22.727  0.00  0.00    +0.000 N 
ATOM     37  H   UNL     1       1.471  10.175  22.535  0.00  0.00    +0.000 HD
BRANCH  36  38
ATOM     38  O   UNL     1       0.080   9.454  23.916  0.00  0.00    +0.000 OA
ATOM     39  H   UNL     1      -0.188   8.514  24.028  0.00  0.00    +0.000 HD
ENDBRANCH  36  38
ENDBRANCH  28  35
ENDBRANCH  26  33
ENDBRANCH   1  26
TORSDOF 8
ENDMDL
MODEL 2
REMARK VINA RESULT:      -9.0      1.146      1.269
REMARK  Name = 
REMARK  8 active torsions:
REMARK  status: ('A' for Active; 'I' for Inactive)
REMARK    1  A    between atoms: C_2  and  C_5
REMARK    2  A    between atoms: N_3  and  O_4
REMARK    3  A    between atoms: C_10  and  N_11
REMARK    4  A    between atoms: N_11  and  C_12
REMARK    5  A    between atoms: N_15  and  C_16
REMARK    6  A    between atoms: C_19  and  O_20
REMARK    7  A    between atoms: O_20  and  C_21
REMARK    8  A    between atoms: C_21  and  C_22
REMARK                            x       y       z     vdW  Elec       q    Type
REMARK                         _______ _______ _______ _____ _____    ______ ____
ROOT
ATOM      1  C   UNL     1       2.666   5.216  19.956  0.00  0.00    +0.000 A 
ATOM      2  N   UNL     1       3.991   5.386  19.780  0.00  0.00    +0.000 NA
ATOM      3  C   UNL     1       4.745   4.354  19.372  0.00  0.00    +0.000 A 
ATOM      4  N   UNL     1       6.122   4.527  19.251  0.00  0.00    +0.000 N 
ATOM      5  N   UNL     1       4.244   3.136  19.124  0.00  0.00    +0.000 NA
ATOM      6  C   UNL     1       2.911   2.984  19.284  0.00  0.00    +0.000 A 
ATOM      7  C   UNL     1       2.071   3.989  19.711  0.00  0.00    +0.000 A 
ATOM      8 CL   UNL     1       0.381   3.723  19.869  0.00  0.00    +0.000 Cl
ATOM      9  H   UNL     1       6.568   3.650  19.020  0.00  0.00    +0.000 HD
ENDROOT
BRANCH   4  10
ATOM     10  C   UNL     1       6.810   5.669  18.807  0.00  0.00    +0.000 A 
ATOM     11  C   UNL     1       6.339   6.360  17.687  0.00  0.00    +0.000 A 
ATOM     12  C   UNL     1       6.989   7.505  17.221  0.00  0.00    +0.000 A 
ATOM     13  C   UNL     1       8.100   8.010  17.892  0.00  0.00    +0.000 A 
ATOM     14  C   UNL     1       8.598   7.324  18.999  0.00  0.00    +0.000 A 
ATOM     15  C   UNL     1       7.952   6.164  19.451  0.00  0.00    +0.000 A 
BRANCH  13  16
ATOM     16  O   UNL     1       8.623   9.165  17.375  0.00  0.00    +0.000 OA
BRANCH  16  17
ATOM     17  C   UNL     1       8.470  10.323  18.184  0.00  0.00    +0.000 C 
BRANCH  17  18
ATOM     18  C   UNL     1       9.802  11.048  18.393  0.00  0.00    +0.000 C 
ATOM     19  O   UNL     1      10.582  11.174  17.444  0.00  0.00    +0.000 OA
ATOM     20  N   UNL     1      10.069  11.609  19.629  0.00  0.00    +0.000 N 
ATOM     21  C   UNL     1       9.218  11.542  20.821  0.00  0.00    +0.000 C 
ATOM     22  C   UNL     1       8.951  12.954  21.361  0.00  0.00    +0.000 C 
ATOM     23  O   UNL     1      10.174  13.676  21.582  0.00  0.00    +0.000 OA
ATOM     24  C   UNL     1      10.939  13.778  20.368  0.00  0.00    +0.000 C 
ATOM     25  C   UNL     1      11.294  12.388  19.830  0.00  0.00    +0.000 C 
ENDBRANCH  17  18
ENDBRANCH  16  17
ENDBRANCH  13  16
ENDBRANCH   4  10
BRANCH   1  26
ATOM     26  N   UNL     1       1.916   6.300  20.509  0.00  0.00    +0.000 N 
ATOM     27  H   UNL     1       0.975   5.960  20.726  0.00  0.00    +0.000 HD
BRANCH  26  33
ATOM     28  C   UNL     1       1.000   8.618  20.394  0.00  0.00    +0.000 A 
ATOM     29  C   UNL     1       0.836   9.805  19.648  0.00  0.00    +0.000 A 
ATOM     30  C   UNL     1       1.429   9.961  18.396  0.00  0.00    +0.000 A 
ATOM     31  C   UNL     1       2.190   8.930  17.865  0.00  0.00    +0.000 A 
ATOM     32  C   UNL     1       2.351   7.748  18.585  0.00  0.00    +0.000 A 
ATOM     33  C   UNL     1       1.793   7.573  19.869  0.00  0.00    +0.000 A 
BRANCH  28  35
ATOM     34  O   UNL     1      -0.708   7.916  21.900  0.00  0.00    +0.000 OA
ATOM     35  C   UNL     1       0.305   8.589  21.719  0.00  0.00    +0.000 C 
ATOM     36  N   UNL     1       0.828   9.360  22.728  0.00  0.00    +0.000 N 
ATOM     37  H   UNL     1       1.465  10.128  22.535  0.00  0.00    +0.000 HD
BRANCH  36  38
ATOM     38  O   UNL     1       0.066   9.421  23.915  0.00  0.00    +0.000 OA
ATOM     39  H   UNL     1       0.766   9.496  24.602  0.00  0.00    +0.000 HD
ENDBRANCH  36  38
ENDBRANCH  28  35
ENDBRANCH  26  33
ENDBRANCH   1  26
TORSDOF 8
ENDMDL
MODEL 3
REMARK VINA RESULT:      -8.9      0.810      1.367
REMARK  Name = 
REMARK  8 active torsions:
REMARK  status: ('A' for Active; 'I' for Inactive)
REMARK    1  A    between atoms: C_2  and  C_5
REMARK    2  A    between atoms: N_3  and  O_4
REMARK    3  A    between atoms: C_10  and  N_11
REMARK    4  A    between atoms: N_11  and  C_12
REMARK    5  A    between atoms: N_15  and  C_16
REMARK    6  A    between atoms: C_19  and  O_20
REMARK    7  A    between atoms: O_20  and  C_21
REMARK    8  A    between atoms: C_21  and  C_22
REMARK                            x       y       z     vdW  Elec       q    Type
REMARK                         _______ _______ _______ _____ _____    ______ ____
ROOT
ATOM      1  C   UNL     1       2.562   5.178  19.908  0.00  0.00    +0.000 A 
ATOM      2  N   UNL     1       3.879   5.400  19.724  0.00  0.00    +0.000 NA
ATOM      3  C   UNL     1       4.678   4.390  19.347  0.00  0.00    +0.000 A 
ATOM      4  N   UNL     1       6.045   4.620  19.218  0.00  0.00    +0.000 N 
ATOM      5  N   UNL     1       4.231   3.144  19.141  0.00  0.00    +0.000 NA
ATOM      6  C   UNL     1       2.906   2.938  19.308  0.00  0.00    +0.000 A 
ATOM      7  C   UNL     1       2.022   3.918  19.705  0.00  0.00    +0.000 A 
ATOM      8 CL   UNL     1       0.346   3.582  19.875  0.00  0.00    +0.000 Cl
ATOM      9  H   UNL     1       6.529   3.756  19.015  0.00  0.00    +0.000 HD
ENDROOT
BRANCH   4  10
ATOM     10  C   UNL     1       6.681   5.777  18.735  0.00  0.00    +0.000 A 
ATOM     11  C   UNL     1       7.848   6.226  19.359  0.00  0.00    +0.000 A 
ATOM     12  C   UNL     1       8.516   7.365  18.903  0.00  0.00    +0.000 A 
ATOM     13  C   UNL     1       8.055   8.054  17.783  0.00  0.00    +0.000 A 
ATOM     14  C   UNL     1       6.881   7.633  17.160  0.00  0.00    +0.000 A 
ATOM     15  C   UNL     1       6.204   6.501  17.635  0.00  0.00    +0.000 A 
BRANCH  13  16
ATOM     16  O   UNL     1       8.818   9.123  17.397  0.00  0.00    +0.000 OA
BRANCH  16  17
ATOM     17  C   UNL     1       8.374  10.392  17.857  0.00  0.00    +0.000 C 
BRANCH  17  18
ATOM     18  C   UNL     1       9.309  10.965  18.926  0.00  0.00    +0.000 C 
ATOM     19  O   UNL     1       9.477  10.348  19.983  0.00  0.00    +0.000 OA
ATOM     20  N   UNL     1      10.003  12.130  18.650  0.00  0.00    +0.000 N 
ATOM     21  C   UNL     1       9.902  12.938  17.431  0.00  0.00    +0.000 C 
ATOM     22  C   UNL     1      11.295  13.157  16.825  0.00  0.00    +0.000 C 
ATOM     23  O   UNL     1      12.211  13.703  17.788  0.00  0.00    +0.000 OA
ATOM     24  C   UNL     1      12.331  12.839  18.933  0.00  0.00    +0.000 C 
ATOM     25  C   UNL     1      10.974  12.650  19.616  0.00  0.00    +0.000 C 
ENDBRANCH  17  18
ENDBRANCH  16  17
ENDBRANCH  13  16
ENDBRANCH   4  10
BRANCH   1  26
ATOM     26  N   UNL     1       1.766   6.245  20.427  0.00  0.00    +0.000 N 
ATOM     27  H   UNL     1       0.805   5.906  20.529  0.00  0.00    +0.000 HD
BRANCH  26  33
ATOM     28  C   UNL     1       0.999   8.619  20.407  0.00  0.00    +0.000 A 
ATOM     29  C   UNL     1       0.905   9.841  19.706  0.00  0.00    +0.000 A 
ATOM     30  C   UNL     1       1.496  10.005  18.453  0.00  0.00    +0.000 A 
ATOM     31  C   UNL     1       2.183   8.948  17.877  0.00  0.00    +0.000 A 
ATOM     32  C   UNL     1       2.275   7.732  18.551  0.00  0.00    +0.000 A 
ATOM     33  C   UNL     1       1.719   7.545  19.835  0.00  0.00    +0.000 A 
BRANCH  28  35
ATOM     34  O   UNL     1      -0.644   7.847  21.950  0.00  0.00    +0.000 OA
ATOM     35  C   UNL     1       0.316   8.586  21.738  0.00  0.00    +0.000 C 
ATOM     36  N   UNL     1       0.787   9.427  22.715  0.00  0.00    +0.000 N 
ATOM     37  H   UNL     1       1.365  10.233  22.490  0.00  0.00    +0.000 HD
BRANCH  36  38
ATOM     38  O   UNL     1       0.030   9.474  23.906  0.00  0.00    +0.000 OA
ATOM     39  H   UNL     1       0.474  10.199  24.400  0.00  0.00    +0.000 HD
ENDBRANCH  36  38
ENDBRANCH  28  35
ENDBRANCH  26  33
ENDBRANCH   1  26
TORSDOF 8
ENDMDL
MODEL 4
REMARK VINA RESULT:      -8.5      4.858      8.255
REMARK  Name = 
REMARK  8 active torsions:
REMARK  status: ('A' for Active; 'I' for Inactive)
REMARK    1  A    between atoms: C_2  and  C_5
REMARK    2  A    between atoms: N_3  and  O_4
REMARK    3  A    between atoms: C_10  and  N_11
REMARK    4  A    between atoms: N_11  and  C_12
REMARK    5  A    between atoms: N_15  and  C_16
REMARK    6  A    between atoms: C_19  and  O_20
REMARK    7  A    between atoms: O_20  and  C_21
REMARK    8  A    between atoms: C_21  and  C_22
REMARK                            x       y       z     vdW  Elec       q    Type
REMARK                         _______ _______ _______ _____ _____    ______ ____
ROOT
ATOM      1  C   UNL     1      -2.172  12.093  20.654  0.00  0.00    +0.000 A 
ATOM      2  N   UNL     1      -1.012  11.408  20.610  0.00  0.00    +0.000 NA
ATOM      3  C   UNL     1      -0.419  11.029  21.752  0.00  0.00    +0.000 A 
ATOM      4  N   UNL     1       0.808  10.373  21.693  0.00  0.00    +0.000 N 
ATOM      5  N   UNL     1      -0.925  11.301  22.963  0.00  0.00    +0.000 NA
ATOM      6  C   UNL     1      -2.099  11.970  22.994  0.00  0.00    +0.000 A 
ATOM      7  C   UNL     1      -2.764  12.405  21.868  0.00  0.00    +0.000 A 
ATOM      8 CL   UNL     1      -4.264  13.232  21.989  0.00  0.00    +0.000 Cl
ATOM      9  H   UNL     1       1.174  10.227  22.624  0.00  0.00    +0.000 HD
ENDROOT
BRANCH   4  10
ATOM     10  C   UNL     1       1.237   9.433  20.741  0.00  0.00    +0.000 A 
ATOM     11  C   UNL     1       1.470   8.114  21.138  0.00  0.00    +0.000 A 
ATOM     12  C   UNL     1       1.887   7.148  20.220  0.00  0.00    +0.000 A 
ATOM     13  C   UNL     1       2.037   7.470  18.873  0.00  0.00    +0.000 A 
ATOM     14  C   UNL     1       1.830   8.786  18.461  0.00  0.00    +0.000 A 
ATOM     15  C   UNL     1       1.430   9.756  19.391  0.00  0.00    +0.000 A 
BRANCH  13  16
ATOM     16  O   UNL     1       2.399   6.432  18.058  0.00  0.00    +0.000 OA
BRANCH  16  17
ATOM     17  C   UNL     1       3.170   5.409  18.673  0.00  0.00    +0.000 C 
BRANCH  17  18
ATOM     18  C   UNL     1       3.918   4.564  17.638  0.00  0.00    +0.000 C 
ATOM     19  O   UNL     1       3.301   3.720  16.981  0.00  0.00    +0.000 OA
ATOM     20  N   UNL     1       5.259   4.819  17.412  0.00  0.00    +0.000 N 
ATOM     21  C   UNL     1       6.091   5.802  18.111  0.00  0.00    +0.000 C 
ATOM     22  C   UNL     1       6.781   6.728  17.100  0.00  0.00    +0.000 C 
ATOM     23  O   UNL     1       7.505   5.981  16.109  0.00  0.00    +0.000 OA
ATOM     24  C   UNL     1       6.632   5.083  15.400  0.00  0.00    +0.000 C 
ATOM     25  C   UNL     1       5.976   4.090  16.363  0.00  0.00    +0.000 C 
ENDBRANCH  17  18
ENDBRANCH  16  17
ENDBRANCH  13  16
ENDBRANCH   4  10
BRANCH   1  26
ATOM     26  N   UNL     1      -2.709  12.586  19.425  0.00  0.00    +0.000 N 
ATOM     27  H   UNL     1      -3.596  13.057  19.630  0.00  0.00    +0.000 HD
BRANCH  26  33
ATOM     28  C   UNL     1      -4.159  11.581  17.661  0.00  0.00    +0.000 A 
ATOM     29  C   UNL     1      -4.286  10.667  16.593  0.00  0.00    +0.000 A 
ATOM     30  C   UNL     1      -3.193   9.933  16.135  0.00  0.00    +0.000 A 
ATOM     31  C   UNL     1      -1.957  10.093  16.742  0.00  0.00    +0.000 A 
ATOM     32  C   UNL     1      -1.819  10.983  17.806  0.00  0.00    +0.000 A 
ATOM     33  C   UNL     1      -2.897  11.767  18.269  0.00  0.00    +0.000 A 
BRANCH  28  35
ATOM     34  O   UNL     1      -5.897  12.190  19.175  0.00  0.00    +0.000 OA
ATOM     35  C   UNL     1      -5.415  12.298  18.048  0.00  0.00    +0.000 C 
ATOM     36  N   UNL     1      -6.027  13.070  17.092  0.00  0.00    +0.000 N 
ATOM     37  H   UNL     1      -5.826  12.948  16.102  0.00  0.00    +0.000 HD
BRANCH  36  38
ATOM     38  O   UNL     1      -7.281  13.611  17.446  0.00  0.00    +0.000 OA
ATOM     39  H   UNL     1      -7.867  13.239  16.750  0.00  0.00    +0.000 HD
ENDBRANCH  36  38
ENDBRANCH  28  35
ENDBRANCH  26  33
ENDBRANCH   1  26
TORSDOF 8
ENDMDL
MODEL 5
REMARK VINA RESULT:      -8.4      6.008     10.161
REMARK  Name = 
REMARK  8 active torsions:
REMARK  status: ('A' for Active; 'I' for Inactive)
REMARK    1  A    between atoms: C_2  and  C_5
REMARK    2  A    between atoms: N_3  and  O_4
REMARK    3  A    between atoms: C_10  and  N_11
REMARK    4  A    between atoms: N_11  and  C_12
REMARK    5  A    between atoms: N_15  and  C_16
REMARK    6  A    between atoms: C_19  and  O_20
REMARK    7  A    between atoms: O_20  and  C_21
REMARK    8  A    between atoms: C_21  and  C_22
REMARK                            x       y       z     vdW  Elec       q    Type
REMARK                         _______ _______ _______ _____ _____    ______ ____
ROOT
ATOM      1  C   UNL     1      -3.837  13.656  21.205  0.00  0.00    +0.000 A 
ATOM      2  N   UNL     1      -2.658  13.018  21.344  0.00  0.00    +0.000 NA
ATOM      3  C   UNL     1      -1.899  13.252  22.425  0.00  0.00    +0.000 A 
ATOM      4  N   UNL     1      -0.656  12.632  22.527  0.00  0.00    +0.000 N 
ATOM      5  N   UNL     1      -2.253  14.106  23.395  0.00  0.00    +0.000 NA
ATOM      6  C   UNL     1      -3.447  14.723  23.255  0.00  0.00    +0.000 A 
ATOM      7  C   UNL     1      -4.278  14.547  22.170  0.00  0.00    +0.000 A 
ATOM      8 CL   UNL     1      -5.792  15.353  22.075  0.00  0.00    +0.000 Cl
ATOM      9  H   UNL     1      -0.163  12.966  23.343  0.00  0.00    +0.000 HD
ENDROOT
BRANCH   4  10
ATOM     10  C   UNL     1      -0.308  11.332  22.122  0.00  0.00    +0.000 A 
ATOM     11  C   UNL     1      -0.614  10.251  22.953  0.00  0.00    +0.000 A 
ATOM     12  C   UNL     1      -0.294   8.943  22.582  0.00  0.00    +0.000 A 
ATOM     13  C   UNL     1       0.302   8.684  21.349  0.00  0.00    +0.000 A 
ATOM     14  C   UNL     1       0.634   9.751  20.516  0.00  0.00    +0.000 A 
ATOM     15  C   UNL     1       0.327  11.063  20.902  0.00  0.00    +0.000 A 
BRANCH  13  16
ATOM     16  O   UNL     1       0.523   7.362  21.071  0.00  0.00    +0.000 OA
BRANCH  16  17
ATOM     17  C   UNL     1       1.840   7.035  20.653  0.00  0.00    +0.000 C 
BRANCH  17  18
ATOM     18  C   UNL     1       1.975   5.547  20.317  0.00  0.00    +0.000 C 
ATOM     19  O   UNL     1       1.143   4.746  20.755  0.00  0.00    +0.000 OA
ATOM     20  N   UNL     1       2.991   5.143  19.469  0.00  0.00    +0.000 N 
ATOM     21  C   UNL     1       4.024   5.998  18.875  0.00  0.00    +0.000 C 
ATOM     22  C   UNL     1       4.047   5.819  17.351  0.00  0.00    +0.000 C 
ATOM     23  O   UNL     1       4.180   4.437  16.983  0.00  0.00    +0.000 OA
ATOM     24  C   UNL     1       3.105   3.652  17.529  0.00  0.00    +0.000 C 
ATOM     25  C   UNL     1       3.088   3.741  19.057  0.00  0.00    +0.000 C 
ENDBRANCH  17  18
ENDBRANCH  16  17
ENDBRANCH  13  16
ENDBRANCH   4  10
BRANCH   1  26
ATOM     26  N   UNL     1      -4.560  13.476  19.985  0.00  0.00    +0.000 N 
ATOM     27  H   UNL     1      -5.161  14.292  19.846  0.00  0.00    +0.000 HD
BRANCH  26  33
ATOM     28  C   UNL     1      -5.043  11.456  18.602  0.00  0.00    +0.000 A 
ATOM     29  C   UNL     1      -5.913  10.383  18.314  0.00  0.00    +0.000 A 
ATOM     30  C   UNL     1      -7.056  10.151  19.078  0.00  0.00    +0.000 A 
ATOM     31  C   UNL     1      -7.353  10.994  20.139  0.00  0.00    +0.000 A 
ATOM     32  C   UNL     1      -6.510  12.064  20.429  0.00  0.00    +0.000 A 
ATOM     33  C   UNL     1      -5.327  12.304  19.697  0.00  0.00    +0.000 A 
BRANCH  28  35
ATOM     34  O   UNL     1      -2.740  11.853  18.136  0.00  0.00    +0.000 OA
ATOM     35  C   UNL     1      -3.858  11.585  17.699  0.00  0.00    +0.000 C 
ATOM     36  N   UNL     1      -4.063  11.412  16.352  0.00  0.00    +0.000 N 
ATOM     37  H   UNL     1      -4.991  11.481  15.942  0.00  0.00    +0.000 HD
BRANCH  36  38
ATOM     38  O   UNL     1      -2.956  11.684  15.519  0.00  0.00    +0.000 OA
ATOM     39  H   UNL     1      -2.958  10.905  14.918  0.00  0.00    +0.000 HD
ENDBRANCH  36  38
ENDBRANCH  28  35
ENDBRANCH  26  33
ENDBRANCH   1  26
TORSDOF 8
ENDMDL
MODEL 6
REMARK VINA RESULT:      -8.4      0.970      1.292
REMARK  Name = 
REMARK  8 active torsions:
REMARK  status: ('A' for Active; 'I' for Inactive)
REMARK    1  A    between atoms: C_2  and  C_5
REMARK    2  A    between atoms: N_3  and  O_4
REMARK    3  A    between atoms: C_10  and  N_11
REMARK    4  A    between atoms: N_11  and  C_12
REMARK    5  A    between atoms: N_15  and  C_16
REMARK    6  A    between atoms: C_19  and  O_20
REMARK    7  A    between atoms: O_20  and  C_21
REMARK    8  A    between atoms: C_21  and  C_22
REMARK                            x       y       z     vdW  Elec       q    Type
REMARK                         _______ _______ _______ _____ _____    ______ ____
ROOT
ATOM      1  C   UNL     1       2.581   5.335  19.999  0.00  0.00    +0.000 A 
ATOM      2  N   UNL     1       3.909   5.470  19.813  0.00  0.00    +0.000 NA
ATOM      3  C   UNL     1       4.642   4.406  19.453  0.00  0.00    +0.000 A 
ATOM      4  N   UNL     1       6.021   4.547  19.323  0.00  0.00    +0.000 N 
ATOM      5  N   UNL     1       4.117   3.187  19.265  0.00  0.00    +0.000 NA
ATOM      6  C   UNL     1       2.782   3.069  19.433  0.00  0.00    +0.000 A 
ATOM      7  C   UNL     1       1.962   4.109  19.813  0.00  0.00    +0.000 A 
ATOM      8 CL   UNL     1       0.268   3.883  19.986  0.00  0.00    +0.000 Cl
ATOM      9  H   UNL     1       6.450   3.651  19.134  0.00  0.00    +0.000 HD
ENDROOT
BRANCH   4  10
ATOM     10  C   UNL     1       6.731   5.653  18.824  0.00  0.00    +0.000 A 
ATOM     11  C   UNL     1       6.230   6.344  17.718  0.00  0.00    +0.000 A 
ATOM     12  C   UNL     1       6.900   7.454  17.199  0.00  0.00    +0.000 A 
ATOM     13  C   UNL     1       8.064   7.924  17.803  0.00  0.00    +0.000 A 
ATOM     14  C   UNL     1       8.590   7.236  18.895  0.00  0.00    +0.000 A 
ATOM     15  C   UNL     1       7.923   6.110  19.400  0.00  0.00    +0.000 A 
BRANCH  13  16
ATOM     16  O   UNL     1       8.604   9.049  17.240  0.00  0.00    +0.000 OA
BRANCH  16  17
ATOM     17  C   UNL     1       8.202  10.281  17.823  0.00  0.00    +0.000 C 
BRANCH  17  18
ATOM     18  C   UNL     1       9.209  10.768  18.869  0.00  0.00    +0.000 C 
ATOM     19  O   UNL     1       9.436  10.075  19.865  0.00  0.00    +0.000 OA
ATOM     20  N   UNL     1       9.897  11.946  18.634  0.00  0.00    +0.000 N 
ATOM     21  C   UNL     1       9.729  12.841  17.485  0.00  0.00    +0.000 C 
ATOM     22  C   UNL     1      11.084  13.094  16.809  0.00  0.00    +0.000 C 
ATOM     23  O   UNL     1      12.064  13.562  17.750  0.00  0.00    +0.000 OA
ATOM     24  C   UNL     1      12.246  12.617  18.819  0.00  0.00    +0.000 C 
ATOM     25  C   UNL     1      10.932  12.388  19.571  0.00  0.00    +0.000 C 
ENDBRANCH  17  18
ENDBRANCH  16  17
ENDBRANCH  13  16
ENDBRANCH   4  10
BRANCH   1  26
ATOM     26  N   UNL     1       1.853   6.458  20.500  0.00  0.00    +0.000 N 
ATOM     27  H   UNL     1       0.910   6.144  20.746  0.00  0.00    +0.000 HD
BRANCH  26  33
ATOM     28  C   UNL     1       1.272   8.882  20.402  0.00  0.00    +0.000 A 
ATOM     29  C   UNL     1       1.079  10.036  19.612  0.00  0.00    +0.000 A 
ATOM     30  C   UNL     1       1.329  10.025  18.240  0.00  0.00    +0.000 A 
ATOM     31  C   UNL     1       1.767   8.857  17.633  0.00  0.00    +0.000 A 
ATOM     32  C   UNL     1       1.950   7.707  18.398  0.00  0.00    +0.000 A 
ATOM     33  C   UNL     1       1.741   7.696  19.793  0.00  0.00    +0.000 A 
BRANCH  28  35
ATOM     34  O   UNL     1       1.851   9.215  22.690  0.00  0.00    +0.000 OA
ATOM     35  C   UNL     1       0.963   9.039  21.857  0.00  0.00    +0.000 C 
ATOM     36  N   UNL     1      -0.354   8.961  22.240  0.00  0.00    +0.000 N 
ATOM     37  H   UNL     1      -1.057   8.536  21.641  0.00  0.00    +0.000 HD
BRANCH  36  38
ATOM     38  O   UNL     1      -0.593   8.968  23.631  0.00  0.00    +0.000 OA
ATOM     39  H   UNL     1       0.299   8.766  23.992  0.00  0.00    +0.000 HD
ENDBRANCH  36  38
ENDBRANCH  28  35
ENDBRANCH  26  33
ENDBRANCH   1  26
TORSDOF 8
ENDMDL
MODEL 7
REMARK VINA RESULT:      -8.3      4.611      7.191
REMARK  Name = 
REMARK  8 active torsions:
REMARK  status: ('A' for Active; 'I' for Inactive)
REMARK    1  A    between atoms: C_2  and  C_5
REMARK    2  A    between atoms: N_3  and  O_4
REMARK    3  A    between atoms: C_10  and  N_11
REMARK    4  A    between atoms: N_11  and  C_12
REMARK    5  A    between atoms: N_15  and  C_16
REMARK    6  A    between atoms: C_19  and  O_20
REMARK    7  A    between atoms: O_20  and  C_21
REMARK    8  A    between atoms: C_21  and  C_22
REMARK                            x       y       z     vdW  Elec       q    Type
REMARK                         _______ _______ _______ _____ _____    ______ ____
ROOT
ATOM      1  C   UNL     1      -0.195  10.767  20.757  0.00  0.00    +0.000 A 
ATOM      2  N   UNL     1       0.628   9.706  20.638  0.00  0.00    +0.000 NA
ATOM      3  C   UNL     1       0.837   8.905  21.694  0.00  0.00    +0.000 A 
ATOM      4  N   UNL     1       1.735   7.847  21.574  0.00  0.00    +0.000 N 
ATOM      5  N   UNL     1       0.263   9.106  22.889  0.00  0.00    +0.000 NA
ATOM      6  C   UNL     1      -0.575  10.161  22.989  0.00  0.00    +0.000 A 
ATOM      7  C   UNL     1      -0.834  11.036  21.957  0.00  0.00    +0.000 A 
ATOM      8 CL   UNL     1      -1.930  12.343  22.158  0.00  0.00    +0.000 Cl
ATOM      9  H   UNL     1       1.856   7.387  22.466  0.00  0.00    +0.000 HD
ENDROOT
BRANCH   4  10
ATOM     10  C   UNL     1       1.951   7.024  20.456  0.00  0.00    +0.000 A 
ATOM     11  C   UNL     1       1.720   5.651  20.561  0.00  0.00    +0.000 A 
ATOM     12  C   UNL     1       1.913   4.801  19.470  0.00  0.00    +0.000 A 
ATOM     13  C   UNL     1       2.301   5.315  18.234  0.00  0.00    +0.000 A 
ATOM     14  C   UNL     1       2.557   6.680  18.114  0.00  0.00    +0.000 A 
ATOM     15  C   UNL     1       2.379   7.525  19.219  0.00  0.00    +0.000 A 
BRANCH  13  16
ATOM     16  O   UNL     1       2.410   4.397  17.225  0.00  0.00    +0.000 OA
BRANCH  16  17
ATOM     17  C   UNL     1       3.506   3.499  17.327  0.00  0.00    +0.000 C 
BRANCH  17  18
ATOM     18  C   UNL     1       4.742   4.029  16.594  0.00  0.00    +0.000 C 
ATOM     19  O   UNL     1       4.706   4.176  15.368  0.00  0.00    +0.000 OA
ATOM     20  N   UNL     1       5.850   4.399  17.335  0.00  0.00    +0.000 N 
ATOM     21  C   UNL     1       6.004   4.289  18.788  0.00  0.00    +0.000 C 
ATOM     22  C   UNL     1       6.407   5.646  19.382  0.00  0.00    +0.000 C 
ATOM     23  O   UNL     1       7.570   6.184  18.731  0.00  0.00    +0.000 OA
ATOM     24  C   UNL     1       7.344   6.341  17.319  0.00  0.00    +0.000 C 
ATOM     25  C   UNL     1       7.010   4.995  16.669  0.00  0.00    +0.000 C 
ENDBRANCH  17  18
ENDBRANCH  16  17
ENDBRANCH  13  16
ENDBRANCH   4  10
BRANCH   1  26
ATOM     26  N   UNL     1      -0.298  11.666  19.651  0.00  0.00    +0.000 N 
ATOM     27  H   UNL     1      -0.618  11.135  18.837  0.00  0.00    +0.000 HD
BRANCH  26  33
ATOM     28  C   UNL     1       0.745  13.920  19.414  0.00  0.00    +0.000 A 
ATOM     29  C   UNL     1       1.784  14.707  18.873  0.00  0.00    +0.000 A 
ATOM     30  C   UNL     1       2.829  14.131  18.152  0.00  0.00    +0.000 A 
ATOM     31  C   UNL     1       2.849  12.759  17.953  0.00  0.00    +0.000 A 
ATOM     32  C   UNL     1       1.824  11.970  18.470  0.00  0.00    +0.000 A 
ATOM     33  C   UNL     1       0.771  12.518  19.234  0.00  0.00    +0.000 A 
BRANCH  28  35
ATOM     34  O   UNL     1      -0.119  15.091  21.302  0.00  0.00    +0.000 OA
ATOM     35  C   UNL     1      -0.311  14.672  20.161  0.00  0.00    +0.000 C 
ATOM     36  N   UNL     1      -1.518  14.863  19.536  0.00  0.00    +0.000 N 
ATOM     37  H   UNL     1      -1.803  14.294  18.742  0.00  0.00    +0.000 HD
BRANCH  36  38
ATOM     38  O   UNL     1      -2.535  15.447  20.323  0.00  0.00    +0.000 OA
ATOM     39  H   UNL     1      -2.235  15.232  21.234  0.00  0.00    +0.000 HD
ENDBRANCH  36  38
ENDBRANCH  28  35
ENDBRANCH  26  33
ENDBRANCH   1  26
TORSDOF 8
ENDMDL
MODEL 8
REMARK VINA RESULT:      -8.2      1.104      1.382
REMARK  Name = 
REMARK  8 active torsions:
REMARK  status: ('A' for Active; 'I' for Inactive)
REMARK    1  A    between atoms: C_2  and  C_5
REMARK    2  A    between atoms: N_3  and  O_4
REMARK    3  A    between atoms: C_10  and  N_11
REMARK    4  A    between atoms: N_11  and  C_12
REMARK    5  A    between atoms: N_15  and  C_16
REMARK    6  A    between atoms: C_19  and  O_20
REMARK    7  A    between atoms: O_20  and  C_21
REMARK    8  A    between atoms: C_21  and  C_22
REMARK                            x       y       z     vdW  Elec       q    Type
REMARK                         _______ _______ _______ _____ _____    ______ ____
ROOT
ATOM      1  C   UNL     1       2.818   5.371  19.872  0.00  0.00    +0.000 A 
ATOM      2  N   UNL     1       4.139   5.587  19.710  0.00  0.00    +0.000 NA
ATOM      3  C   UNL     1       4.936   4.578  19.327  0.00  0.00    +0.000 A 
ATOM      4  N   UNL     1       6.306   4.800  19.220  0.00  0.00    +0.000 N 
ATOM      5  N   UNL     1       4.483   3.339  19.092  0.00  0.00    +0.000 NA
ATOM      6  C   UNL     1       3.154   3.140  19.238  0.00  0.00    +0.000 A 
ATOM      7  C   UNL     1       2.272   4.119  19.639  0.00  0.00    +0.000 A 
ATOM      8 CL   UNL     1       0.592   3.793  19.781  0.00  0.00    +0.000 Cl
ATOM      9  H   UNL     1       6.787   3.937  19.009  0.00  0.00    +0.000 HD
ENDROOT
BRANCH   4  10
ATOM     10  C   UNL     1       6.958   5.960  18.767  0.00  0.00    +0.000 A 
ATOM     11  C   UNL     1       6.471   6.620  17.635  0.00  0.00    +0.000 A 
ATOM     12  C   UNL     1       7.084   7.781  17.159  0.00  0.00    +0.000 A 
ATOM     13  C   UNL     1       8.172   8.333  17.831  0.00  0.00    +0.000 A 
ATOM     14  C   UNL     1       8.685   7.678  18.950  0.00  0.00    +0.000 A 
ATOM     15  C   UNL     1       8.077   6.502  19.412  0.00  0.00    +0.000 A 
BRANCH  13  16
ATOM     16  O   UNL     1       8.658   9.499  17.304  0.00  0.00    +0.000 OA
BRANCH  16  17
ATOM     17  C   UNL     1       8.610  10.628  18.164  0.00  0.00    +0.000 C 
BRANCH  17  18
ATOM     18  C   UNL     1       9.874  11.485  18.045  0.00  0.00    +0.000 C 
ATOM     19  O   UNL     1      10.882  11.013  17.509  0.00  0.00    +0.000 OA
ATOM     20  N   UNL     1       9.832  12.799  18.478  0.00  0.00    +0.000 N 
ATOM     21  C   UNL     1       8.695  13.474  19.110  0.00  0.00    +0.000 C 
ATOM     22  C   UNL     1       8.363  14.770  18.357  0.00  0.00    +0.000 C 
ATOM     23  O   UNL     1       9.518  15.615  18.225  0.00  0.00    +0.000 OA
ATOM     24  C   UNL     1      10.580  14.933  17.535  0.00  0.00    +0.000 C 
ATOM     25  C   UNL     1      10.996  13.668  18.291  0.00  0.00    +0.000 C 
ENDBRANCH  17  18
ENDBRANCH  16  17
ENDBRANCH  13  16
ENDBRANCH   4  10
BRANCH   1  26
ATOM     26  N   UNL     1       2.022   6.435  20.398  0.00  0.00    +0.000 N 
ATOM     27  H   UNL     1       1.104   6.056  20.645  0.00  0.00    +0.000 HD
BRANCH  26  33
ATOM     28  C   UNL     1       1.227   8.799  20.330  0.00  0.00    +0.000 A 
ATOM     29  C   UNL     1       0.958   9.950  19.559  0.00  0.00    +0.000 A 
ATOM     30  C   UNL     1       1.255   9.995  18.197  0.00  0.00    +0.000 A 
ATOM     31  C   UNL     1       1.819   8.887  17.582  0.00  0.00    +0.000 A 
ATOM     32  C   UNL     1       2.079   7.739  18.328  0.00  0.00    +0.000 A 
ATOM     33  C   UNL     1       1.823   7.675  19.714  0.00  0.00    +0.000 A 
BRANCH  28  35
ATOM     34  O   UNL     1       1.682   8.707  22.668  0.00  0.00    +0.000 OA
ATOM     35  C   UNL     1       0.854   8.892  21.777  0.00  0.00    +0.000 C 
ATOM     36  N   UNL     1      -0.455   9.173  22.079  0.00  0.00    +0.000 N 
ATOM     37  H   UNL     1      -1.198   9.042  21.397  0.00  0.00    +0.000 HD
BRANCH  36  38
ATOM     38  O   UNL     1      -0.800   9.109  23.447  0.00  0.00    +0.000 OA
ATOM     39  H   UNL     1      -0.194   8.407  23.776  0.00  0.00    +0.000 HD
ENDBRANCH  36  38
ENDBRANCH  28  35
ENDBRANCH  26  33
ENDBRANCH   1  26
TORSDOF 8
ENDMDL
MODEL 9
REMARK VINA RESULT:      -8.2      5.220      7.402
REMARK  Name = 
REMARK  8 active torsions:
REMARK  status: ('A' for Active; 'I' for Inactive)
REMARK    1  A    between atoms: C_2  and  C_5
REMARK    2  A    between atoms: N_3  and  O_4
REMARK    3  A    between atoms: C_10  and  N_11
REMARK    4  A    between atoms: N_11  and  C_12
REMARK    5  A    between atoms: N_15  and  C_16
REMARK    6  A    between atoms: C_19  and  O_20
REMARK    7  A    between atoms: O_20  and  C_21
REMARK    8  A    between atoms: C_21  and  C_22
REMARK                            x       y       z     vdW  Elec       q    Type
REMARK                         _______ _______ _______ _____ _____    ______ ____
ROOT
ATOM      1  C   UNL     1      -0.249  10.605  20.894  0.00  0.00    +0.000 A 
ATOM      2  N   UNL     1       0.546   9.531  20.719  0.00  0.00    +0.000 NA
ATOM      3  C   UNL     1       0.916   8.797  21.779  0.00  0.00    +0.000 A 
ATOM      4  N   UNL     1       1.785   7.726  21.591  0.00  0.00    +0.000 N 
ATOM      5  N   UNL     1       0.531   9.077  23.032  0.00  0.00    +0.000 NA
ATOM      6  C   UNL     1      -0.284  10.144  23.192  0.00  0.00    +0.000 A 
ATOM      7  C   UNL     1      -0.698  10.955  22.158  0.00  0.00    +0.000 A 
ATOM      8 CL   UNL     1      -1.752  12.281  22.440  0.00  0.00    +0.000 Cl
ATOM      9  H   UNL     1       2.042   7.321  22.481  0.00  0.00    +0.000 HD
ENDROOT
BRANCH   4  10
ATOM     10  C   UNL     1       1.829   6.833  20.507  0.00  0.00    +0.000 A 
ATOM     11  C   UNL     1       1.463   5.499  20.703  0.00  0.00    +0.000 A 
ATOM     12  C   UNL     1       1.483   4.583  19.649  0.00  0.00    +0.000 A 
ATOM     13  C   UNL     1       1.829   4.992  18.364  0.00  0.00    +0.000 A 
ATOM     14  C   UNL     1       2.218   6.314  18.151  0.00  0.00    +0.000 A 
ATOM     15  C   UNL     1       2.214   7.224  19.218  0.00  0.00    +0.000 A 
BRANCH  13  16
ATOM     16  O   UNL     1       1.764   4.021  17.401  0.00  0.00    +0.000 OA
BRANCH  16  17
ATOM     17  C   UNL     1       3.006   3.648  16.821  0.00  0.00    +0.000 C 
BRANCH  17  18
ATOM     18  C   UNL     1       4.160   3.785  17.818  0.00  0.00    +0.000 C 
ATOM     19  O   UNL     1       4.193   3.057  18.815  0.00  0.00    +0.000 OA
ATOM     20  N   UNL     1       5.181   4.676  17.539  0.00  0.00    +0.000 N 
ATOM     21  C   UNL     1       5.263   5.576  16.385  0.00  0.00    +0.000 C 
ATOM     22  C   UNL     1       6.597   5.377  15.651  0.00  0.00    +0.000 C 
ATOM     23  O   UNL     1       7.715   5.504  16.544  0.00  0.00    +0.000 OA
ATOM     24  C   UNL     1       7.627   4.551  17.619  0.00  0.00    +0.000 C 
ATOM     25  C   UNL     1       6.343   4.760  18.427  0.00  0.00    +0.000 C 
ENDBRANCH  17  18
ENDBRANCH  16  17
ENDBRANCH  13  16
ENDBRANCH   4  10
BRANCH   1  26
ATOM     26  N   UNL     1      -0.521  11.433  19.762  0.00  0.00    +0.000 N 
ATOM     27  H   UNL     1      -0.750  12.372  20.100  0.00  0.00    +0.000 HD
BRANCH  26  33
ATOM     28  C   UNL     1      -2.790  11.574  18.733  0.00  0.00    +0.000 A 
ATOM     29  C   UNL     1      -3.696  11.094  17.763  0.00  0.00    +0.000 A 
ATOM     30  C   UNL     1      -3.313  10.136  16.825  0.00  0.00    +0.000 A 
ATOM     31  C   UNL     1      -2.020   9.635  16.846  0.00  0.00    +0.000 A 
ATOM     32  C   UNL     1      -1.118  10.090  17.806  0.00  0.00    +0.000 A 
ATOM     33  C   UNL     1      -1.464  11.084  18.746  0.00  0.00    +0.000 A 
BRANCH  28  35
ATOM     34  O   UNL     1      -4.385  12.410  20.294  0.00  0.00    +0.000 OA
ATOM     35  C   UNL     1      -3.338  12.598  19.676  0.00  0.00    +0.000 C 
ATOM     36  N   UNL     1      -2.640  13.772  19.816  0.00  0.00    +0.000 N 
ATOM     37  H   UNL     1      -1.957  14.071  19.123  0.00  0.00    +0.000 HD
BRANCH  36  38
ATOM     38  O   UNL     1      -3.260  14.770  20.598  0.00  0.00    +0.000 OA
ATOM     39  H   UNL     1      -3.607  15.381  19.911  0.00  0.00    +0.000 HD
ENDBRANCH  36  38
ENDBRANCH  28  35
ENDBRANCH  26  33
ENDBRANCH   1  26
TORSDOF 8
ENDMDL
