MODEL 1
REMARK VINA RESULT:      -8.7      0.000      0.000
REMARK  Name = 
REMARK  4 active torsions:
REMARK  status: ('A' for Active; 'I' for Inactive)
REMARK    1  A    between atoms: N_4  and  C_5
REMARK    2  A    between atoms: C_9  and  C_10
REMARK    3  A    between atoms: C_15  and  C_16
REMARK    4  A    between atoms: C_21  and  N_22
REMARK                            x       y       z     vdW  Elec       q    Type
REMARK                         _______ _______ _______ _____ _____    ______ ____
ROOT
ATOM      1  C   UNL     1       2.223   7.565  18.984  0.00  0.00    +0.000 A 
ATOM      2  C   UNL     1       2.200   8.300  17.806  0.00  0.00    +0.000 A 
ATOM      3  N   UNL     1       1.567   9.503  17.953  0.00  0.00    +0.000 NA
ATOM      4  C   UNL     1       1.211   9.549  19.216  0.00  0.00    +0.000 A 
ATOM      5  C   UNL     1       0.520  10.564  19.941  0.00  0.00    +0.000 A 
ATOM      6  C   UNL     1       0.269  10.434  21.267  0.00  0.00    +0.000 A 
ATOM      7  C   UNL     1       0.745   9.225  21.956  0.00  0.00    +0.000 A 
ATOM      8  C   UNL     1       1.409   8.273  21.283  0.00  0.00    +0.000 A 
ATOM      9  N   UNL     1       1.618   8.411  19.910  0.00  0.00    +0.000 N 
ENDROOT
BRANCH   6  10
ATOM     10  C   UNL     1      -0.442  11.523  21.995  0.00  0.00    +0.000 A 
ATOM     11  N   UNL     1       0.118  12.751  21.950  0.00  0.00    +0.000 NA
ATOM     12  C   UNL     1      -0.560  13.739  22.567  0.00  0.00    +0.000 A 
ATOM     13  C   UNL     1      -1.750  13.538  23.218  0.00  0.00    +0.000 A 
ATOM     14  F   UNL     1      -2.390  14.550  23.820  0.00  0.00    +0.000 F 
ATOM     15  C   UNL     1      -2.234  12.246  23.233  0.00  0.00    +0.000 A 
ATOM     16  N   UNL     1      -1.599  11.231  22.625  0.00  0.00    +0.000 NA
BRANCH  15  17
ATOM     17  N   UNL     1      -3.466  11.941  23.821  0.00  0.00    +0.000 N 
ATOM     18  H   UNL     1      -4.140  12.691  23.728  0.00  0.00    +0.000 HD
ATOM     19  H   UNL     1      -3.309  11.655  24.784  0.00  0.00    +0.000 HD
ENDBRANCH  15  17
ENDBRANCH   6  10
BRANCH   1  24
ATOM     20  C   UNL     1       4.692   4.681  19.245  0.00  0.00    +0.000 A 
ATOM     21  C   UNL     1       3.839   3.654  19.642  0.00  0.00    +0.000 A 
ATOM     22  C   UNL     1       2.485   3.909  19.856  0.00  0.00    +0.000 A 
ATOM     23  C   UNL     1       1.970   5.187  19.642  0.00  0.00    +0.000 A 
ATOM     24  C   UNL     1       2.804   6.239  19.242  0.00  0.00    +0.000 A 
ATOM     25  C   UNL     1       4.179   5.979  19.107  0.00  0.00    +0.000 A 
BRANCH  20  29
ATOM     26  N   UNL     1       7.985   4.263  17.790  0.00  0.00    +0.000 N 
ATOM     27  C   UNL     1       6.647   4.521  17.726  0.00  0.00    +0.000 C 
ATOM     28  O   UNL     1       6.134   4.776  16.647  0.00  0.00    +0.000 OA
ATOM     29  N   UNL     1       6.060   4.480  18.963  0.00  0.00    +0.000 N 
ATOM     30  H   UNL     1       8.401   4.214  16.866  0.00  0.00    +0.000 HD
ATOM     31  H   UNL     1       8.273   3.518  18.406  0.00  0.00    +0.000 HD
ATOM     32  H   UNL     1       6.705   4.542  19.737  0.00  0.00    +0.000 HD
ENDBRANCH  20  29
ENDBRANCH   1  24
TORSDOF 4
ENDMDL
MODEL 2
REMARK VINA RESULT:      -8.7      0.814      1.407
REMARK  Name = 
REMARK  4 active torsions:
REMARK  status: ('A' for Active; 'I' for Inactive)
REMARK    1  A    between atoms: N_4  and  C_5
REMARK    2  A    between atoms: C_9  and  C_10
REMARK    3  A    between atoms: C_15  and  C_16
REMARK    4  A    between atoms: C_21  and  N_22
REMARK                            x       y       z     vdW  Elec       q    Type
REMARK                         _______ _______ _______ _____ _____    ______ ____
ROOT
ATOM      1  C   UNL     1       2.469   7.351  18.538  0.00  0.00    +0.000 A 
ATOM      2  C   UNL     1       2.560   8.193  17.438  0.00  0.00    +0.000 A 
ATOM      3  N   UNL     1       1.978   9.410  17.661  0.00  0.00    +0.000 NA
ATOM      4  C   UNL     1       1.540   9.357  18.898  0.00  0.00    +0.000 A 
ATOM      5  C   UNL     1       0.852  10.336  19.673  0.00  0.00    +0.000 A 
ATOM      6  C   UNL     1       0.506  10.095  20.962  0.00  0.00    +0.000 A 
ATOM      7  C   UNL     1       0.876   8.803  21.560  0.00  0.00    +0.000 A 
ATOM      8  C   UNL     1       1.537   7.883  20.840  0.00  0.00    +0.000 A 
ATOM      9  N   UNL     1       1.844   8.138  19.503  0.00  0.00    +0.000 N 
ENDROOT
BRANCH   6  10
ATOM     10  C   UNL     1      -0.198  11.148  21.747  0.00  0.00    +0.000 A 
ATOM     11  N   UNL     1      -1.162  10.731  22.597  0.00  0.00    +0.000 NA
ATOM     12  C   UNL     1      -1.755  11.685  23.341  0.00  0.00    +0.000 A 
ATOM     13  C   UNL     1      -1.426  13.014  23.257  0.00  0.00    +0.000 A 
ATOM     14  F   UNL     1      -2.044  13.930  24.015  0.00  0.00    +0.000 F 
ATOM     15  C   UNL     1      -0.447  13.350  22.345  0.00  0.00    +0.000 A 
ATOM     16  N   UNL     1       0.179  12.434  21.589  0.00  0.00    +0.000 NA
BRANCH  15  17
ATOM     17  N   UNL     1       0.003  14.668  22.218  0.00  0.00    +0.000 N 
ATOM     18  H   UNL     1      -0.131  15.210  23.063  0.00  0.00    +0.000 HD
ATOM     19  H   UNL     1      -0.427  15.085  21.397  0.00  0.00    +0.000 HD
ENDBRANCH  15  17
ENDBRANCH   6  10
BRANCH   1  24
ATOM     20  C   UNL     1       4.784   4.338  18.751  0.00  0.00    +0.000 A 
ATOM     21  C   UNL     1       3.853   3.315  18.908  0.00  0.00    +0.000 A 
ATOM     22  C   UNL     1       2.492   3.609  18.979  0.00  0.00    +0.000 A 
ATOM     23  C   UNL     1       2.052   4.927  18.861  0.00  0.00    +0.000 A 
ATOM     24  C   UNL     1       2.966   5.977  18.702  0.00  0.00    +0.000 A 
ATOM     25  C   UNL     1       4.337   5.667  18.710  0.00  0.00    +0.000 A 
BRANCH  20  29
ATOM     26  N   UNL     1       8.272   4.167  17.780  0.00  0.00    +0.000 N 
ATOM     27  C   UNL     1       6.986   4.595  17.635  0.00  0.00    +0.000 C 
ATOM     28  O   UNL     1       6.702   5.349  16.716  0.00  0.00    +0.000 OA
ATOM     29  N   UNL     1       6.171   4.106  18.620  0.00  0.00    +0.000 N 
ATOM     30  H   UNL     1       8.856   4.464  17.006  0.00  0.00    +0.000 HD
ATOM     31  H   UNL     1       8.401   3.200  18.040  0.00  0.00    +0.000 HD
ATOM     32  H   UNL     1       6.656   3.749  19.431  0.00  0.00    +0.000 HD
ENDBRANCH  20  29
ENDBRANCH   1  24
TORSDOF 4
ENDMDL
MODEL 3
REMARK VINA RESULT:      -8.6      2.487      4.064
REMARK  Name = 
REMARK  4 active torsions:
REMARK  status: ('A' for Active; 'I' for Inactive)
REMARK    1  A    between atoms: N_4  and  C_5
REMARK    2  A    between atoms: C_9  and  C_10
REMARK    3  A    between atoms: C_15  and  C_16
REMARK    4  A    between atoms: C_21  and  N_22
REMARK                            x       y       z     vdW  Elec       q    Type
REMARK                         _______ _______ _______ _____ _____    ______ ____
ROOT
ATOM      1  C   UNL     1       3.977   5.590  19.056  0.00  0.00    +0.000 A 
ATOM      2  C   UNL     1       3.329   4.861  20.043  0.00  0.00    +0.000 A 
ATOM      3  N   UNL     1       2.236   5.513  20.543  0.00  0.00    +0.000 NA
ATOM      4  C   UNL     1       2.171   6.637  19.867  0.00  0.00    +0.000 A 
ATOM      5  C   UNL     1       1.237   7.711  19.955  0.00  0.00    +0.000 A 
ATOM      6  C   UNL     1       1.325   8.788  19.136  0.00  0.00    +0.000 A 
ATOM      7  C   UNL     1       2.398   8.818  18.129  0.00  0.00    +0.000 A 
ATOM      8  C   UNL     1       3.270   7.804  18.031  0.00  0.00    +0.000 A 
ATOM      9  N   UNL     1       3.184   6.727  18.914  0.00  0.00    +0.000 N 
ENDROOT
BRANCH   6  10
ATOM     10  C   UNL     1       0.322   9.884  19.246  0.00  0.00    +0.000 A 
ATOM     11  N   UNL     1       0.111  10.395  20.478  0.00  0.00    +0.000 NA
ATOM     12  C   UNL     1      -0.758  11.421  20.558  0.00  0.00    +0.000 A 
ATOM     13  C   UNL     1      -1.413  11.936  19.468  0.00  0.00    +0.000 A 
ATOM     14  F   UNL     1      -2.271  12.957  19.594  0.00  0.00    +0.000 F 
ATOM     15  C   UNL     1      -1.153  11.336  18.253  0.00  0.00    +0.000 A 
ATOM     16  N   UNL     1      -0.289  10.317  18.123  0.00  0.00    +0.000 NA
BRANCH  15  17
ATOM     17  N   UNL     1      -1.725  11.817  17.071  0.00  0.00    +0.000 N 
ATOM     18  H   UNL     1      -2.709  12.036  17.174  0.00  0.00    +0.000 HD
ATOM     19  H   UNL     1      -1.532  11.158  16.321  0.00  0.00    +0.000 HD
ENDBRANCH  15  17
ENDBRANCH   6  10
BRANCH   1  24
ATOM     20  C   UNL     1       6.251   4.286  16.297  0.00  0.00    +0.000 A 
ATOM     21  C   UNL     1       7.499   4.494  16.880  0.00  0.00    +0.000 A 
ATOM     22  C   UNL     1       7.597   5.084  18.138  0.00  0.00    +0.000 A 
ATOM     23  C   UNL     1       6.444   5.441  18.838  0.00  0.00    +0.000 A 
ATOM     24  C   UNL     1       5.175   5.242  18.277  0.00  0.00    +0.000 A 
ATOM     25  C   UNL     1       5.102   4.718  16.975  0.00  0.00    +0.000 A 
BRANCH  20  29
ATOM     26  N   UNL     1       6.174   3.265  12.820  0.00  0.00    +0.000 N 
ATOM     27  C   UNL     1       6.520   4.105  13.837  0.00  0.00    +0.000 C 
ATOM     28  O   UNL     1       7.172   5.110  13.593  0.00  0.00    +0.000 OA
ATOM     29  N   UNL     1       6.079   3.647  15.050  0.00  0.00    +0.000 N 
ATOM     30  H   UNL     1       6.430   3.646  11.916  0.00  0.00    +0.000 HD
ATOM     31  H   UNL     1       5.242   2.878  12.850  0.00  0.00    +0.000 HD
ATOM     32  H   UNL     1       5.823   2.671  15.064  0.00  0.00    +0.000 HD
ENDBRANCH  20  29
ENDBRANCH   1  24
TORSDOF 4
ENDMDL
MODEL 4
REMARK VINA RESULT:      -8.6      4.695      9.576
REMARK  Name = 
REMARK  4 active torsions:
REMARK  status: ('A' for Active; 'I' for Inactive)
REMARK    1  A    between atoms: N_4  and  C_5
REMARK    2  A    between atoms: C_9  and  C_10
REMARK    3  A    between atoms: C_15  and  C_16
REMARK    4  A    between atoms: C_21  and  N_22
REMARK                            x       y       z     vdW  Elec       q    Type
REMARK                         _______ _______ _______ _____ _____    ______ ____
ROOT
ATOM      1  C   UNL     1       0.552   9.358  20.347  0.00  0.00    +0.000 A 
ATOM      2  C   UNL     1       0.593   8.597  21.507  0.00  0.00    +0.000 A 
ATOM      3  N   UNL     1       1.389   7.492  21.379  0.00  0.00    +0.000 NA
ATOM      4  C   UNL     1       1.871   7.558  20.160  0.00  0.00    +0.000 A 
ATOM      5  C   UNL     1       2.759   6.679  19.472  0.00  0.00    +0.000 A 
ATOM      6  C   UNL     1       3.167   6.942  18.206  0.00  0.00    +0.000 A 
ATOM      7  C   UNL     1       2.691   8.172  17.556  0.00  0.00    +0.000 A 
ATOM      8  C   UNL     1       1.868   9.011  18.203  0.00  0.00    +0.000 A 
ATOM      9  N   UNL     1       1.428   8.697  19.490  0.00  0.00    +0.000 N 
ENDROOT
BRANCH   6  10
ATOM     10  C   UNL     1       4.109   6.009  17.525  0.00  0.00    +0.000 A 
ATOM     11  N   UNL     1       3.670   4.749  17.313  0.00  0.00    +0.000 NA
ATOM     12  C   UNL     1       4.508   3.929  16.649  0.00  0.00    +0.000 A 
ATOM     13  C   UNL     1       5.746   4.321  16.206  0.00  0.00    +0.000 A 
ATOM     14  F   UNL     1       6.548   3.471  15.551  0.00  0.00    +0.000 F 
ATOM     15  C   UNL     1       6.119   5.619  16.488  0.00  0.00    +0.000 A 
ATOM     16  N   UNL     1       5.315   6.475  17.139  0.00  0.00    +0.000 NA
BRANCH  15  17
ATOM     17  N   UNL     1       7.336   6.138  16.035  0.00  0.00    +0.000 N 
ATOM     18  H   UNL     1       7.887   6.548  16.780  0.00  0.00    +0.000 HD
ATOM     19  H   UNL     1       7.155   6.776  15.265  0.00  0.00    +0.000 HD
ENDBRANCH  15  17
ENDBRANCH   6  10
BRANCH   1  24
ATOM     20  C   UNL     1      -1.716  11.953  18.733  0.00  0.00    +0.000 A 
ATOM     21  C   UNL     1      -1.459  13.054  19.548  0.00  0.00    +0.000 A 
ATOM     22  C   UNL     1      -0.587  12.939  20.629  0.00  0.00    +0.000 A 
ATOM     23  C   UNL     1       0.061  11.730  20.883  0.00  0.00    +0.000 A 
ATOM     24  C   UNL     1      -0.177  10.607  20.079  0.00  0.00    +0.000 A 
ATOM     25  C   UNL     1      -1.119  10.722  19.042  0.00  0.00    +0.000 A 
BRANCH  20  29
ATOM     26  N   UNL     1      -4.351  11.736  16.254  0.00  0.00    +0.000 N 
ATOM     27  C   UNL     1      -3.828  11.541  17.498  0.00  0.00    +0.000 C 
ATOM     28  O   UNL     1      -4.515  11.021  18.366  0.00  0.00    +0.000 OA
ATOM     29  N   UNL     1      -2.547  12.015  17.594  0.00  0.00    +0.000 N 
ATOM     30  H   UNL     1      -5.268  11.312  16.162  0.00  0.00    +0.000 HD
ATOM     31  H   UNL     1      -3.738  11.554  15.473  0.00  0.00    +0.000 HD
ATOM     32  H   UNL     1      -2.280  12.659  16.864  0.00  0.00    +0.000 HD
ENDBRANCH  20  29
ENDBRANCH   1  24
TORSDOF 4
ENDMDL
MODEL 5
REMARK VINA RESULT:      -8.6      2.712      3.528
REMARK  Name = 
REMARK  4 active torsions:
REMARK  status: ('A' for Active; 'I' for Inactive)
REMARK    1  A    between atoms: N_4  and  C_5
REMARK    2  A    between atoms: C_9  and  C_10
REMARK    3  A    between atoms: C_15  and  C_16
REMARK    4  A    between atoms: C_21  and  N_22
REMARK                            x       y       z     vdW  Elec       q    Type
REMARK                         _______ _______ _______ _____ _____    ______ ____
ROOT
ATOM      1  C   UNL     1       2.189   6.476  19.635  0.00  0.00    +0.000 A 
ATOM      2  C   UNL     1       1.655   6.449  20.916  0.00  0.00    +0.000 A 
ATOM      3  N   UNL     1       1.174   7.668  21.308  0.00  0.00    +0.000 NA
ATOM      4  C   UNL     1       1.375   8.460  20.280  0.00  0.00    +0.000 A 
ATOM      5  C   UNL     1       1.074   9.844  20.112  0.00  0.00    +0.000 A 
ATOM      6  C   UNL     1       1.337  10.484  18.945  0.00  0.00    +0.000 A 
ATOM      7  C   UNL     1       1.926   9.713  17.839  0.00  0.00    +0.000 A 
ATOM      8  C   UNL     1       2.198   8.408  17.987  0.00  0.00    +0.000 A 
ATOM      9  N   UNL     1       1.957   7.782  19.210  0.00  0.00    +0.000 N 
ENDROOT
BRANCH   6  10
ATOM     10  C   UNL     1       0.993  11.926  18.800  0.00  0.00    +0.000 A 
ATOM     11  N   UNL     1      -0.321  12.236  18.744  0.00  0.00    +0.000 NA
ATOM     12  C   UNL     1      -0.622  13.547  18.666  0.00  0.00    +0.000 A 
ATOM     13  C   UNL     1       0.330  14.535  18.636  0.00  0.00    +0.000 A 
ATOM     14  F   UNL     1      -0.015  15.827  18.556  0.00  0.00    +0.000 F 
ATOM     15  C   UNL     1       1.646  14.123  18.673  0.00  0.00    +0.000 A 
ATOM     16  N   UNL     1       1.995  12.829  18.760  0.00  0.00    +0.000 NA
BRANCH  15  17
ATOM     17  N   UNL     1       2.694  15.048  18.703  0.00  0.00    +0.000 N 
ATOM     18  H   UNL     1       3.574  14.652  18.395  0.00  0.00    +0.000 HD
ATOM     19  H   UNL     1       2.739  15.465  19.629  0.00  0.00    +0.000 HD
ENDBRANCH  15  17
ENDBRANCH   6  10
BRANCH   1  24
ATOM     20  C   UNL     1       4.739   4.088  18.127  0.00  0.00    +0.000 A 
ATOM     21  C   UNL     1       3.923   3.360  17.263  0.00  0.00    +0.000 A 
ATOM     22  C   UNL     1       2.556   3.622  17.203  0.00  0.00    +0.000 A 
ATOM     23  C   UNL     1       2.000   4.637  17.982  0.00  0.00    +0.000 A 
ATOM     24  C   UNL     1       2.796   5.386  18.858  0.00  0.00    +0.000 A 
ATOM     25  C   UNL     1       4.158   5.054  18.961  0.00  0.00    +0.000 A 
BRANCH  20  29
ATOM     26  N   UNL     1       8.350   4.240  17.849  0.00  0.00    +0.000 N 
ATOM     27  C   UNL     1       7.088   4.694  17.602  0.00  0.00    +0.000 C 
ATOM     28  O   UNL     1       6.931   5.707  16.937  0.00  0.00    +0.000 OA
ATOM     29  N   UNL     1       6.138   3.909  18.200  0.00  0.00    +0.000 N 
ATOM     30  H   UNL     1       9.046   4.774  17.340  0.00  0.00    +0.000 HD
ATOM     31  H   UNL     1       8.489   3.242  17.803  0.00  0.00    +0.000 HD
ATOM     32  H   UNL     1       6.487   3.307  18.930  0.00  0.00    +0.000 HD
ENDBRANCH  20  29
ENDBRANCH   1  24
TORSDOF 4
ENDMDL
MODEL 6
REMARK VINA RESULT:      -8.5      2.699      3.304
REMARK  Name = 
REMARK  4 active torsions:
REMARK  status: ('A' for Active; 'I' for Inactive)
REMARK    1  A    between atoms: N_4  and  C_5
REMARK    2  A    between atoms: C_9  and  C_10
REMARK    3  A    between atoms: C_15  and  C_16
REMARK    4  A    between atoms: C_21  and  N_22
REMARK                            x       y       z     vdW  Elec       q    Type
REMARK                         _______ _______ _______ _____ _____    ______ ____
ROOT
ATOM      1  C   UNL     1       2.516   6.113  19.316  0.00  0.00    +0.000 A 
ATOM      2  C   UNL     1       2.011   5.947  20.598  0.00  0.00    +0.000 A 
ATOM      3  N   UNL     1       1.440   7.090  21.087  0.00  0.00    +0.000 NA
ATOM      4  C   UNL     1       1.556   7.970  20.120  0.00  0.00    +0.000 A 
ATOM      5  C   UNL     1       1.140   9.333  20.060  0.00  0.00    +0.000 A 
ATOM      6  C   UNL     1       1.327  10.077  18.942  0.00  0.00    +0.000 A 
ATOM      7  C   UNL     1       1.955   9.441  17.773  0.00  0.00    +0.000 A 
ATOM      8  C   UNL     1       2.336   8.156  17.818  0.00  0.00    +0.000 A 
ATOM      9  N   UNL     1       2.170   7.423  18.993  0.00  0.00    +0.000 N 
ENDROOT
BRANCH   6  10
ATOM     10  C   UNL     1       0.864  11.493  18.910  0.00  0.00    +0.000 A 
ATOM     11  N   UNL     1       1.774  12.423  18.546  0.00  0.00    +0.000 NA
ATOM     12  C   UNL     1       1.331  13.693  18.469  0.00  0.00    +0.000 A 
ATOM     13  C   UNL     1       0.037  14.054  18.745  0.00  0.00    +0.000 A 
ATOM     14  F   UNL     1      -0.360  15.330  18.657  0.00  0.00    +0.000 F 
ATOM     15  C   UNL     1      -0.816  13.040  19.131  0.00  0.00    +0.000 A 
ATOM     16  N   UNL     1      -0.423  11.759  19.214  0.00  0.00    +0.000 NA
BRANCH  15  17
ATOM     17  N   UNL     1      -2.170  13.289  19.382  0.00  0.00    +0.000 N 
ATOM     18  H   UNL     1      -2.778  12.599  18.957  0.00  0.00    +0.000 HD
ATOM     19  H   UNL     1      -2.385  14.243  19.109  0.00  0.00    +0.000 HD
ENDBRANCH  15  17
ENDBRANCH   6  10
BRANCH   1  24
ATOM     20  C   UNL     1       4.761   4.578  16.654  0.00  0.00    +0.000 A 
ATOM     21  C   UNL     1       4.380   3.241  16.743  0.00  0.00    +0.000 A 
ATOM     22  C   UNL     1       3.430   2.843  17.682  0.00  0.00    +0.000 A 
ATOM     23  C   UNL     1       2.831   3.786  18.518  0.00  0.00    +0.000 A 
ATOM     24  C   UNL     1       3.195   5.137  18.450  0.00  0.00    +0.000 A 
ATOM     25  C   UNL     1       4.210   5.505  17.550  0.00  0.00    +0.000 A 
BRANCH  20  29
ATOM     26  N   UNL     1       7.643   5.537  14.675  0.00  0.00    +0.000 N 
ATOM     27  C   UNL     1       7.042   4.955  15.752  0.00  0.00    +0.000 C 
ATOM     28  O   UNL     1       7.730   4.406  16.602  0.00  0.00    +0.000 OA
ATOM     29  N   UNL     1       5.678   5.056  15.693  0.00  0.00    +0.000 N 
ATOM     30  H   UNL     1       8.653   5.532  14.761  0.00  0.00    +0.000 HD
ATOM     31  H   UNL     1       7.265   6.422  14.370  0.00  0.00    +0.000 HD
ATOM     32  H   UNL     1       5.312   5.282  14.780  0.00  0.00    +0.000 HD
ENDBRANCH  20  29
ENDBRANCH   1  24
TORSDOF 4
ENDMDL
MODEL 7
REMARK VINA RESULT:      -8.5      1.076      1.140
REMARK  Name = 
REMARK  4 active torsions:
REMARK  status: ('A' for Active; 'I' for Inactive)
REMARK    1  A    between atoms: N_4  and  C_5
REMARK    2  A    between atoms: C_9  and  C_10
REMARK    3  A    between atoms: C_15  and  C_16
REMARK    4  A    between atoms: C_21  and  N_22
REMARK                            x       y       z     vdW  Elec       q    Type
REMARK                         _______ _______ _______ _____ _____    ______ ____
ROOT
ATOM      1  C   UNL     1       2.462   7.417  18.709  0.00  0.00    +0.000 A 
ATOM      2  C   UNL     1       2.606   8.170  17.551  0.00  0.00    +0.000 A 
ATOM      3  N   UNL     1       1.934   9.359  17.614  0.00  0.00    +0.000 NA
ATOM      4  C   UNL     1       1.386   9.379  18.807  0.00  0.00    +0.000 A 
ATOM      5  C   UNL     1       0.570  10.369  19.429  0.00  0.00    +0.000 A 
ATOM      6  C   UNL     1       0.120  10.213  20.698  0.00  0.00    +0.000 A 
ATOM      7  C   UNL     1       0.509   9.002  21.437  0.00  0.00    +0.000 A 
ATOM      8  C   UNL     1       1.287   8.073  20.862  0.00  0.00    +0.000 A 
ATOM      9  N   UNL     1       1.704   8.237  19.541  0.00  0.00    +0.000 N 
ENDROOT
BRANCH   6  10
ATOM     10  C   UNL     1      -0.716  11.277  21.322  0.00  0.00    +0.000 A 
ATOM     11  N   UNL     1      -0.499  11.533  22.631  0.00  0.00    +0.000 NA
ATOM     12  C   UNL     1      -1.223  12.533  23.171  0.00  0.00    +0.000 A 
ATOM     13  C   UNL     1      -2.141  13.264  22.460  0.00  0.00    +0.000 A 
ATOM     14  F   UNL     1      -2.840  14.249  23.039  0.00  0.00    +0.000 F 
ATOM     15  C   UNL     1      -2.312  12.916  21.136  0.00  0.00    +0.000 A 
ATOM     16  N   UNL     1      -1.608  11.934  20.551  0.00  0.00    +0.000 NA
BRANCH  15  17
ATOM     17  N   UNL     1      -3.182  13.631  20.306  0.00  0.00    +0.000 N 
ATOM     18  H   UNL     1      -4.056  13.862  20.764  0.00  0.00    +0.000 HD
ATOM     19  H   UNL     1      -3.304  13.118  19.437  0.00  0.00    +0.000 HD
ENDBRANCH  15  17
ENDBRANCH   6  10
BRANCH   1  24
ATOM     20  C   UNL     1       4.888   4.515  19.129  0.00  0.00    +0.000 A 
ATOM     21  C   UNL     1       4.018   3.521  19.571  0.00  0.00    +0.000 A 
ATOM     22  C   UNL     1       2.667   3.805  19.764  0.00  0.00    +0.000 A 
ATOM     23  C   UNL     1       2.171   5.078  19.483  0.00  0.00    +0.000 A 
ATOM     24  C   UNL     1       3.022   6.097  19.036  0.00  0.00    +0.000 A 
ATOM     25  C   UNL     1       4.394   5.812  18.923  0.00  0.00    +0.000 A 
BRANCH  20  29
ATOM     26  N   UNL     1       8.222   4.177  17.749  0.00  0.00    +0.000 N 
ATOM     27  C   UNL     1       6.908   4.535  17.688  0.00  0.00    +0.000 C 
ATOM     28  O   UNL     1       6.469   5.042  16.666  0.00  0.00    +0.000 OA
ATOM     29  N   UNL     1       6.255   4.282  18.865  0.00  0.00    +0.000 N 
ATOM     30  H   UNL     1       8.684   4.290  16.853  0.00  0.00    +0.000 HD
ATOM     31  H   UNL     1       8.432   3.302  18.208  0.00  0.00    +0.000 HD
ATOM     32  H   UNL     1       6.860   4.138  19.660  0.00  0.00    +0.000 HD
ENDBRANCH  20  29
ENDBRANCH   1  24
TORSDOF 4
ENDMDL
MODEL 8
REMARK VINA RESULT:      -8.5      1.063      1.080
REMARK  Name = 
REMARK  4 active torsions:
REMARK  status: ('A' for Active; 'I' for Inactive)
REMARK    1  A    between atoms: N_4  and  C_5
REMARK    2  A    between atoms: C_9  and  C_10
REMARK    3  A    between atoms: C_15  and  C_16
REMARK    4  A    between atoms: C_21  and  N_22
REMARK                            x       y       z     vdW  Elec       q    Type
REMARK                         _______ _______ _______ _____ _____    ______ ____
ROOT
ATOM      1  C   UNL     1       1.825   8.106  19.451  0.00  0.00    +0.000 A 
ATOM      2  C   UNL     1       1.829   8.898  18.311  0.00  0.00    +0.000 A 
ATOM      3  N   UNL     1       1.183  10.089  18.500  0.00  0.00    +0.000 NA
ATOM      4  C   UNL     1       0.792  10.070  19.753  0.00  0.00    +0.000 A 
ATOM      5  C   UNL     1       0.074  11.044  20.508  0.00  0.00    +0.000 A 
ATOM      6  C   UNL     1      -0.212  10.846  21.819  0.00  0.00    +0.000 A 
ATOM      7  C   UNL     1       0.254   9.607  22.460  0.00  0.00    +0.000 A 
ATOM      8  C   UNL     1       0.943   8.694  21.759  0.00  0.00    +0.000 A 
ATOM      9  N   UNL     1       1.189   8.902  20.401  0.00  0.00    +0.000 N 
ENDROOT
BRANCH   6  10
ATOM     10  C   UNL     1      -0.950  11.893  22.580  0.00  0.00    +0.000 A 
ATOM     11  N   UNL     1      -0.325  13.079  22.747  0.00  0.00    +0.000 NA
ATOM     12  C   UNL     1      -1.023  14.035  23.390  0.00  0.00    +0.000 A 
ATOM     13  C   UNL     1      -2.295  13.844  23.868  0.00  0.00    +0.000 A 
ATOM     14  F   UNL     1      -2.951  14.823  24.504  0.00  0.00    +0.000 F 
ATOM     15  C   UNL     1      -2.844  12.593  23.672  0.00  0.00    +0.000 A 
ATOM     16  N   UNL     1      -2.192  11.611  23.029  0.00  0.00    +0.000 NA
BRANCH  15  17
ATOM     17  N   UNL     1      -4.154  12.307  24.070  0.00  0.00    +0.000 N 
ATOM     18  H   UNL     1      -4.231  11.416  24.547  0.00  0.00    +0.000 HD
ATOM     19  H   UNL     1      -4.768  12.391  23.265  0.00  0.00    +0.000 HD
ENDBRANCH  15  17
ENDBRANCH   6  10
BRANCH   1  24
ATOM     20  C   UNL     1       4.089   5.060  19.172  0.00  0.00    +0.000 A 
ATOM     21  C   UNL     1       3.417   4.169  20.007  0.00  0.00    +0.000 A 
ATOM     22  C   UNL     1       2.263   4.571  20.678  0.00  0.00    +0.000 A 
ATOM     23  C   UNL     1       1.755   5.856  20.493  0.00  0.00    +0.000 A 
ATOM     24  C   UNL     1       2.409   6.773  19.659  0.00  0.00    +0.000 A 
ATOM     25  C   UNL     1       3.612   6.374  19.053  0.00  0.00    +0.000 A 
BRANCH  20  29
ATOM     26  N   UNL     1       7.405   4.400  17.867  0.00  0.00    +0.000 N 
ATOM     27  C   UNL     1       6.534   4.810  18.833  0.00  0.00    +0.000 C 
ATOM     28  O   UNL     1       6.966   5.185  19.914  0.00  0.00    +0.000 OA
ATOM     29  N   UNL     1       5.231   4.703  18.425  0.00  0.00    +0.000 N 
ATOM     30  H   UNL     1       8.369   4.557  18.141  0.00  0.00    +0.000 HD
ATOM     31  H   UNL     1       7.199   4.687  16.921  0.00  0.00    +0.000 HD
ATOM     32  H   UNL     1       5.089   4.106  17.623  0.00  0.00    +0.000 HD
ENDBRANCH  20  29
ENDBRANCH   1  24
TORSDOF 4
ENDMDL
MODEL 9
REMARK VINA RESULT:      -8.4      4.749      9.551
REMARK  Name = 
REMARK  4 active torsions:
REMARK  status: ('A' for Active; 'I' for Inactive)
REMARK    1  A    between atoms: N_4  and  C_5
REMARK    2  A    between atoms: C_9  and  C_10
REMARK    3  A    between atoms: C_15  and  C_16
REMARK    4  A    between atoms: C_21  and  N_22
REMARK                            x       y       z     vdW  Elec       q    Type
REMARK                         _______ _______ _______ _____ _____    ______ ____
ROOT
ATOM      1  C   UNL     1       0.576   9.530  20.423  0.00  0.00    +0.000 A 
ATOM      2  C   UNL     1       0.647   8.787  21.594  0.00  0.00    +0.000 A 
ATOM      3  N   UNL     1       1.390   7.648  21.446  0.00  0.00    +0.000 NA
ATOM      4  C   UNL     1       1.811   7.674  20.203  0.00  0.00    +0.000 A 
ATOM      5  C   UNL     1       2.627   6.749  19.488  0.00  0.00    +0.000 A 
ATOM      6  C   UNL     1       2.980   6.974  18.199  0.00  0.00    +0.000 A 
ATOM      7  C   UNL     1       2.521   8.212  17.550  0.00  0.00    +0.000 A 
ATOM      8  C   UNL     1       1.766   9.094  18.223  0.00  0.00    +0.000 A 
ATOM      9  N   UNL     1       1.381   8.820  19.535  0.00  0.00    +0.000 N 
ENDROOT
BRANCH   6  10
ATOM     10  C   UNL     1       3.847   5.992  17.488  0.00  0.00    +0.000 A 
ATOM     11  N   UNL     1       4.722   6.492  16.588  0.00  0.00    +0.000 NA
ATOM     12  C   UNL     1       5.538   5.602  15.991  0.00  0.00    +0.000 A 
ATOM     13  C   UNL     1       5.501   4.256  16.254  0.00  0.00    +0.000 A 
ATOM     14  F   UNL     1       6.331   3.406  15.634  0.00  0.00    +0.000 F 
ATOM     15  C   UNL     1       4.560   3.833  17.170  0.00  0.00    +0.000 A 
ATOM     16  N   UNL     1       3.731   4.684  17.797  0.00  0.00    +0.000 NA
BRANCH  15  17
ATOM     17  N   UNL     1       4.473   2.491  17.552  0.00  0.00    +0.000 N 
ATOM     18  H   UNL     1       3.724   1.998  17.081  0.00  0.00    +0.000 HD
ATOM     19  H   UNL     1       4.417   2.441  18.566  0.00  0.00    +0.000 HD
ENDBRANCH  15  17
ENDBRANCH   6  10
BRANCH   1  24
ATOM     20  C   UNL     1      -1.720  12.168  18.926  0.00  0.00    +0.000 A 
ATOM     21  C   UNL     1      -1.324  13.289  19.651  0.00  0.00    +0.000 A 
ATOM     22  C   UNL     1      -0.347  13.176  20.639  0.00  0.00    +0.000 A 
ATOM     23  C   UNL     1       0.263  11.947  20.885  0.00  0.00    +0.000 A 
ATOM     24  C   UNL     1      -0.115  10.803  20.170  0.00  0.00    +0.000 A 
ATOM     25  C   UNL     1      -1.155  10.922  19.233  0.00  0.00    +0.000 A 
BRANCH  20  29
ATOM     26  N   UNL     1      -4.625  12.019  16.763  0.00  0.00    +0.000 N 
ATOM     27  C   UNL     1      -3.986  11.871  17.959  0.00  0.00    +0.000 C 
ATOM     28  O   UNL     1      -4.615  11.489  18.935  0.00  0.00    +0.000 OA
ATOM     29  N   UNL     1      -2.665  12.223  17.878  0.00  0.00    +0.000 N 
ATOM     30  H   UNL     1      -5.581  11.682  16.805  0.00  0.00    +0.000 HD
ATOM     31  H   UNL     1      -4.123  11.718  15.941  0.00  0.00    +0.000 HD
ATOM     32  H   UNL     1      -2.426  12.779  17.071  0.00  0.00    +0.000 HD
ENDBRANCH  20  29
ENDBRANCH   1  24
TORSDOF 4
ENDMDL
