MODEL 1
REMARK VINA RESULT:      -7.7      0.000      0.000
REMARK  Name = 
REMARK  14 active torsions:
REMARK  status: ('A' for Active; 'I' for Inactive)
REMARK    1  A    between atoms: C_1  and  O_2
REMARK    2  A    between atoms: O_2  and  C_3
REMARK    3  A    between atoms: C_6  and  N_7
REMARK    4  A    between atoms: C_8  and  C_10
REMARK    5  A    between atoms: C_10  and  C_11
REMARK    6  A    between atoms: C_10  and  O_20
REMARK    7  A    between atoms: C_11  and  C_12
REMARK    8  A    between atoms: C_12  and  C_13
REMARK    9  A    between atoms: C_13  and  C_14
REMARK   10  A    between atoms: C_14  and  C_15
REMARK   11  A    between atoms: C_15  and  C_16
REMARK   12  A    between atoms: N_18  and  O_19
REMARK   13  A    between atoms: O_20  and  C_21
REMARK   14  A    between atoms: C_21  and  C_22
REMARK                            x       y       z     vdW  Elec       q    Type
REMARK                         _______ _______ _______ _____ _____    ______ ____
ROOT
ATOM      1  C   UNL     1       4.573   5.001  16.839  0.00  0.00    +0.000 C 
ENDROOT
BRANCH   1   3
ATOM      2  N   UNL     1       2.944   6.387  18.016  0.00  0.00    +0.000 N 
ATOM      3  C   UNL     1       4.196   6.375  17.414  0.00  0.00    +0.000 C 
ATOM      4  O   UNL     1       4.978   7.315  17.323  0.00  0.00    +0.000 OA
ATOM      5  H   UNL     1       2.454   5.495  18.020  0.00  0.00    +0.000 HD
BRANCH   2   9
ATOM      6  C   UNL     1       0.877   9.662  19.689  0.00  0.00    +0.000 A 
ATOM      7  C   UNL     1       1.161   9.643  18.329  0.00  0.00    +0.000 A 
ATOM      8  C   UNL     1       1.842   8.569  17.759  0.00  0.00    +0.000 A 
ATOM      9  C   UNL     1       2.268   7.501  18.546  0.00  0.00    +0.000 A 
ATOM     10  C   UNL     1       1.999   7.526  19.919  0.00  0.00    +0.000 A 
ATOM     11  C   UNL     1       1.305   8.606  20.491  0.00  0.00    +0.000 A 
BRANCH   6  13
ATOM     12  C   UNL     1       0.827  11.497  21.179  0.00  0.00    +0.000 C 
ATOM     13  O   UNL     1       0.219  10.779  20.114  0.00  0.00    +0.000 OA
ENDBRANCH   6  13
ENDBRANCH   2   9
ENDBRANCH   1   3
BRANCH   1  14
ATOM     14  C   UNL     1       5.888   4.515  17.475  0.00  0.00    +0.000 C 
BRANCH  14  15
ATOM     15  C   UNL     1       7.048   4.466  16.480  0.00  0.00    +0.000 C 
BRANCH  15  16
ATOM     16  C   UNL     1       6.670   4.975  15.089  0.00  0.00    +0.000 C 
BRANCH  16  17
ATOM     17  C   UNL     1       6.609   3.788  14.127  0.00  0.00    +0.000 C 
BRANCH  17  18
ATOM     18  C   UNL     1       6.172   4.184  12.724  0.00  0.00    +0.000 C 
BRANCH  18  19
ATOM     19  C   UNL     1       5.736   2.970  11.930  0.00  0.00    +0.000 C 
ATOM     20  O   UNL     1       4.599   2.785  11.501  0.00  0.00    +0.000 OA
ATOM     21  N   UNL     1       6.741   2.054  11.728  0.00  0.00    +0.000 N 
ATOM     22  H   UNL     1       7.725   2.291  11.785  0.00  0.00    +0.000 HD
BRANCH  21  23
ATOM     23  O   UNL     1       6.400   0.958  10.900  0.00  0.00    +0.000 OA
ATOM     24  H   UNL     1       6.044   1.405  10.098  0.00  0.00    +0.000 HD
ENDBRANCH  21  23
ENDBRANCH  18  19
ENDBRANCH  17  18
ENDBRANCH  16  17
ENDBRANCH  15  16
ENDBRANCH  14  15
ENDBRANCH   1  14
BRANCH   1  25
ATOM     25  O   UNL     1       3.556   4.022  17.041  0.00  0.00    +0.000 OA
BRANCH  25  26
ATOM     26  C   UNL     1       3.970   2.956  17.904  0.00  0.00    +0.000 C 
BRANCH  26  27
ATOM     27  C   UNL     1       3.032   2.965  19.078  0.00  0.00    +0.000 A 
ATOM     28  C   UNL     1       3.491   2.715  20.378  0.00  0.00    +0.000 A 
ATOM     29  C   UNL     1       2.593   2.685  21.447  0.00  0.00    +0.000 A 
ATOM     30  C   UNL     1       1.235   2.904  21.225  0.00  0.00    +0.000 A 
ATOM     31  C   UNL     1       0.771   3.160  19.937  0.00  0.00    +0.000 A 
ATOM     32  C   UNL     1       1.664   3.189  18.871  0.00  0.00    +0.000 A 
ENDBRANCH  26  27
ENDBRANCH  25  26
ENDBRANCH   1  25
TORSDOF 13
ENDMDL
MODEL 2
REMARK VINA RESULT:      -7.6      0.710      1.136
REMARK  Name = 
REMARK  14 active torsions:
REMARK  status: ('A' for Active; 'I' for Inactive)
REMARK    1  A    between atoms: C_1  and  O_2
REMARK    2  A    between atoms: O_2  and  C_3
REMARK    3  A    between atoms: C_6  and  N_7
REMARK    4  A    between atoms: C_8  and  C_10
REMARK    5  A    between atoms: C_10  and  C_11
REMARK    6  A    between atoms: C_10  and  O_20
REMARK    7  A    between atoms: C_11  and  C_12
REMARK    8  A    between atoms: C_12  and  C_13
REMARK    9  A    between atoms: C_13  and  C_14
REMARK   10  A    between atoms: C_14  and  C_15
REMARK   11  A    between atoms: C_15  and  C_16
REMARK   12  A    between atoms: N_18  and  O_19
REMARK   13  A    between atoms: O_20  and  C_21
REMARK   14  A    between atoms: C_21  and  C_22
REMARK                            x       y       z     vdW  Elec       q    Type
REMARK                         _______ _______ _______ _____ _____    ______ ____
ROOT
ATOM      1  C   UNL     1       4.380   4.721  17.074  0.00  0.00    +0.000 C 
ENDROOT
BRANCH   1   3
ATOM      2  N   UNL     1       2.793   6.369  17.925  0.00  0.00    +0.000 N 
ATOM      3  C   UNL     1       3.985   5.706  18.186  0.00  0.00    +0.000 C 
ATOM      4  O   UNL     1       4.695   5.830  19.177  0.00  0.00    +0.000 OA
ATOM      5  H   UNL     1       2.329   6.107  17.058  0.00  0.00    +0.000 HD
BRANCH   2   9
ATOM      6  C   UNL     1       1.089   9.530  20.138  0.00  0.00    +0.000 A 
ATOM      7  C   UNL     1       1.372   8.321  20.761  0.00  0.00    +0.000 A 
ATOM      8  C   UNL     1       1.936   7.267  20.046  0.00  0.00    +0.000 A 
ATOM      9  C   UNL     1       2.210   7.398  18.686  0.00  0.00    +0.000 A 
ATOM     10  C   UNL     1       1.909   8.609  18.052  0.00  0.00    +0.000 A 
ATOM     11  C   UNL     1       1.348   9.674  18.777  0.00  0.00    +0.000 A 
BRANCH   6  13
ATOM     12  C   UNL     1      -0.424  11.334  20.348  0.00  0.00    +0.000 C 
ATOM     13  O   UNL     1       0.526  10.469  20.954  0.00  0.00    +0.000 OA
ENDBRANCH   6  13
ENDBRANCH   2   9
ENDBRANCH   1   3
BRANCH   1  14
ATOM     14  C   UNL     1       5.778   4.145  17.364  0.00  0.00    +0.000 C 
BRANCH  14  15
ATOM     15  C   UNL     1       6.733   4.272  16.176  0.00  0.00    +0.000 C 
BRANCH  15  16
ATOM     16  C   UNL     1       6.138   5.056  15.006  0.00  0.00    +0.000 C 
BRANCH  16  17
ATOM     17  C   UNL     1       6.447   4.315  13.705  0.00  0.00    +0.000 C 
BRANCH  17  18
ATOM     18  C   UNL     1       5.216   4.111  12.834  0.00  0.00    +0.000 C 
BRANCH  18  19
ATOM     19  C   UNL     1       5.387   2.908  11.930  0.00  0.00    +0.000 C 
ATOM     20  O   UNL     1       4.507   2.443  11.209  0.00  0.00    +0.000 OA
ATOM     21  N   UNL     1       6.642   2.351  11.986  0.00  0.00    +0.000 N 
ATOM     22  H   UNL     1       7.458   2.858  12.309  0.00  0.00    +0.000 HD
BRANCH  21  23
ATOM     23  O   UNL     1       6.872   1.290  11.077  0.00  0.00    +0.000 OA
ATOM     24  H   UNL     1       6.941   1.765  10.217  0.00  0.00    +0.000 HD
ENDBRANCH  21  23
ENDBRANCH  18  19
ENDBRANCH  17  18
ENDBRANCH  16  17
ENDBRANCH  15  16
ENDBRANCH  14  15
ENDBRANCH   1  14
BRANCH   1  25
ATOM     25  O   UNL     1       3.446   3.654  16.927  0.00  0.00    +0.000 OA
BRANCH  25  26
ATOM     26  C   UNL     1       3.727   2.543  17.787  0.00  0.00    +0.000 C 
BRANCH  26  27
ATOM     27  C   UNL     1       2.897   2.739  19.025  0.00  0.00    +0.000 A 
ATOM     28  C   UNL     1       3.453   2.594  20.303  0.00  0.00    +0.000 A 
ATOM     29  C   UNL     1       2.652   2.737  21.438  0.00  0.00    +0.000 A 
ATOM     30  C   UNL     1       1.295   3.024  21.304  0.00  0.00    +0.000 A 
ATOM     31  C   UNL     1       0.736   3.177  20.037  0.00  0.00    +0.000 A 
ATOM     32  C   UNL     1       1.532   3.034  18.905  0.00  0.00    +0.000 A 
ENDBRANCH  26  27
ENDBRANCH  25  26
ENDBRANCH   1  25
TORSDOF 13
ENDMDL
MODEL 3
REMARK VINA RESULT:      -7.6      0.800      1.387
REMARK  Name = 
REMARK  14 active torsions:
REMARK  status: ('A' for Active; 'I' for Inactive)
REMARK    1  A    between atoms: C_1  and  O_2
REMARK    2  A    between atoms: O_2  and  C_3
REMARK    3  A    between atoms: C_6  and  N_7
REMARK    4  A    between atoms: C_8  and  C_10
REMARK    5  A    between atoms: C_10  and  C_11
REMARK    6  A    between atoms: C_10  and  O_20
REMARK    7  A    between atoms: C_11  and  C_12
REMARK    8  A    between atoms: C_12  and  C_13
REMARK    9  A    between atoms: C_13  and  C_14
REMARK   10  A    between atoms: C_14  and  C_15
REMARK   11  A    between atoms: C_15  and  C_16
REMARK   12  A    between atoms: N_18  and  O_19
REMARK   13  A    between atoms: O_20  and  C_21
REMARK   14  A    between atoms: C_21  and  C_22
REMARK                            x       y       z     vdW  Elec       q    Type
REMARK                         _______ _______ _______ _____ _____    ______ ____
ROOT
ATOM      1  C   UNL     1       4.446   5.120  16.776  0.00  0.00    +0.000 C 
ENDROOT
BRANCH   1   3
ATOM      2  N   UNL     1       2.844   6.506  17.989  0.00  0.00    +0.000 N 
ATOM      3  C   UNL     1       4.146   6.436  17.512  0.00  0.00    +0.000 C 
ATOM      4  O   UNL     1       5.021   7.285  17.634  0.00  0.00    +0.000 OA
ATOM      5  H   UNL     1       2.271   5.683  17.815  0.00  0.00    +0.000 HD
BRANCH   2   9
ATOM      6  C   UNL     1       0.953   9.733  19.940  0.00  0.00    +0.000 A 
ATOM      7  C   UNL     1       1.211   9.803  18.578  0.00  0.00    +0.000 A 
ATOM      8  C   UNL     1       1.834   8.746  17.916  0.00  0.00    +0.000 A 
ATOM      9  C   UNL     1       2.226   7.605  18.613  0.00  0.00    +0.000 A 
ATOM     10  C   UNL     1       1.983   7.540  19.991  0.00  0.00    +0.000 A 
ATOM     11  C   UNL     1       1.348   8.603  20.654  0.00  0.00    +0.000 A 
BRANCH   6  13
ATOM     12  C   UNL     1      -0.885  11.218  19.871  0.00  0.00    +0.000 C 
ATOM     13  O   UNL     1       0.352  10.843  20.460  0.00  0.00    +0.000 OA
ENDBRANCH   6  13
ENDBRANCH   2   9
ENDBRANCH   1   3
BRANCH   1  14
ATOM     14  C   UNL     1       5.868   4.645  17.124  0.00  0.00    +0.000 C 
BRANCH  14  15
ATOM     15  C   UNL     1       6.794   4.598  15.908  0.00  0.00    +0.000 C 
BRANCH  15  16
ATOM     16  C   UNL     1       6.289   3.671  14.802  0.00  0.00    +0.000 C 
BRANCH  16  17
ATOM     17  C   UNL     1       6.312   4.428  13.473  0.00  0.00    +0.000 C 
BRANCH  17  18
ATOM     18  C   UNL     1       6.779   3.565  12.309  0.00  0.00    +0.000 C 
BRANCH  18  19
ATOM     19  C   UNL     1       5.622   2.784  11.718  0.00  0.00    +0.000 C 
ATOM     20  O   UNL     1       5.669   1.597  11.402  0.00  0.00    +0.000 OA
ATOM     21  N   UNL     1       4.482   3.532  11.549  0.00  0.00    +0.000 N 
ATOM     22  H   UNL     1       4.301   4.388  12.059  0.00  0.00    +0.000 HD
BRANCH  21  23
ATOM     23  O   UNL     1       3.350   2.810  11.099  0.00  0.00    +0.000 OA
ATOM     24  H   UNL     1       3.078   3.323  10.304  0.00  0.00    +0.000 HD
ENDBRANCH  21  23
ENDBRANCH  18  19
ENDBRANCH  17  18
ENDBRANCH  16  17
ENDBRANCH  15  16
ENDBRANCH  14  15
ENDBRANCH   1  14
BRANCH   1  25
ATOM     25  O   UNL     1       3.510   4.090  17.087  0.00  0.00    +0.000 OA
BRANCH  25  26
ATOM     26  C   UNL     1       4.019   3.138  18.028  0.00  0.00    +0.000 C 
BRANCH  26  27
ATOM     27  C   UNL     1       3.022   3.071  19.151  0.00  0.00    +0.000 A 
ATOM     28  C   UNL     1       1.681   3.428  18.956  0.00  0.00    +0.000 A 
ATOM     29  C   UNL     1       0.783   3.399  20.025  0.00  0.00    +0.000 A 
ATOM     30  C   UNL     1       1.217   3.015  21.291  0.00  0.00    +0.000 A 
ATOM     31  C   UNL     1       2.547   2.651  21.493  0.00  0.00    +0.000 A 
ATOM     32  C   UNL     1       3.443   2.680  20.430  0.00  0.00    +0.000 A 
ENDBRANCH  26  27
ENDBRANCH  25  26
ENDBRANCH   1  25
TORSDOF 13
ENDMDL
MODEL 4
REMARK VINA RESULT:      -7.5      2.333      3.704
REMARK  Name = 
REMARK  14 active torsions:
REMARK  status: ('A' for Active; 'I' for Inactive)
REMARK    1  A    between atoms: C_1  and  O_2
REMARK    2  A    between atoms: O_2  and  C_3
REMARK    3  A    between atoms: C_6  and  N_7
REMARK    4  A    between atoms: C_8  and  C_10
REMARK    5  A    between atoms: C_10  and  C_11
REMARK    6  A    between atoms: C_10  and  O_20
REMARK    7  A    between atoms: C_11  and  C_12
REMARK    8  A    between atoms: C_12  and  C_13
REMARK    9  A    between atoms: C_13  and  C_14
REMARK   10  A    between atoms: C_14  and  C_15
REMARK   11  A    between atoms: C_15  and  C_16
REMARK   12  A    between atoms: N_18  and  O_19
REMARK   13  A    between atoms: O_20  and  C_21
REMARK   14  A    between atoms: C_21  and  C_22
REMARK                            x       y       z     vdW  Elec       q    Type
REMARK                         _______ _______ _______ _____ _____    ______ ____
ROOT
ATOM      1  C   UNL     1       2.366   7.097  18.718  0.00  0.00    +0.000 C 
ENDROOT
BRANCH   1   3
ATOM      2  N   UNL     1       1.253   8.355  20.489  0.00  0.00    +0.000 N 
ATOM      3  C   UNL     1       1.798   8.436  19.213  0.00  0.00    +0.000 C 
ATOM      4  O   UNL     1       1.864   9.433  18.503  0.00  0.00    +0.000 OA
ATOM      5  H   UNL     1       1.320   7.443  20.934  0.00  0.00    +0.000 HD
BRANCH   2   9
ATOM      6  C   UNL     1      -0.735  11.469  22.524  0.00  0.00    +0.000 A 
ATOM      7  C   UNL     1      -0.673  10.202  23.088  0.00  0.00    +0.000 A 
ATOM      8  C   UNL     1      -0.019   9.162  22.430  0.00  0.00    +0.000 A 
ATOM      9  C   UNL     1       0.569   9.368  21.185  0.00  0.00    +0.000 A 
ATOM     10  C   UNL     1       0.493  10.641  20.606  0.00  0.00    +0.000 A 
ATOM     11  C   UNL     1      -0.159  11.691  21.275  0.00  0.00    +0.000 A 
BRANCH   6  13
ATOM     12  C   UNL     1      -1.163  13.752  22.965  0.00  0.00    +0.000 C 
ATOM     13  O   UNL     1      -1.416  12.388  23.269  0.00  0.00    +0.000 OA
ENDBRANCH   6  13
ENDBRANCH   2   9
ENDBRANCH   1   3
BRANCH   1  14
ATOM     14  C   UNL     1       3.567   7.355  17.790  0.00  0.00    +0.000 C 
BRANCH  14  15
ATOM     15  C   UNL     1       4.191   6.068  17.250  0.00  0.00    +0.000 C 
BRANCH  15  16
ATOM     16  C   UNL     1       5.524   5.721  17.914  0.00  0.00    +0.000 C 
BRANCH  16  17
ATOM     17  C   UNL     1       6.125   4.503  17.212  0.00  0.00    +0.000 C 
BRANCH  17  18
ATOM     18  C   UNL     1       5.416   4.163  15.908  0.00  0.00    +0.000 C 
BRANCH  18  19
ATOM     19  C   UNL     1       6.344   4.348  14.725  0.00  0.00    +0.000 C 
ATOM     20  O   UNL     1       6.283   3.704  13.680  0.00  0.00    +0.000 OA
ATOM     21  N   UNL     1       7.298   5.318  14.920  0.00  0.00    +0.000 N 
ATOM     22  H   UNL     1       7.202   6.059  15.604  0.00  0.00    +0.000 HD
BRANCH  21  23
ATOM     23  O   UNL     1       8.116   5.593  13.797  0.00  0.00    +0.000 OA
ATOM     24  H   UNL     1       7.466   5.946  13.148  0.00  0.00    +0.000 HD
ENDBRANCH  21  23
ENDBRANCH  18  19
ENDBRANCH  17  18
ENDBRANCH  16  17
ENDBRANCH  15  16
ENDBRANCH  14  15
ENDBRANCH   1  14
BRANCH   1  25
ATOM     25  O   UNL     1       2.765   6.239  19.784  0.00  0.00    +0.000 OA
BRANCH  25  26
ATOM     26  C   UNL     1       1.848   5.161  20.007  0.00  0.00    +0.000 C 
BRANCH  26  27
ATOM     27  C   UNL     1       2.451   3.945  19.359  0.00  0.00    +0.000 A 
ATOM     28  C   UNL     1       1.940   3.431  18.160  0.00  0.00    +0.000 A 
ATOM     29  C   UNL     1       2.488   2.275  17.601  0.00  0.00    +0.000 A 
ATOM     30  C   UNL     1       3.547   1.627  18.234  0.00  0.00    +0.000 A 
ATOM     31  C   UNL     1       4.066   2.136  19.422  0.00  0.00    +0.000 A 
ATOM     32  C   UNL     1       3.521   3.286  19.982  0.00  0.00    +0.000 A 
ENDBRANCH  26  27
ENDBRANCH  25  26
ENDBRANCH   1  25
TORSDOF 13
ENDMDL
MODEL 5
REMARK VINA RESULT:      -7.4      3.612      4.683
REMARK  Name = 
REMARK  14 active torsions:
REMARK  status: ('A' for Active; 'I' for Inactive)
REMARK    1  A    between atoms: C_1  and  O_2
REMARK    2  A    between atoms: O_2  and  C_3
REMARK    3  A    between atoms: C_6  and  N_7
REMARK    4  A    between atoms: C_8  and  C_10
REMARK    5  A    between atoms: C_10  and  C_11
REMARK    6  A    between atoms: C_10  and  O_20
REMARK    7  A    between atoms: C_11  and  C_12
REMARK    8  A    between atoms: C_12  and  C_13
REMARK    9  A    between atoms: C_13  and  C_14
REMARK   10  A    between atoms: C_14  and  C_15
REMARK   11  A    between atoms: C_15  and  C_16
REMARK   12  A    between atoms: N_18  and  O_19
REMARK   13  A    between atoms: O_20  and  C_21
REMARK   14  A    between atoms: C_21  and  C_22
REMARK                            x       y       z     vdW  Elec       q    Type
REMARK                         _______ _______ _______ _____ _____    ______ ____
ROOT
ATOM      1  C   UNL     1       2.203   6.367  19.621  0.00  0.00    +0.000 C 
ENDROOT
BRANCH   1   3
ATOM      2  N   UNL     1       0.930   7.947  20.978  0.00  0.00    +0.000 N 
ATOM      3  C   UNL     1       1.722   7.810  19.846  0.00  0.00    +0.000 C 
ATOM      4  O   UNL     1       2.054   8.697  19.068  0.00  0.00    +0.000 OA
ATOM      5  H   UNL     1       0.791   7.096  21.519  0.00  0.00    +0.000 HD
BRANCH   2   9
ATOM      6  C   UNL     1      -1.135  11.361  22.349  0.00  0.00    +0.000 A 
ATOM      7  C   UNL     1      -0.804  11.244  21.005  0.00  0.00    +0.000 A 
ATOM      8  C   UNL     1      -0.123  10.123  20.535  0.00  0.00    +0.000 A 
ATOM      9  C   UNL     1       0.256   9.105  21.407  0.00  0.00    +0.000 A 
ATOM     10  C   UNL     1      -0.061   9.229  22.765  0.00  0.00    +0.000 A 
ATOM     11  C   UNL     1      -0.755  10.356  23.236  0.00  0.00    +0.000 A 
BRANCH   6  13
ATOM     12  C   UNL     1      -0.967  13.630  22.990  0.00  0.00    +0.000 C 
ATOM     13  O   UNL     1      -1.788  12.515  22.673  0.00  0.00    +0.000 OA
ENDBRANCH   6  13
ENDBRANCH   2   9
ENDBRANCH   1   3
BRANCH   1  14
ATOM     14  C   UNL     1       3.670   6.377  19.154  0.00  0.00    +0.000 C 
BRANCH  14  15
ATOM     15  C   UNL     1       3.823   6.057  17.666  0.00  0.00    +0.000 C 
BRANCH  15  16
ATOM     16  C   UNL     1       4.851   4.961  17.389  0.00  0.00    +0.000 C 
BRANCH  16  17
ATOM     17  C   UNL     1       5.876   4.944  18.523  0.00  0.00    +0.000 C 
BRANCH  17  18
ATOM     18  C   UNL     1       7.309   5.073  18.028  0.00  0.00    +0.000 C 
BRANCH  18  19
ATOM     19  C   UNL     1       7.702   6.529  17.883  0.00  0.00    +0.000 C 
ATOM     20  O   UNL     1       7.448   7.228  16.904  0.00  0.00    +0.000 OA
ATOM     21  N   UNL     1       8.396   7.023  18.962  0.00  0.00    +0.000 N 
ATOM     22  H   UNL     1       8.360   6.601  19.883  0.00  0.00    +0.000 HD
BRANCH  21  23
ATOM     23  O   UNL     1       8.687   8.407  18.909  0.00  0.00    +0.000 OA
ATOM     24  H   UNL     1       8.579   8.606  17.951  0.00  0.00    +0.000 HD
ENDBRANCH  21  23
ENDBRANCH  18  19
ENDBRANCH  17  18
ENDBRANCH  16  17
ENDBRANCH  15  16
ENDBRANCH  14  15
ENDBRANCH   1  14
BRANCH   1  25
ATOM     25  O   UNL     1       2.081   5.558  20.789  0.00  0.00    +0.000 OA
BRANCH  25  26
ATOM     26  C   UNL     1       1.235   4.419  20.593  0.00  0.00    +0.000 C 
BRANCH  26  27
ATOM     27  C   UNL     1       2.033   3.424  19.798  0.00  0.00    +0.000 A 
ATOM     28  C   UNL     1       3.203   2.851  20.314  0.00  0.00    +0.000 A 
ATOM     29  C   UNL     1       3.951   1.962  19.540  0.00  0.00    +0.000 A 
ATOM     30  C   UNL     1       3.537   1.641  18.249  0.00  0.00    +0.000 A 
ATOM     31  C   UNL     1       2.371   2.200  17.731  0.00  0.00    +0.000 A 
ATOM     32  C   UNL     1       1.624   3.086  18.500  0.00  0.00    +0.000 A 
ENDBRANCH  26  27
ENDBRANCH  25  26
ENDBRANCH   1  25
TORSDOF 13
ENDMDL
MODEL 6
REMARK VINA RESULT:      -7.3      2.864      4.123
REMARK  Name = 
REMARK  14 active torsions:
REMARK  status: ('A' for Active; 'I' for Inactive)
REMARK    1  A    between atoms: C_1  and  O_2
REMARK    2  A    between atoms: O_2  and  C_3
REMARK    3  A    between atoms: C_6  and  N_7
REMARK    4  A    between atoms: C_8  and  C_10
REMARK    5  A    between atoms: C_10  and  C_11
REMARK    6  A    between atoms: C_10  and  O_20
REMARK    7  A    between atoms: C_11  and  C_12
REMARK    8  A    between atoms: C_12  and  C_13
REMARK    9  A    between atoms: C_13  and  C_14
REMARK   10  A    between atoms: C_14  and  C_15
REMARK   11  A    between atoms: C_15  and  C_16
REMARK   12  A    between atoms: N_18  and  O_19
REMARK   13  A    between atoms: O_20  and  C_21
REMARK   14  A    between atoms: C_21  and  C_22
REMARK                            x       y       z     vdW  Elec       q    Type
REMARK                         _______ _______ _______ _____ _____    ______ ____
ROOT
ATOM      1  C   UNL     1       3.289   3.412  16.819  0.00  0.00    +0.000 C 
ENDROOT
BRANCH   1   3
ATOM      2  N   UNL     1       3.036   5.502  18.054  0.00  0.00    +0.000 N 
ATOM      3  C   UNL     1       2.357   4.506  17.365  0.00  0.00    +0.000 C 
ATOM      4  O   UNL     1       1.150   4.442  17.164  0.00  0.00    +0.000 OA
ATOM      5  H   UNL     1       4.048   5.397  18.089  0.00  0.00    +0.000 HD
BRANCH   2   9
ATOM      6  C   UNL     1       1.399   8.817  20.087  0.00  0.00    +0.000 A 
ATOM      7  C   UNL     1       1.571   7.610  20.754  0.00  0.00    +0.000 A 
ATOM      8  C   UNL     1       2.111   6.506  20.098  0.00  0.00    +0.000 A 
ATOM      9  C   UNL     1       2.473   6.584  18.755  0.00  0.00    +0.000 A 
ATOM     10  C   UNL     1       2.285   7.794  18.076  0.00  0.00    +0.000 A 
ATOM     11  C   UNL     1       1.748   8.909  18.741  0.00  0.00    +0.000 A 
BRANCH   6  13
ATOM     12  C   UNL     1       0.450   9.446  22.159  0.00  0.00    +0.000 C 
ATOM     13  O   UNL     1       0.848   9.809  20.845  0.00  0.00    +0.000 OA
ENDBRANCH   6  13
ENDBRANCH   2   9
ENDBRANCH   1   3
BRANCH   1  14
ATOM     14  C   UNL     1       4.712   3.622  17.367  0.00  0.00    +0.000 C 
BRANCH  14  15
ATOM     15  C   UNL     1       5.724   3.973  16.276  0.00  0.00    +0.000 C 
BRANCH  15  16
ATOM     16  C   UNL     1       7.082   4.405  16.831  0.00  0.00    +0.000 C 
BRANCH  16  17
ATOM     17  C   UNL     1       7.229   5.917  16.656  0.00  0.00    +0.000 C 
BRANCH  17  18
ATOM     18  C   UNL     1       6.840   6.697  17.904  0.00  0.00    +0.000 C 
BRANCH  18  19
ATOM     19  C   UNL     1       7.053   5.863  19.151  0.00  0.00    +0.000 C 
ATOM     20  O   UNL     1       6.194   5.160  19.679  0.00  0.00    +0.000 OA
ATOM     21  N   UNL     1       8.322   5.964  19.671  0.00  0.00    +0.000 N 
ATOM     22  H   UNL     1       9.120   6.266  19.125  0.00  0.00    +0.000 HD
BRANCH  21  23
ATOM     23  O   UNL     1       8.590   5.118  20.773  0.00  0.00    +0.000 OA
ATOM     24  H   UNL     1       9.538   5.307  20.955  0.00  0.00    +0.000 HD
ENDBRANCH  21  23
ENDBRANCH  18  19
ENDBRANCH  17  18
ENDBRANCH  16  17
ENDBRANCH  15  16
ENDBRANCH  14  15
ENDBRANCH   1  14
BRANCH   1  25
ATOM     25  O   UNL     1       2.843   2.097  17.144  0.00  0.00    +0.000 OA
BRANCH  25  26
ATOM     26  C   UNL     1       3.476   1.565  18.313  0.00  0.00    +0.000 C 
BRANCH  26  27
ATOM     27  C   UNL     1       2.712   2.099  19.494  0.00  0.00    +0.000 A 
ATOM     28  C   UNL     1       1.312   2.157  19.489  0.00  0.00    +0.000 A 
ATOM     29  C   UNL     1       0.627   2.697  20.579  0.00  0.00    +0.000 A 
ATOM     30  C   UNL     1       1.334   3.182  21.677  0.00  0.00    +0.000 A 
ATOM     31  C   UNL     1       2.726   3.122  21.694  0.00  0.00    +0.000 A 
ATOM     32  C   UNL     1       3.410   2.585  20.608  0.00  0.00    +0.000 A 
ENDBRANCH  26  27
ENDBRANCH  25  26
ENDBRANCH   1  25
TORSDOF 13
ENDMDL
MODEL 7
REMARK VINA RESULT:      -7.3      2.261      3.498
REMARK  Name = 
REMARK  14 active torsions:
REMARK  status: ('A' for Active; 'I' for Inactive)
REMARK    1  A    between atoms: C_1  and  O_2
REMARK    2  A    between atoms: O_2  and  C_3
REMARK    3  A    between atoms: C_6  and  N_7
REMARK    4  A    between atoms: C_8  and  C_10
REMARK    5  A    between atoms: C_10  and  C_11
REMARK    6  A    between atoms: C_10  and  O_20
REMARK    7  A    between atoms: C_11  and  C_12
REMARK    8  A    between atoms: C_12  and  C_13
REMARK    9  A    between atoms: C_13  and  C_14
REMARK   10  A    between atoms: C_14  and  C_15
REMARK   11  A    between atoms: C_15  and  C_16
REMARK   12  A    between atoms: N_18  and  O_19
REMARK   13  A    between atoms: O_20  and  C_21
REMARK   14  A    between atoms: C_21  and  C_22
REMARK                            x       y       z     vdW  Elec       q    Type
REMARK                         _______ _______ _______ _____ _____    ______ ____
ROOT
ATOM      1  C   UNL     1       2.557   7.266  18.346  0.00  0.00    +0.000 C 
ENDROOT
BRANCH   1   3
ATOM      2  N   UNL     1       1.230   8.893  19.592  0.00  0.00    +0.000 N 
ATOM      3  C   UNL     1       1.921   8.664  18.409  0.00  0.00    +0.000 C 
ATOM      4  O   UNL     1       2.062   9.446  17.476  0.00  0.00    +0.000 OA
ATOM      5  H   UNL     1       1.252   8.129  20.264  0.00  0.00    +0.000 HD
BRANCH   2   9
ATOM      6  C   UNL     1      -1.028  12.288  20.672  0.00  0.00    +0.000 A 
ATOM      7  C   UNL     1      -1.550  11.366  19.775  0.00  0.00    +0.000 A 
ATOM      8  C   UNL     1      -0.818  10.238  19.408  0.00  0.00    +0.000 A 
ATOM      9  C   UNL     1       0.459  10.023  19.920  0.00  0.00    +0.000 A 
ATOM     10  C   UNL     1       0.994  10.960  20.811  0.00  0.00    +0.000 A 
ATOM     11  C   UNL     1       0.252  12.093  21.187  0.00  0.00    +0.000 A 
BRANCH   6  13
ATOM     12  C   UNL     1      -3.205  13.202  20.550  0.00  0.00    +0.000 C 
ATOM     13  O   UNL     1      -1.845  13.351  20.932  0.00  0.00    +0.000 OA
ENDBRANCH   6  13
ENDBRANCH   2   9
ENDBRANCH   1   3
BRANCH   1  14
ATOM     14  C   UNL     1       3.809   7.307  17.452  0.00  0.00    +0.000 C 
BRANCH  14  15
ATOM     15  C   UNL     1       4.698   6.073  17.614  0.00  0.00    +0.000 C 
BRANCH  15  16
ATOM     16  C   UNL     1       4.367   4.957  16.623  0.00  0.00    +0.000 C 
BRANCH  16  17
ATOM     17  C   UNL     1       5.519   3.953  16.605  0.00  0.00    +0.000 C 
BRANCH  17  18
ATOM     18  C   UNL     1       6.848   4.584  16.213  0.00  0.00    +0.000 C 
BRANCH  18  19
ATOM     19  C   UNL     1       6.993   4.645  14.706  0.00  0.00    +0.000 C 
ATOM     20  O   UNL     1       6.336   3.975  13.912  0.00  0.00    +0.000 OA
ATOM     21  N   UNL     1       7.955   5.530  14.281  0.00  0.00    +0.000 N 
ATOM     22  H   UNL     1       8.290   6.299  14.849  0.00  0.00    +0.000 HD
BRANCH  21  23
ATOM     23  O   UNL     1       8.046   5.692  12.877  0.00  0.00    +0.000 OA
ATOM     24  H   UNL     1       7.832   4.789  12.549  0.00  0.00    +0.000 HD
ENDBRANCH  21  23
ENDBRANCH  18  19
ENDBRANCH  17  18
ENDBRANCH  16  17
ENDBRANCH  15  16
ENDBRANCH  14  15
ENDBRANCH   1  14
BRANCH   1  25
ATOM     25  O   UNL     1       2.907   6.762  19.633  0.00  0.00    +0.000 OA
BRANCH  25  26
ATOM     26  C   UNL     1       1.936   5.848  20.157  0.00  0.00    +0.000 C 
BRANCH  26  27
ATOM     27  C   UNL     1       2.264   4.498  19.584  0.00  0.00    +0.000 A 
ATOM     28  C   UNL     1       1.424   3.881  18.648  0.00  0.00    +0.000 A 
ATOM     29  C   UNL     1       1.727   2.607  18.163  0.00  0.00    +0.000 A 
ATOM     30  C   UNL     1       2.867   1.943  18.609  0.00  0.00    +0.000 A 
ATOM     31  C   UNL     1       3.712   2.552  19.535  0.00  0.00    +0.000 A 
ATOM     32  C   UNL     1       3.412   3.820  20.020  0.00  0.00    +0.000 A 
ENDBRANCH  26  27
ENDBRANCH  25  26
ENDBRANCH   1  25
TORSDOF 13
ENDMDL
MODEL 8
REMARK VINA RESULT:      -7.2      4.160      4.896
REMARK  Name = 
REMARK  14 active torsions:
REMARK  status: ('A' for Active; 'I' for Inactive)
REMARK    1  A    between atoms: C_1  and  O_2
REMARK    2  A    between atoms: O_2  and  C_3
REMARK    3  A    between atoms: C_6  and  N_7
REMARK    4  A    between atoms: C_8  and  C_10
REMARK    5  A    between atoms: C_10  and  C_11
REMARK    6  A    between atoms: C_10  and  O_20
REMARK    7  A    between atoms: C_11  and  C_12
REMARK    8  A    between atoms: C_12  and  C_13
REMARK    9  A    between atoms: C_13  and  C_14
REMARK   10  A    between atoms: C_14  and  C_15
REMARK   11  A    between atoms: C_15  and  C_16
REMARK   12  A    between atoms: N_18  and  O_19
REMARK   13  A    between atoms: O_20  and  C_21
REMARK   14  A    between atoms: C_21  and  C_22
REMARK                            x       y       z     vdW  Elec       q    Type
REMARK                         _______ _______ _______ _____ _____    ______ ____
ROOT
ATOM      1  C   UNL     1       6.781   6.314  17.117  0.00  0.00    +0.000 C 
ENDROOT
BRANCH   1   3
ATOM      2  N   UNL     1       7.537   8.599  17.523  0.00  0.00    +0.000 N 
ATOM      3  C   UNL     1       7.647   7.280  17.942  0.00  0.00    +0.000 C 
ATOM      4  O   UNL     1       8.329   6.855  18.868  0.00  0.00    +0.000 OA
ATOM      5  H   UNL     1       6.892   8.760  16.753  0.00  0.00    +0.000 HD
BRANCH   2   9
ATOM      6  C   UNL     1       9.728  11.864  19.052  0.00  0.00    +0.000 A 
ATOM      7  C   UNL     1       8.907  12.038  17.946  0.00  0.00    +0.000 A 
ATOM      8  C   UNL     1       8.175  10.971  17.428  0.00  0.00    +0.000 A 
ATOM      9  C   UNL     1       8.267   9.704  17.999  0.00  0.00    +0.000 A 
ATOM     10  C   UNL     1       9.108   9.522  19.104  0.00  0.00    +0.000 A 
ATOM     11  C   UNL     1       9.838  10.601  19.630  0.00  0.00    +0.000 A 
BRANCH   6  13
ATOM     12  C   UNL     1       9.616  14.171  19.559  0.00  0.00    +0.000 C 
ATOM     13  O   UNL     1      10.396  12.989  19.444  0.00  0.00    +0.000 OA
ENDBRANCH   6  13
ENDBRANCH   2   9
ENDBRANCH   1   3
BRANCH   1  14
ATOM     14  C   UNL     1       7.377   4.897  17.184  0.00  0.00    +0.000 C 
BRANCH  14  15
ATOM     15  C   UNL     1       6.938   4.010  16.019  0.00  0.00    +0.000 C 
BRANCH  15  16
ATOM     16  C   UNL     1       6.839   4.763  14.692  0.00  0.00    +0.000 C 
BRANCH  16  17
ATOM     17  C   UNL     1       5.887   4.008  13.764  0.00  0.00    +0.000 C 
BRANCH  17  18
ATOM     18  C   UNL     1       6.447   3.828  12.360  0.00  0.00    +0.000 C 
BRANCH  18  19
ATOM     19  C   UNL     1       5.880   2.585  11.707  0.00  0.00    +0.000 C 
ATOM     20  O   UNL     1       4.713   2.456  11.341  0.00  0.00    +0.000 OA
ATOM     21  N   UNL     1       6.798   1.573  11.558  0.00  0.00    +0.000 N 
ATOM     22  H   UNL     1       7.799   1.730  11.554  0.00  0.00    +0.000 HD
BRANCH  21  23
ATOM     23  O   UNL     1       6.332   0.435  10.856  0.00  0.00    +0.000 OA
ATOM     24  H   UNL     1       6.575  -0.299  11.465  0.00  0.00    +0.000 HD
ENDBRANCH  21  23
ENDBRANCH  18  19
ENDBRANCH  17  18
ENDBRANCH  16  17
ENDBRANCH  15  16
ENDBRANCH  14  15
ENDBRANCH   1  14
BRANCH   1  25
ATOM     25  O   UNL     1       5.424   6.281  17.554  0.00  0.00    +0.000 OA
BRANCH  25  26
ATOM     26  C   UNL     1       5.253   5.581  18.792  0.00  0.00    +0.000 C 
BRANCH  26  27
ATOM     27  C   UNL     1       4.364   4.404  18.500  0.00  0.00    +0.000 A 
ATOM     28  C   UNL     1       4.455   3.221  19.246  0.00  0.00    +0.000 A 
ATOM     29  C   UNL     1       3.650   2.126  18.928  0.00  0.00    +0.000 A 
ATOM     30  C   UNL     1       2.752   2.204  17.866  0.00  0.00    +0.000 A 
ATOM     31  C   UNL     1       2.651   3.378  17.123  0.00  0.00    +0.000 A 
ATOM     32  C   UNL     1       3.452   4.470  17.438  0.00  0.00    +0.000 A 
ENDBRANCH  26  27
ENDBRANCH  25  26
ENDBRANCH   1  25
TORSDOF 13
ENDMDL
MODEL 9
REMARK VINA RESULT:      -7.2      2.608      3.855
REMARK  Name = 
REMARK  14 active torsions:
REMARK  status: ('A' for Active; 'I' for Inactive)
REMARK    1  A    between atoms: C_1  and  O_2
REMARK    2  A    between atoms: O_2  and  C_3
REMARK    3  A    between atoms: C_6  and  N_7
REMARK    4  A    between atoms: C_8  and  C_10
REMARK    5  A    between atoms: C_10  and  C_11
REMARK    6  A    between atoms: C_10  and  O_20
REMARK    7  A    between atoms: C_11  and  C_12
REMARK    8  A    between atoms: C_12  and  C_13
REMARK    9  A    between atoms: C_13  and  C_14
REMARK   10  A    between atoms: C_14  and  C_15
REMARK   11  A    between atoms: C_15  and  C_16
REMARK   12  A    between atoms: N_18  and  O_19
REMARK   13  A    between atoms: O_20  and  C_21
REMARK   14  A    between atoms: C_21  and  C_22
REMARK                            x       y       z     vdW  Elec       q    Type
REMARK                         _______ _______ _______ _____ _____    ______ ____
ROOT
ATOM      1  C   UNL     1       2.316   7.339  18.741  0.00  0.00    +0.000 C 
ENDROOT
BRANCH   1   3
ATOM      2  N   UNL     1       1.758   9.663  18.242  0.00  0.00    +0.000 N 
ATOM      3  C   UNL     1       1.718   8.673  19.216  0.00  0.00    +0.000 C 
ATOM      4  O   UNL     1       1.262   8.774  20.349  0.00  0.00    +0.000 OA
ATOM      5  H   UNL     1       2.148   9.377  17.346  0.00  0.00    +0.000 HD
BRANCH   2   9
ATOM      6  C   UNL     1       0.747  13.731  18.710  0.00  0.00    +0.000 A 
ATOM      7  C   UNL     1      -0.240  12.758  18.795  0.00  0.00    +0.000 A 
ATOM      8  C   UNL     1       0.076  11.409  18.644  0.00  0.00    +0.000 A 
ATOM      9  C   UNL     1       1.386  11.012  18.386  0.00  0.00    +0.000 A 
ATOM     10  C   UNL     1       2.380  11.992  18.282  0.00  0.00    +0.000 A 
ATOM     11  C   UNL     1       2.061  13.351  18.443  0.00  0.00    +0.000 A 
BRANCH   6  13
ATOM     12  C   UNL     1       1.273  16.036  18.755  0.00  0.00    +0.000 C 
ATOM     13  O   UNL     1       0.296  15.011  18.863  0.00  0.00    +0.000 OA
ENDBRANCH   6  13
ENDBRANCH   2   9
ENDBRANCH   1   3
BRANCH   1  14
ATOM     14  C   UNL     1       3.456   7.607  17.743  0.00  0.00    +0.000 C 
BRANCH  14  15
ATOM     15  C   UNL     1       4.155   6.329  17.279  0.00  0.00    +0.000 C 
BRANCH  15  16
ATOM     16  C   UNL     1       5.622   6.257  17.702  0.00  0.00    +0.000 C 
BRANCH  16  17
ATOM     17  C   UNL     1       6.269   5.041  17.039  0.00  0.00    +0.000 C 
BRANCH  17  18
ATOM     18  C   UNL     1       5.503   4.556  15.816  0.00  0.00    +0.000 C 
BRANCH  18  19
ATOM     19  C   UNL     1       6.359   4.650  14.570  0.00  0.00    +0.000 C 
ATOM     20  O   UNL     1       6.122   4.070  13.512  0.00  0.00    +0.000 OA
ATOM     21  N   UNL     1       7.463   5.454  14.720  0.00  0.00    +0.000 N 
ATOM     22  H   UNL     1       7.534   6.170  15.433  0.00  0.00    +0.000 HD
BRANCH  21  23
ATOM     23  O   UNL     1       8.229   5.652  13.545  0.00  0.00    +0.000 OA
ATOM     24  H   UNL     1       9.051   5.149  13.746  0.00  0.00    +0.000 HD
ENDBRANCH  21  23
ENDBRANCH  18  19
ENDBRANCH  17  18
ENDBRANCH  16  17
ENDBRANCH  15  16
ENDBRANCH  14  15
ENDBRANCH   1  14
BRANCH   1  25
ATOM     25  O   UNL     1       2.802   6.540  19.817  0.00  0.00    +0.000 OA
BRANCH  25  26
ATOM     26  C   UNL     1       1.916   5.469  20.163  0.00  0.00    +0.000 C 
BRANCH  26  27
ATOM     27  C   UNL     1       2.444   4.239  19.479  0.00  0.00    +0.000 A 
ATOM     28  C   UNL     1       1.643   3.492  18.605  0.00  0.00    +0.000 A 
ATOM     29  C   UNL     1       2.140   2.328  18.015  0.00  0.00    +0.000 A 
ATOM     30  C   UNL     1       3.438   1.904  18.295  0.00  0.00    +0.000 A 
ATOM     31  C   UNL     1       4.244   2.643  19.158  0.00  0.00    +0.000 A 
ATOM     32  C   UNL     1       3.749   3.802  19.746  0.00  0.00    +0.000 A 
ENDBRANCH  26  27
ENDBRANCH  25  26
ENDBRANCH   1  25
TORSDOF 13
ENDMDL
