MODEL 1
REMARK VINA RESULT:      -8.2      0.000      0.000
REMARK  Name = 
REMARK  5 active torsions:
REMARK  status: ('A' for Active; 'I' for Inactive)
REMARK    1  A    between atoms: C_1  and  C_2
REMARK    2  A    between atoms: C_2  and  C_3
REMARK    3  A    between atoms: C_3  and  O_4
REMARK    4  A    between atoms: O_4  and  C_5
REMARK    5  A    between atoms: C_5  and  C_7
REMARK                            x       y       z     vdW  Elec       q    Type
REMARK                         _______ _______ _______ _____ _____    ______ ____
ROOT
ATOM      1  C   UNL     1       6.444   5.109  15.603  0.00  0.00    +0.000 A 
ATOM      2  C   UNL     1       5.223   4.589  15.885  0.00  0.00    +0.000 A 
ATOM      3  C   UNL     1       4.700   4.839  17.216  0.00  0.00    +0.000 A 
ATOM      4  C   UNL     1       3.559   4.452  17.788  0.00  0.00    +0.000 A 
ATOM      5  C   UNL     1       2.416   3.683  17.416  0.00  0.00    +0.000 A 
ATOM      6  C   UNL     1       1.429   3.527  18.315  0.00  0.00    +0.000 A 
ATOM      7  C   UNL     1       1.503   4.120  19.642  0.00  0.00    +0.000 A 
ATOM      8  C   UNL     1       2.552   4.848  20.060  0.00  0.00    +0.000 A 
ATOM      9  C   UNL     1       3.683   5.064  19.134  0.00  0.00    +0.000 A 
ATOM     10  N   UNL     1       4.774   5.734  19.368  0.00  0.00    +0.000 NA
ATOM     11  C   UNL     1       5.462   5.621  18.190  0.00  0.00    +0.000 A 
ATOM     12  C   UNL     1       6.664   6.091  17.824  0.00  0.00    +0.000 A 
ATOM     13  N   UNL     1       7.160   5.848  16.552  0.00  0.00    +0.000 N 
ATOM     14  H   UNL     1       8.078   6.192  16.287  0.00  0.00    +0.000 HD
ENDROOT
BRANCH   1  15
ATOM     15  C   UNL     1       7.024   4.800  14.261  0.00  0.00    +0.000 C 
ATOM     16  O   UNL     1       7.839   5.512  13.689  0.00  0.00    +0.000 OA
BRANCH  15  17
ATOM     17  O   UNL     1       6.436   3.688  13.741  0.00  0.00    +0.000 OA
BRANCH  17  18
ATOM     18  C   UNL     1       6.444   3.626  12.305  0.00  0.00    +0.000 C 
BRANCH  18  20
ATOM     19  C   UNL     1       4.175   3.237  11.305  0.00  0.00    +0.000 C 
ATOM     20  C   UNL     1       5.485   2.589  11.728  0.00  0.00    +0.000 C 
ENDBRANCH  18  20
ENDBRANCH  17  18
ENDBRANCH  15  17
ENDBRANCH   1  15
TORSDOF 4
ENDMDL
MODEL 2
REMARK VINA RESULT:      -8.1      1.052      1.218
REMARK  Name = 
REMARK  5 active torsions:
REMARK  status: ('A' for Active; 'I' for Inactive)
REMARK    1  A    between atoms: C_1  and  C_2
REMARK    2  A    between atoms: C_2  and  C_3
REMARK    3  A    between atoms: C_3  and  O_4
REMARK    4  A    between atoms: O_4  and  C_5
REMARK    5  A    between atoms: C_5  and  C_7
REMARK                            x       y       z     vdW  Elec       q    Type
REMARK                         _______ _______ _______ _____ _____    ______ ____
ROOT
ATOM      1  C   UNL     1       5.762   5.145  15.602  0.00  0.00    +0.000 A 
ATOM      2  C   UNL     1       4.886   4.212  16.050  0.00  0.00    +0.000 A 
ATOM      3  C   UNL     1       4.024   4.603  17.151  0.00  0.00    +0.000 A 
ATOM      4  C   UNL     1       3.091   3.915  17.810  0.00  0.00    +0.000 A 
ATOM      5  C   UNL     1       2.542   2.598  17.767  0.00  0.00    +0.000 A 
ATOM      6  C   UNL     1       1.563   2.284  18.632  0.00  0.00    +0.000 A 
ATOM      7  C   UNL     1       1.060   3.248  19.600  0.00  0.00    +0.000 A 
ATOM      8  C   UNL     1       1.536   4.500  19.701  0.00  0.00    +0.000 A 
ATOM      9  C   UNL     1       2.618   4.925  18.789  0.00  0.00    +0.000 A 
ATOM     10  N   UNL     1       3.198   6.089  18.747  0.00  0.00    +0.000 NA
ATOM     11  C   UNL     1       4.106   5.943  17.732  0.00  0.00    +0.000 A 
ATOM     12  C   UNL     1       5.006   6.799  17.226  0.00  0.00    +0.000 A 
ATOM     13  N   UNL     1       5.829   6.421  16.176  0.00  0.00    +0.000 N 
ATOM     14  H   UNL     1       6.521   7.067  15.810  0.00  0.00    +0.000 HD
ENDROOT
BRANCH   1  15
ATOM     15  C   UNL     1       6.703   4.733  14.516  0.00  0.00    +0.000 C 
ATOM     16  O   UNL     1       7.690   5.378  14.187  0.00  0.00    +0.000 OA
BRANCH  15  17
ATOM     17  O   UNL     1       6.239   3.615  13.893  0.00  0.00    +0.000 OA
BRANCH  17  18
ATOM     18  C   UNL     1       6.441   3.599  12.471  0.00  0.00    +0.000 C 
BRANCH  18  20
ATOM     19  C   UNL     1       6.459   1.479  11.126  0.00  0.00    +0.000 C 
ATOM     20  C   UNL     1       5.589   2.565  11.739  0.00  0.00    +0.000 C 
ENDBRANCH  18  20
ENDBRANCH  17  18
ENDBRANCH  15  17
ENDBRANCH   1  15
TORSDOF 4
ENDMDL
MODEL 3
REMARK VINA RESULT:      -7.7      2.025      2.388
REMARK  Name = 
REMARK  5 active torsions:
REMARK  status: ('A' for Active; 'I' for Inactive)
REMARK    1  A    between atoms: C_1  and  C_2
REMARK    2  A    between atoms: C_2  and  C_3
REMARK    3  A    between atoms: C_3  and  O_4
REMARK    4  A    between atoms: O_4  and  C_5
REMARK    5  A    between atoms: C_5  and  C_7
REMARK                            x       y       z     vdW  Elec       q    Type
REMARK                         _______ _______ _______ _____ _____    ______ ____
ROOT
ATOM      1  C   UNL     1       5.796   4.890  16.263  0.00  0.00    +0.000 A 
ATOM      2  C   UNL     1       4.998   5.979  16.390  0.00  0.00    +0.000 A 
ATOM      3  C   UNL     1       4.226   6.081  17.616  0.00  0.00    +0.000 A 
ATOM      4  C   UNL     1       3.355   7.007  18.019  0.00  0.00    +0.000 A 
ATOM      5  C   UNL     1       2.807   8.218  17.500  0.00  0.00    +0.000 A 
ATOM      6  C   UNL     1       1.926   8.898  18.254  0.00  0.00    +0.000 A 
ATOM      7  C   UNL     1       1.524   8.426  19.571  0.00  0.00    +0.000 A 
ATOM      8  C   UNL     1       1.993   7.290  20.117  0.00  0.00    +0.000 A 
ATOM      9  C   UNL     1       2.964   6.482  19.351  0.00  0.00    +0.000 A 
ATOM     10  N   UNL     1       3.516   5.362  19.717  0.00  0.00    +0.000 NA
ATOM     11  C   UNL     1       4.323   5.055  18.654  0.00  0.00    +0.000 A 
ATOM     12  C   UNL     1       5.135   4.010  18.438  0.00  0.00    +0.000 A 
ATOM     13  N   UNL     1       5.868   3.915  17.265  0.00  0.00    +0.000 N 
ATOM     14  H   UNL     1       6.468   3.113  17.101  0.00  0.00    +0.000 HD
ENDROOT
BRANCH   1  15
ATOM     15  C   UNL     1       6.542   4.737  14.976  0.00  0.00    +0.000 C 
ATOM     16  O   UNL     1       7.509   5.418  14.663  0.00  0.00    +0.000 OA
BRANCH  15  17
ATOM     17  O   UNL     1       5.923   3.821  14.182  0.00  0.00    +0.000 OA
BRANCH  17  18
ATOM     18  C   UNL     1       6.368   3.819  12.816  0.00  0.00    +0.000 C 
BRANCH  18  20
ATOM     19  C   UNL     1       4.344   3.276  11.435  0.00  0.00    +0.000 C 
ATOM     20  C   UNL     1       5.683   2.769  11.946  0.00  0.00    +0.000 C 
ENDBRANCH  18  20
ENDBRANCH  17  18
ENDBRANCH  15  17
ENDBRANCH   1  15
TORSDOF 4
ENDMDL
MODEL 4
REMARK VINA RESULT:      -7.6      1.536      1.904
REMARK  Name = 
REMARK  5 active torsions:
REMARK  status: ('A' for Active; 'I' for Inactive)
REMARK    1  A    between atoms: C_1  and  C_2
REMARK    2  A    between atoms: C_2  and  C_3
REMARK    3  A    between atoms: C_3  and  O_4
REMARK    4  A    between atoms: O_4  and  C_5
REMARK    5  A    between atoms: C_5  and  C_7
REMARK                            x       y       z     vdW  Elec       q    Type
REMARK                         _______ _______ _______ _____ _____    ______ ____
ROOT
ATOM      1  C   UNL     1       5.672   5.297  16.616  0.00  0.00    +0.000 A 
ATOM      2  C   UNL     1       5.081   4.343  17.377  0.00  0.00    +0.000 A 
ATOM      3  C   UNL     1       3.952   4.762  18.188  0.00  0.00    +0.000 A 
ATOM      4  C   UNL     1       3.189   4.073  19.038  0.00  0.00    +0.000 A 
ATOM      5  C   UNL     1       3.116   2.732  19.520  0.00  0.00    +0.000 A 
ATOM      6  C   UNL     1       2.151   2.420  20.402  0.00  0.00    +0.000 A 
ATOM      7  C   UNL     1       1.194   3.412  20.869  0.00  0.00    +0.000 A 
ATOM      8  C   UNL     1       1.210   4.693  20.463  0.00  0.00    +0.000 A 
ATOM      9  C   UNL     1       2.242   5.120  19.496  0.00  0.00    +0.000 A 
ATOM     10  N   UNL     1       2.410   6.311  19.000  0.00  0.00    +0.000 NA
ATOM     11  C   UNL     1       3.486   6.148  18.168  0.00  0.00    +0.000 A 
ATOM     12  C   UNL     1       4.135   7.025  17.389  0.00  0.00    +0.000 A 
ATOM     13  N   UNL     1       5.214   6.620  16.617  0.00  0.00    +0.000 N 
ATOM     14  H   UNL     1       5.713   7.292  16.043  0.00  0.00    +0.000 HD
ENDROOT
BRANCH   1  15
ATOM     15  C   UNL     1       6.878   4.894  15.830  0.00  0.00    +0.000 C 
ATOM     16  O   UNL     1       7.925   4.512  16.336  0.00  0.00    +0.000 OA
BRANCH  15  17
ATOM     17  O   UNL     1       6.671   5.120  14.504  0.00  0.00    +0.000 OA
BRANCH  17  18
ATOM     18  C   UNL     1       5.899   4.106  13.840  0.00  0.00    +0.000 C 
BRANCH  18  20
ATOM     19  C   UNL     1       5.548   2.692  11.796  0.00  0.00    +0.000 C 
ATOM     20  C   UNL     1       6.470   3.683  12.490  0.00  0.00    +0.000 C 
ENDBRANCH  18  20
ENDBRANCH  17  18
ENDBRANCH  15  17
ENDBRANCH   1  15
TORSDOF 4
ENDMDL
MODEL 5
REMARK VINA RESULT:      -7.5      2.530      6.379
REMARK  Name = 
REMARK  5 active torsions:
REMARK  status: ('A' for Active; 'I' for Inactive)
REMARK    1  A    between atoms: C_1  and  C_2
REMARK    2  A    between atoms: C_2  and  C_3
REMARK    3  A    between atoms: C_3  and  O_4
REMARK    4  A    between atoms: O_4  and  C_5
REMARK    5  A    between atoms: C_5  and  C_7
REMARK                            x       y       z     vdW  Elec       q    Type
REMARK                         _______ _______ _______ _____ _____    ______ ____
ROOT
ATOM      1  C   UNL     1       5.006   4.069  17.960  0.00  0.00    +0.000 A 
ATOM      2  C   UNL     1       4.944   3.663  16.667  0.00  0.00    +0.000 A 
ATOM      3  C   UNL     1       5.890   4.270  15.748  0.00  0.00    +0.000 A 
ATOM      4  C   UNL     1       6.061   4.094  14.437  0.00  0.00    +0.000 A 
ATOM      5  C   UNL     1       5.463   3.313  13.404  0.00  0.00    +0.000 A 
ATOM      6  C   UNL     1       5.955   3.417  12.157  0.00  0.00    +0.000 A 
ATOM      7  C   UNL     1       7.069   4.299  11.846  0.00  0.00    +0.000 A 
ATOM      8  C   UNL     1       7.674   5.068  12.767  0.00  0.00    +0.000 A 
ATOM      9  C   UNL     1       7.191   5.017  14.163  0.00  0.00    +0.000 A 
ATOM     10  N   UNL     1       7.650   5.689  15.178  0.00  0.00    +0.000 NA
ATOM     11  C   UNL     1       6.859   5.262  16.212  0.00  0.00    +0.000 A 
ATOM     12  C   UNL     1       6.843   5.606  17.508  0.00  0.00    +0.000 A 
ATOM     13  N   UNL     1       5.937   5.026  18.382  0.00  0.00    +0.000 N 
ATOM     14  H   UNL     1       5.918   5.304  19.358  0.00  0.00    +0.000 HD
ENDROOT
BRANCH   1  15
ATOM     15  C   UNL     1       3.992   3.505  18.902  0.00  0.00    +0.000 C 
ATOM     16  O   UNL     1       4.207   2.562  19.652  0.00  0.00    +0.000 OA
BRANCH  15  17
ATOM     17  O   UNL     1       2.790   4.117  18.719  0.00  0.00    +0.000 OA
BRANCH  17  18
ATOM     18  C   UNL     1       2.236   4.708  19.905  0.00  0.00    +0.000 C 
BRANCH  18  20
ATOM     19  C   UNL     1       1.298   2.875  21.341  0.00  0.00    +0.000 C 
ATOM     20  C   UNL     1       0.965   4.022  20.399  0.00  0.00    +0.000 C 
ENDBRANCH  18  20
ENDBRANCH  17  18
ENDBRANCH  15  17
ENDBRANCH   1  15
TORSDOF 4
ENDMDL
MODEL 6
REMARK VINA RESULT:      -7.4      2.776      4.499
REMARK  Name = 
REMARK  5 active torsions:
REMARK  status: ('A' for Active; 'I' for Inactive)
REMARK    1  A    between atoms: C_1  and  C_2
REMARK    2  A    between atoms: C_2  and  C_3
REMARK    3  A    between atoms: C_3  and  O_4
REMARK    4  A    between atoms: O_4  and  C_5
REMARK    5  A    between atoms: C_5  and  C_7
REMARK                            x       y       z     vdW  Elec       q    Type
REMARK                         _______ _______ _______ _____ _____    ______ ____
ROOT
ATOM      1  C   UNL     1       6.139   4.386  17.396  0.00  0.00    +0.000 A 
ATOM      2  C   UNL     1       5.506   4.158  18.573  0.00  0.00    +0.000 A 
ATOM      3  C   UNL     1       4.099   3.806  18.500  0.00  0.00    +0.000 A 
ATOM      4  C   UNL     1       3.217   3.546  19.466  0.00  0.00    +0.000 A 
ATOM      5  C   UNL     1       3.220   3.493  20.892  0.00  0.00    +0.000 A 
ATOM      6  C   UNL     1       2.078   3.165  21.522  0.00  0.00    +0.000 A 
ATOM      7  C   UNL     1       0.858   2.869  20.787  0.00  0.00    +0.000 A 
ATOM      8  C   UNL     1       0.783   2.907  19.446  0.00  0.00    +0.000 A 
ATOM      9  C   UNL     1       1.993   3.264  18.677  0.00  0.00    +0.000 A 
ATOM     10  N   UNL     1       2.103   3.354  17.383  0.00  0.00    +0.000 NA
ATOM     11  C   UNL     1       3.416   3.702  17.211  0.00  0.00    +0.000 A 
ATOM     12  C   UNL     1       4.122   3.951  16.098  0.00  0.00    +0.000 A 
ATOM     13  N   UNL     1       5.464   4.288  16.173  0.00  0.00    +0.000 N 
ATOM     14  H   UNL     1       5.988   4.493  15.328  0.00  0.00    +0.000 HD
ENDROOT
BRANCH   1  15
ATOM     15  C   UNL     1       7.568   4.818  17.461  0.00  0.00    +0.000 C 
ATOM     16  O   UNL     1       8.470   4.125  17.915  0.00  0.00    +0.000 OA
BRANCH  15  17
ATOM     17  O   UNL     1       7.687   6.110  17.052  0.00  0.00    +0.000 OA
BRANCH  17  18
ATOM     18  C   UNL     1       7.781   7.067  18.119  0.00  0.00    +0.000 C 
BRANCH  18  20
ATOM     19  C   UNL     1       8.706   9.379  18.436  0.00  0.00    +0.000 C 
ATOM     20  C   UNL     1       7.728   8.519  17.651  0.00  0.00    +0.000 C 
ENDBRANCH  18  20
ENDBRANCH  17  18
ENDBRANCH  15  17
ENDBRANCH   1  15
TORSDOF 4
ENDMDL
MODEL 7
REMARK VINA RESULT:      -7.4      2.513      6.441
REMARK  Name = 
REMARK  5 active torsions:
REMARK  status: ('A' for Active; 'I' for Inactive)
REMARK    1  A    between atoms: C_1  and  C_2
REMARK    2  A    between atoms: C_2  and  C_3
REMARK    3  A    between atoms: C_3  and  O_4
REMARK    4  A    between atoms: O_4  and  C_5
REMARK    5  A    between atoms: C_5  and  C_7
REMARK                            x       y       z     vdW  Elec       q    Type
REMARK                         _______ _______ _______ _____ _____    ______ ____
ROOT
ATOM      1  C   UNL     1       4.604   4.464  17.661  0.00  0.00    +0.000 A 
ATOM      2  C   UNL     1       4.612   4.009  16.384  0.00  0.00    +0.000 A 
ATOM      3  C   UNL     1       5.698   4.464  15.535  0.00  0.00    +0.000 A 
ATOM      4  C   UNL     1       5.964   4.211  14.253  0.00  0.00    +0.000 A 
ATOM      5  C   UNL     1       5.374   3.454  13.197  0.00  0.00    +0.000 A 
ATOM      6  C   UNL     1       5.983   3.446  11.998  0.00  0.00    +0.000 A 
ATOM      7  C   UNL     1       7.214   4.185  11.762  0.00  0.00    +0.000 A 
ATOM      8  C   UNL     1       7.818   4.925  12.708  0.00  0.00    +0.000 A 
ATOM      9  C   UNL     1       7.211   4.990  14.053  0.00  0.00    +0.000 A 
ATOM     10  N   UNL     1       7.652   5.654  15.082  0.00  0.00    +0.000 NA
ATOM     11  C   UNL     1       6.729   5.365  16.052  0.00  0.00    +0.000 A 
ATOM     12  C   UNL     1       6.637   5.767  17.328  0.00  0.00    +0.000 A 
ATOM     13  N   UNL     1       5.597   5.331  18.133  0.00  0.00    +0.000 N 
ATOM     14  H   UNL     1       5.524   5.654  19.093  0.00  0.00    +0.000 HD
ENDROOT
BRANCH   1  15
ATOM     15  C   UNL     1       3.453   4.058  18.524  0.00  0.00    +0.000 C 
ATOM     16  O   UNL     1       2.293   4.014  18.138  0.00  0.00    +0.000 OA
BRANCH  15  17
ATOM     17  O   UNL     1       3.873   3.860  19.804  0.00  0.00    +0.000 OA
BRANCH  17  18
ATOM     18  C   UNL     1       3.448   2.616  20.384  0.00  0.00    +0.000 C 
BRANCH  18  20
ATOM     19  C   UNL     1       1.085   2.874  21.190  0.00  0.00    +0.000 C 
ATOM     20  C   UNL     1       2.546   2.782  21.603  0.00  0.00    +0.000 C 
ENDBRANCH  18  20
ENDBRANCH  17  18
ENDBRANCH  15  17
ENDBRANCH   1  15
TORSDOF 4
ENDMDL
MODEL 8
REMARK VINA RESULT:      -7.2      1.208      1.543
REMARK  Name = 
REMARK  5 active torsions:
REMARK  status: ('A' for Active; 'I' for Inactive)
REMARK    1  A    between atoms: C_1  and  C_2
REMARK    2  A    between atoms: C_2  and  C_3
REMARK    3  A    between atoms: C_3  and  O_4
REMARK    4  A    between atoms: O_4  and  C_5
REMARK    5  A    between atoms: C_5  and  C_7
REMARK                            x       y       z     vdW  Elec       q    Type
REMARK                         _______ _______ _______ _____ _____    ______ ____
ROOT
ATOM      1  C   UNL     1       6.084   4.163  14.531  0.00  0.00    +0.000 A 
ATOM      2  C   UNL     1       4.879   4.049  15.143  0.00  0.00    +0.000 A 
ATOM      3  C   UNL     1       4.851   4.282  16.576  0.00  0.00    +0.000 A 
ATOM      4  C   UNL     1       3.841   4.227  17.446  0.00  0.00    +0.000 A 
ATOM      5  C   UNL     1       2.444   3.941  17.403  0.00  0.00    +0.000 A 
ATOM      6  C   UNL     1       1.741   4.008  18.547  0.00  0.00    +0.000 A 
ATOM      7  C   UNL     1       2.371   4.361  19.811  0.00  0.00    +0.000 A 
ATOM      8  C   UNL     1       3.682   4.634  19.925  0.00  0.00    +0.000 A 
ATOM      9  C   UNL     1       4.527   4.579  18.714  0.00  0.00    +0.000 A 
ATOM     10  N   UNL     1       5.806   4.808  18.638  0.00  0.00    +0.000 NA
ATOM     11  C   UNL     1       6.071   4.628  17.306  0.00  0.00    +0.000 A 
ATOM     12  C   UNL     1       7.219   4.713  16.618  0.00  0.00    +0.000 A 
ATOM     13  N   UNL     1       7.241   4.488  15.250  0.00  0.00    +0.000 N 
ATOM     14  H   UNL     1       8.116   4.537  14.738  0.00  0.00    +0.000 HD
ENDROOT
BRANCH   1  15
ATOM     15  C   UNL     1       6.139   3.857  13.069  0.00  0.00    +0.000 C 
ATOM     16  O   UNL     1       7.179   3.757  12.431  0.00  0.00    +0.000 OA
BRANCH  15  17
ATOM     17  O   UNL     1       4.881   3.819  12.551  0.00  0.00    +0.000 OA
BRANCH  17  18
ATOM     18  C   UNL     1       4.703   2.868  11.489  0.00  0.00    +0.000 C 
BRANCH  18  20
ATOM     19  C   UNL     1       3.206   4.164   9.945  0.00  0.00    +0.000 C 
ATOM     20  C   UNL     1       3.328   2.932  10.829  0.00  0.00    +0.000 C 
ENDBRANCH  18  20
ENDBRANCH  17  18
ENDBRANCH  15  17
ENDBRANCH   1  15
TORSDOF 4
ENDMDL
MODEL 9
REMARK VINA RESULT:      -7.2      2.555      6.445
REMARK  Name = 
REMARK  5 active torsions:
REMARK  status: ('A' for Active; 'I' for Inactive)
REMARK    1  A    between atoms: C_1  and  C_2
REMARK    2  A    between atoms: C_2  and  C_3
REMARK    3  A    between atoms: C_3  and  O_4
REMARK    4  A    between atoms: O_4  and  C_5
REMARK    5  A    between atoms: C_5  and  C_7
REMARK                            x       y       z     vdW  Elec       q    Type
REMARK                         _______ _______ _______ _____ _____    ______ ____
ROOT
ATOM      1  C   UNL     1       4.254   3.563  17.573  0.00  0.00    +0.000 A 
ATOM      2  C   UNL     1       4.469   3.338  16.253  0.00  0.00    +0.000 A 
ATOM      3  C   UNL     1       5.559   4.072  15.635  0.00  0.00    +0.000 A 
ATOM      4  C   UNL     1       5.998   4.080  14.376  0.00  0.00    +0.000 A 
ATOM      5  C   UNL     1       5.649   3.443  13.148  0.00  0.00    +0.000 A 
ATOM      6  C   UNL     1       6.378   3.720  12.053  0.00  0.00    +0.000 A 
ATOM      7  C   UNL     1       7.500   4.646  12.097  0.00  0.00    +0.000 A 
ATOM      8  C   UNL     1       7.878   5.286  13.217  0.00  0.00    +0.000 A 
ATOM      9  C   UNL     1       7.126   5.040  14.464  0.00  0.00    +0.000 A 
ATOM     10  N   UNL     1       7.346   5.570  15.632  0.00  0.00    +0.000 NA
ATOM     11  C   UNL     1       6.378   5.000  16.416  0.00  0.00    +0.000 A 
ATOM     12  C   UNL     1       6.088   5.162  17.715  0.00  0.00    +0.000 A 
ATOM     13  N   UNL     1       5.046   4.461  18.299  0.00  0.00    +0.000 N 
ATOM     14  H   UNL     1       4.820   4.602  19.279  0.00  0.00    +0.000 HD
ENDROOT
BRANCH   1  15
ATOM     15  C   UNL     1       3.091   2.867  18.204  0.00  0.00    +0.000 C 
ATOM     16  O   UNL     1       2.055   2.594  17.611  0.00  0.00    +0.000 OA
BRANCH  15  17
ATOM     17  O   UNL     1       3.317   2.689  19.534  0.00  0.00    +0.000 OA
BRANCH  17  18
ATOM     18  C   UNL     1       2.126   2.603  20.334  0.00  0.00    +0.000 C 
BRANCH  18  20
ATOM     19  C   UNL     1       1.657   5.047  20.666  0.00  0.00    +0.000 C 
ATOM     20  C   UNL     1       1.985   3.730  21.353  0.00  0.00    +0.000 C 
ENDBRANCH  18  20
ENDBRANCH  17  18
ENDBRANCH  15  17
ENDBRANCH   1  15
TORSDOF 4
ENDMDL
