MODEL 1
REMARK VINA RESULT:      -7.8      0.000      0.000
REMARK  Name = 
REMARK  9 active torsions:
REMARK  status: ('A' for Active; 'I' for Inactive)
REMARK    1  A    between atoms: C_1  and  O_2
REMARK    2  A    between atoms: O_2  and  C_3
REMARK    3  A    between atoms: N_10  and  C_11
REMARK    4  A    between atoms: C_11  and  C_12
REMARK    5  A    between atoms: C_12  and  C_13
REMARK    6  A    between atoms: C_13  and  P_14
REMARK    7  A    between atoms: P_14  and  C_15
REMARK    8  A    between atoms: P_14  and  C_21
REMARK    9  A    between atoms: P_14  and  C_27
REMARK                            x       y       z     vdW  Elec       q    Type
REMARK                         _______ _______ _______ _____ _____    ______ ____
ROOT
ATOM      1  P   UNL     1      -0.854  11.825  20.554  0.00  0.00    +0.000 P 
ENDROOT
BRANCH   1   2
ATOM      2  C   UNL     1       0.625  12.700  20.047  0.00  0.00    +0.000 A 
ATOM      3  C   UNL     1       1.035  12.695  18.700  0.00  0.00    +0.000 A 
ATOM      4  C   UNL     1       2.204  13.330  18.282  0.00  0.00    +0.000 A 
ATOM      5  C   UNL     1       3.004  13.976  19.215  0.00  0.00    +0.000 A 
ATOM      6  C   UNL     1       2.622  13.998  20.555  0.00  0.00    +0.000 A 
ATOM      7  C   UNL     1       1.439  13.366  20.968  0.00  0.00    +0.000 A 
ENDBRANCH   1   2
BRANCH   1   8
ATOM      8  C   UNL     1      -1.767  11.215  19.131  0.00  0.00    +0.000 A 
ATOM      9  C   UNL     1      -1.258  10.180  18.336  0.00  0.00    +0.000 A 
ATOM     10  C   UNL     1      -1.884   9.817  17.141  0.00  0.00    +0.000 A 
ATOM     11  C   UNL     1      -3.044  10.467  16.732  0.00  0.00    +0.000 A 
ATOM     12  C   UNL     1      -3.603  11.450  17.541  0.00  0.00    +0.000 A 
ATOM     13  C   UNL     1      -2.982  11.802  18.741  0.00  0.00    +0.000 A 
ENDBRANCH   1   8
BRANCH   1  14
ATOM     14  C   UNL     1      -1.906  12.805  21.598  0.00  0.00    +0.000 A 
ATOM     15  C   UNL     1      -2.115  14.168  21.337  0.00  0.00    +0.000 A 
ATOM     16  C   UNL     1      -2.884  14.956  22.193  0.00  0.00    +0.000 A 
ATOM     17  C   UNL     1      -3.470  14.387  23.320  0.00  0.00    +0.000 A 
ATOM     18  C   UNL     1      -3.298  13.029  23.578  0.00  0.00    +0.000 A 
ATOM     19  C   UNL     1      -2.525  12.244  22.721  0.00  0.00    +0.000 A 
ENDBRANCH   1  14
BRANCH   1  20
ATOM     20  C   UNL     1      -0.287  10.367  21.560  0.00  0.00    +0.000 C 
BRANCH  20  21
ATOM     21  C   UNL     1       1.024   9.825  21.029  0.00  0.00    +0.000 C 
BRANCH  21  22
ATOM     22  C   UNL     1       1.218   8.321  21.017  0.00  0.00    +0.000 C 
BRANCH  22  30
ATOM     23  C   UNL     1       3.361   4.124  18.454  0.00  0.00    +0.000 A 
ATOM     24  C   UNL     1       2.806   4.129  19.720  0.00  0.00    +0.000 A 
ATOM     25  C   UNL     1       2.278   5.297  20.264  0.00  0.00    +0.000 A 
ATOM     26  C   UNL     1       2.295   6.498  19.532  0.00  0.00    +0.000 A 
ATOM     27  C   UNL     1       2.850   6.510  18.245  0.00  0.00    +0.000 A 
ATOM     28  C   UNL     1       2.730   7.838  17.752  0.00  0.00    +0.000 A 
ATOM     29  C   UNL     1       2.120   8.595  18.723  0.00  0.00    +0.000 A 
ATOM     30  N   UNL     1       1.857   7.785  19.808  0.00  0.00    +0.000 N 
ATOM     31  C   UNL     1       3.384   5.313  17.711  0.00  0.00    +0.000 A 
BRANCH  23  33
ATOM     32  C   UNL     1       3.496   1.759  18.365  0.00  0.00    +0.000 C 
ATOM     33  O   UNL     1       3.908   3.023  17.849  0.00  0.00    +0.000 OA
ENDBRANCH  23  33
ENDBRANCH  22  30
ENDBRANCH  21  22
ENDBRANCH  20  21
ENDBRANCH   1  20
TORSDOF 8
ENDMDL
MODEL 2
REMARK VINA RESULT:      -7.8      1.969      4.672
REMARK  Name = 
REMARK  9 active torsions:
REMARK  status: ('A' for Active; 'I' for Inactive)
REMARK    1  A    between atoms: C_1  and  O_2
REMARK    2  A    between atoms: O_2  and  C_3
REMARK    3  A    between atoms: N_10  and  C_11
REMARK    4  A    between atoms: C_11  and  C_12
REMARK    5  A    between atoms: C_12  and  C_13
REMARK    6  A    between atoms: C_13  and  P_14
REMARK    7  A    between atoms: P_14  and  C_15
REMARK    8  A    between atoms: P_14  and  C_21
REMARK    9  A    between atoms: P_14  and  C_27
REMARK                            x       y       z     vdW  Elec       q    Type
REMARK                         _______ _______ _______ _____ _____    ______ ____
ROOT
ATOM      1  P   UNL     1      -0.278  10.897  18.853  0.00  0.00    +0.000 P 
ENDROOT
BRANCH   1   2
ATOM      2  C   UNL     1      -1.935  11.070  18.195  0.00  0.00    +0.000 A 
ATOM      3  C   UNL     1      -2.938  11.716  18.942  0.00  0.00    +0.000 A 
ATOM      4  C   UNL     1      -4.248  11.828  18.476  0.00  0.00    +0.000 A 
ATOM      5  C   UNL     1      -4.588  11.276  17.249  0.00  0.00    +0.000 A 
ATOM      6  C   UNL     1      -3.615  10.632  16.487  0.00  0.00    +0.000 A 
ATOM      7  C   UNL     1      -2.296  10.532  16.956  0.00  0.00    +0.000 A 
ENDBRANCH   1   2
BRANCH   1   8
ATOM      8  C   UNL     1      -0.312  10.370  20.571  0.00  0.00    +0.000 A 
ATOM      9  C   UNL     1      -0.216   9.015  20.911  0.00  0.00    +0.000 A 
ATOM     10  C   UNL     1      -0.406   8.589  22.229  0.00  0.00    +0.000 A 
ATOM     11  C   UNL     1      -0.673   9.514  23.232  0.00  0.00    +0.000 A 
ATOM     12  C   UNL     1      -0.705  10.870  22.927  0.00  0.00    +0.000 A 
ATOM     13  C   UNL     1      -0.502  11.293  21.610  0.00  0.00    +0.000 A 
ENDBRANCH   1   8
BRANCH   1  14
ATOM     14  C   UNL     1       0.688  12.377  18.673  0.00  0.00    +0.000 A 
ATOM     15  C   UNL     1       2.064  12.313  18.401  0.00  0.00    +0.000 A 
ATOM     16  C   UNL     1       2.838  13.471  18.328  0.00  0.00    +0.000 A 
ATOM     17  C   UNL     1       2.244  14.716  18.511  0.00  0.00    +0.000 A 
ATOM     18  C   UNL     1       0.874  14.800  18.751  0.00  0.00    +0.000 A 
ATOM     19  C   UNL     1       0.102  13.639  18.827  0.00  0.00    +0.000 A 
ENDBRANCH   1  14
BRANCH   1  20
ATOM     20  C   UNL     1       0.556   9.573  17.846  0.00  0.00    +0.000 C 
BRANCH  20  21
ATOM     21  C   UNL     1       1.753   9.011  18.585  0.00  0.00    +0.000 C 
BRANCH  21  22
ATOM     22  C   UNL     1       2.998   8.692  17.781  0.00  0.00    +0.000 C 
BRANCH  22  30
ATOM     23  C   UNL     1       2.769   3.948  20.273  0.00  0.00    +0.000 A 
ATOM     24  C   UNL     1       2.055   5.088  20.591  0.00  0.00    +0.000 A 
ATOM     25  C   UNL     1       2.210   6.257  19.851  0.00  0.00    +0.000 A 
ATOM     26  C   UNL     1       3.096   6.299  18.759  0.00  0.00    +0.000 A 
ATOM     27  C   UNL     1       3.825   5.151  18.420  0.00  0.00    +0.000 A 
ATOM     28  C   UNL     1       4.625   5.483  17.293  0.00  0.00    +0.000 A 
ATOM     29  C   UNL     1       4.378   6.796  16.973  0.00  0.00    +0.000 A 
ATOM     30  N   UNL     1       3.452   7.297  17.863  0.00  0.00    +0.000 N 
ATOM     31  C   UNL     1       3.655   3.973  19.187  0.00  0.00    +0.000 A 
BRANCH  23  33
ATOM     32  C   UNL     1       1.530   2.598  21.778  0.00  0.00    +0.000 C 
ATOM     33  O   UNL     1       2.682   2.760  20.953  0.00  0.00    +0.000 OA
ENDBRANCH  23  33
ENDBRANCH  22  30
ENDBRANCH  21  22
ENDBRANCH  20  21
ENDBRANCH   1  20
TORSDOF 8
ENDMDL
MODEL 3
REMARK VINA RESULT:      -7.7      0.419      4.318
REMARK  Name = 
REMARK  9 active torsions:
REMARK  status: ('A' for Active; 'I' for Inactive)
REMARK    1  A    between atoms: C_1  and  O_2
REMARK    2  A    between atoms: O_2  and  C_3
REMARK    3  A    between atoms: N_10  and  C_11
REMARK    4  A    between atoms: C_11  and  C_12
REMARK    5  A    between atoms: C_12  and  C_13
REMARK    6  A    between atoms: C_13  and  P_14
REMARK    7  A    between atoms: P_14  and  C_15
REMARK    8  A    between atoms: P_14  and  C_21
REMARK    9  A    between atoms: P_14  and  C_27
REMARK                            x       y       z     vdW  Elec       q    Type
REMARK                         _______ _______ _______ _____ _____    ______ ____
ROOT
ATOM      1  P   UNL     1      -1.095  11.801  20.622  0.00  0.00    +0.000 P 
ENDROOT
BRANCH   1   2
ATOM      2  C   UNL     1      -2.223  12.636  21.736  0.00  0.00    +0.000 A 
ATOM      3  C   UNL     1      -2.711  13.921  21.430  0.00  0.00    +0.000 A 
ATOM      4  C   UNL     1      -3.555  14.614  22.296  0.00  0.00    +0.000 A 
ATOM      5  C   UNL     1      -3.919  14.038  23.506  0.00  0.00    +0.000 A 
ATOM      6  C   UNL     1      -3.452  12.767  23.834  0.00  0.00    +0.000 A 
ATOM      7  C   UNL     1      -2.611  12.070  22.953  0.00  0.00    +0.000 A 
ENDBRANCH   1   2
BRANCH   1   8
ATOM      8  C   UNL     1       0.323  12.836  20.237  0.00  0.00    +0.000 A 
ATOM      9  C   UNL     1       0.984  13.557  21.239  0.00  0.00    +0.000 A 
ATOM     10  C   UNL     1       1.978  14.486  20.921  0.00  0.00    +0.000 A 
ATOM     11  C   UNL     1       2.345  14.692  19.595  0.00  0.00    +0.000 A 
ATOM     12  C   UNL     1       1.750  13.937  18.591  0.00  0.00    +0.000 A 
ATOM     13  C   UNL     1       0.765  13.000  18.914  0.00  0.00    +0.000 A 
ENDBRANCH   1   8
BRANCH   1  14
ATOM     14  C   UNL     1      -1.888  11.247  19.131  0.00  0.00    +0.000 A 
ATOM     15  C   UNL     1      -1.300  10.262  18.323  0.00  0.00    +0.000 A 
ATOM     16  C   UNL     1      -1.886   9.875  17.118  0.00  0.00    +0.000 A 
ATOM     17  C   UNL     1      -3.080  10.459  16.708  0.00  0.00    +0.000 A 
ATOM     18  C   UNL     1      -3.693  11.417  17.513  0.00  0.00    +0.000 A 
ATOM     19  C   UNL     1      -3.103  11.804  18.717  0.00  0.00    +0.000 A 
ENDBRANCH   1  14
BRANCH   1  20
ATOM     20  C   UNL     1      -0.493  10.285  21.517  0.00  0.00    +0.000 C 
BRANCH  20  21
ATOM     21  C   UNL     1       0.890   9.892  21.037  0.00  0.00    +0.000 C 
BRANCH  21  22
ATOM     22  C   UNL     1       1.283   8.430  21.125  0.00  0.00    +0.000 C 
BRANCH  22  30
ATOM     23  C   UNL     1       3.419   4.209  18.597  0.00  0.00    +0.000 A 
ATOM     24  C   UNL     1       2.955   4.250  19.898  0.00  0.00    +0.000 A 
ATOM     25  C   UNL     1       2.416   5.420  20.429  0.00  0.00    +0.000 A 
ATOM     26  C   UNL     1       2.330   6.585  19.646  0.00  0.00    +0.000 A 
ATOM     27  C   UNL     1       2.792   6.560  18.323  0.00  0.00    +0.000 A 
ATOM     28  C   UNL     1       2.580   7.858  17.782  0.00  0.00    +0.000 A 
ATOM     29  C   UNL     1       2.008   8.634  18.762  0.00  0.00    +0.000 A 
ATOM     30  N   UNL     1       1.858   7.865  19.897  0.00  0.00    +0.000 N 
ATOM     31  C   UNL     1       3.338   5.362  17.803  0.00  0.00    +0.000 A 
BRANCH  23  33
ATOM     32  C   UNL     1       3.147   1.938  17.973  0.00  0.00    +0.000 C 
ATOM     33  O   UNL     1       3.969   3.104  18.001  0.00  0.00    +0.000 OA
ENDBRANCH  23  33
ENDBRANCH  22  30
ENDBRANCH  21  22
ENDBRANCH  20  21
ENDBRANCH   1  20
TORSDOF 8
ENDMDL
MODEL 4
REMARK VINA RESULT:      -7.7      1.984      4.750
REMARK  Name = 
REMARK  9 active torsions:
REMARK  status: ('A' for Active; 'I' for Inactive)
REMARK    1  A    between atoms: C_1  and  O_2
REMARK    2  A    between atoms: O_2  and  C_3
REMARK    3  A    between atoms: N_10  and  C_11
REMARK    4  A    between atoms: C_11  and  C_12
REMARK    5  A    between atoms: C_12  and  C_13
REMARK    6  A    between atoms: C_13  and  P_14
REMARK    7  A    between atoms: P_14  and  C_15
REMARK    8  A    between atoms: P_14  and  C_21
REMARK    9  A    between atoms: P_14  and  C_27
REMARK                            x       y       z     vdW  Elec       q    Type
REMARK                         _______ _______ _______ _____ _____    ______ ____
ROOT
ATOM      1  P   UNL     1       0.356  11.077  19.050  0.00  0.00    +0.000 P 
ENDROOT
BRANCH   1   2
ATOM      2  C   UNL     1      -1.225  10.866  18.234  0.00  0.00    +0.000 A 
ATOM      3  C   UNL     1      -1.371   9.937  17.186  0.00  0.00    +0.000 A 
ATOM      4  C   UNL     1      -2.575   9.781  16.502  0.00  0.00    +0.000 A 
ATOM      5  C   UNL     1      -3.665  10.570  16.844  0.00  0.00    +0.000 A 
ATOM      6  C   UNL     1      -3.550  11.496  17.877  0.00  0.00    +0.000 A 
ATOM      7  C   UNL     1      -2.337  11.642  18.570  0.00  0.00    +0.000 A 
ENDBRANCH   1   2
BRANCH   1   8
ATOM      8  C   UNL     1       0.267  10.584  20.776  0.00  0.00    +0.000 A 
ATOM      9  C   UNL     1       1.181   9.670  21.314  0.00  0.00    +0.000 A 
ATOM     10  C   UNL     1       1.016   9.161  22.605  0.00  0.00    +0.000 A 
ATOM     11  C   UNL     1      -0.054   9.578  23.390  0.00  0.00    +0.000 A 
ATOM     12  C   UNL     1      -0.934  10.537  22.901  0.00  0.00    +0.000 A 
ATOM     13  C   UNL     1      -0.758  11.052  21.614  0.00  0.00    +0.000 A 
ENDBRANCH   1   8
BRANCH   1  14
ATOM     14  C   UNL     1       0.986  12.733  18.905  0.00  0.00    +0.000 A 
ATOM     15  C   UNL     1       0.193  13.839  19.248  0.00  0.00    +0.000 A 
ATOM     16  C   UNL     1       0.659  15.142  19.071  0.00  0.00    +0.000 A 
ATOM     17  C   UNL     1       1.935  15.358  18.559  0.00  0.00    +0.000 A 
ATOM     18  C   UNL     1       2.747  14.271  18.242  0.00  0.00    +0.000 A 
ATOM     19  C   UNL     1       2.276  12.969  18.418  0.00  0.00    +0.000 A 
ENDBRANCH   1  14
BRANCH   1  20
ATOM     20  C   UNL     1       1.557   9.956  18.178  0.00  0.00    +0.000 C 
BRANCH  20  21
ATOM     21  C   UNL     1       1.316   8.510  18.560  0.00  0.00    +0.000 C 
BRANCH  21  22
ATOM     22  C   UNL     1       2.463   7.739  19.184  0.00  0.00    +0.000 C 
BRANCH  22  30
ATOM     23  C   UNL     1       5.312   4.449  16.049  0.00  0.00    +0.000 A 
ATOM     24  C   UNL     1       5.545   5.793  16.272  0.00  0.00    +0.000 A 
ATOM     25  C   UNL     1       4.723   6.530  17.120  0.00  0.00    +0.000 A 
ATOM     26  C   UNL     1       3.637   5.918  17.772  0.00  0.00    +0.000 A 
ATOM     27  C   UNL     1       3.388   4.556  17.561  0.00  0.00    +0.000 A 
ATOM     28  C   UNL     1       2.246   4.215  18.337  0.00  0.00    +0.000 A 
ATOM     29  C   UNL     1       1.829   5.350  18.992  0.00  0.00    +0.000 A 
ATOM     30  N   UNL     1       2.669   6.387  18.648  0.00  0.00    +0.000 N 
ATOM     31  C   UNL     1       4.234   3.824  16.693  0.00  0.00    +0.000 A 
BRANCH  23  33
ATOM     32  C   UNL     1       6.354   4.189  13.936  0.00  0.00    +0.000 C 
ATOM     33  O   UNL     1       6.065   3.654  15.226  0.00  0.00    +0.000 OA
ENDBRANCH  23  33
ENDBRANCH  22  30
ENDBRANCH  21  22
ENDBRANCH  20  21
ENDBRANCH   1  20
TORSDOF 8
ENDMDL
MODEL 5
REMARK VINA RESULT:      -7.7      0.450      4.337
REMARK  Name = 
REMARK  9 active torsions:
REMARK  status: ('A' for Active; 'I' for Inactive)
REMARK    1  A    between atoms: C_1  and  O_2
REMARK    2  A    between atoms: O_2  and  C_3
REMARK    3  A    between atoms: N_10  and  C_11
REMARK    4  A    between atoms: C_11  and  C_12
REMARK    5  A    between atoms: C_12  and  C_13
REMARK    6  A    between atoms: C_13  and  P_14
REMARK    7  A    between atoms: P_14  and  C_15
REMARK    8  A    between atoms: P_14  and  C_21
REMARK    9  A    between atoms: P_14  and  C_27
REMARK                            x       y       z     vdW  Elec       q    Type
REMARK                         _______ _______ _______ _____ _____    ______ ____
ROOT
ATOM      1  P   UNL     1      -1.039  11.832  20.569  0.00  0.00    +0.000 P 
ENDROOT
BRANCH   1   2
ATOM      2  C   UNL     1      -2.143  12.699  21.682  0.00  0.00    +0.000 A 
ATOM      3  C   UNL     1      -2.559  12.103  22.888  0.00  0.00    +0.000 A 
ATOM      4  C   UNL     1      -3.451  12.733  23.753  0.00  0.00    +0.000 A 
ATOM      5  C   UNL     1      -3.965  13.979  23.419  0.00  0.00    +0.000 A 
ATOM      6  C   UNL     1      -3.571  14.594  22.233  0.00  0.00    +0.000 A 
ATOM      7  C   UNL     1      -2.664  13.959  21.371  0.00  0.00    +0.000 A 
ENDBRANCH   1   2
BRANCH   1   8
ATOM      8  C   UNL     1       0.378  12.849  20.137  0.00  0.00    +0.000 A 
ATOM      9  C   UNL     1       0.833  12.928  18.814  0.00  0.00    +0.000 A 
ATOM     10  C   UNL     1       2.027  13.583  18.502  0.00  0.00    +0.000 A 
ATOM     11  C   UNL     1       2.774  14.193  19.504  0.00  0.00    +0.000 A 
ATOM     12  C   UNL     1       2.304  14.186  20.813  0.00  0.00    +0.000 A 
ATOM     13  C   UNL     1       1.104  13.540  21.119  0.00  0.00    +0.000 A 
ENDBRANCH   1   8
BRANCH   1  14
ATOM     14  C   UNL     1      -1.861  11.250  19.105  0.00  0.00    +0.000 A 
ATOM     15  C   UNL     1      -1.282  10.258  18.298  0.00  0.00    +0.000 A 
ATOM     16  C   UNL     1      -1.892   9.848  17.112  0.00  0.00    +0.000 A 
ATOM     17  C   UNL     1      -3.099  10.416  16.721  0.00  0.00    +0.000 A 
ATOM     18  C   UNL     1      -3.703  11.381  17.525  0.00  0.00    +0.000 A 
ATOM     19  C   UNL     1      -3.089  11.791  18.710  0.00  0.00    +0.000 A 
ENDBRANCH   1  14
BRANCH   1  20
ATOM     20  C   UNL     1      -0.431  10.334  21.488  0.00  0.00    +0.000 C 
BRANCH  20  21
ATOM     21  C   UNL     1       0.945   9.928  21.002  0.00  0.00    +0.000 C 
BRANCH  21  22
ATOM     22  C   UNL     1       1.366   8.482  21.186  0.00  0.00    +0.000 C 
BRANCH  22  30
ATOM     23  C   UNL     1       2.584   3.897  18.683  0.00  0.00    +0.000 A 
ATOM     24  C   UNL     1       2.130   4.040  19.981  0.00  0.00    +0.000 A 
ATOM     25  C   UNL     1       1.846   5.299  20.505  0.00  0.00    +0.000 A 
ATOM     26  C   UNL     1       2.012   6.453  19.718  0.00  0.00    +0.000 A 
ATOM     27  C   UNL     1       2.467   6.327  18.399  0.00  0.00    +0.000 A 
ATOM     28  C   UNL     1       2.537   7.638  17.854  0.00  0.00    +0.000 A 
ATOM     29  C   UNL     1       2.134   8.521  18.828  0.00  0.00    +0.000 A 
ATOM     30  N   UNL     1       1.818   7.805  19.963  0.00  0.00    +0.000 N 
ATOM     31  C   UNL     1       2.753   5.039  17.886  0.00  0.00    +0.000 A 
BRANCH  23  33
ATOM     32  C   UNL     1       3.669   1.799  18.882  0.00  0.00    +0.000 C 
ATOM     33  O   UNL     1       2.893   2.699  18.094  0.00  0.00    +0.000 OA
ENDBRANCH  23  33
ENDBRANCH  22  30
ENDBRANCH  21  22
ENDBRANCH  20  21
ENDBRANCH   1  20
TORSDOF 8
ENDMDL
MODEL 6
REMARK VINA RESULT:      -7.6      1.749      4.283
REMARK  Name = 
REMARK  9 active torsions:
REMARK  status: ('A' for Active; 'I' for Inactive)
REMARK    1  A    between atoms: C_1  and  O_2
REMARK    2  A    between atoms: O_2  and  C_3
REMARK    3  A    between atoms: N_10  and  C_11
REMARK    4  A    between atoms: C_11  and  C_12
REMARK    5  A    between atoms: C_12  and  C_13
REMARK    6  A    between atoms: C_13  and  P_14
REMARK    7  A    between atoms: P_14  and  C_15
REMARK    8  A    between atoms: P_14  and  C_21
REMARK    9  A    between atoms: P_14  and  C_27
REMARK                            x       y       z     vdW  Elec       q    Type
REMARK                         _______ _______ _______ _____ _____    ______ ____
ROOT
ATOM      1  P   UNL     1      -0.478  11.085  18.815  0.00  0.00    +0.000 P 
ENDROOT
BRANCH   1   2
ATOM      2  C   UNL     1      -0.557  10.568  20.529  0.00  0.00    +0.000 A 
ATOM      3  C   UNL     1      -0.782  11.509  21.552  0.00  0.00    +0.000 A 
ATOM      4  C   UNL     1      -0.805  11.144  22.897  0.00  0.00    +0.000 A 
ATOM      5  C   UNL     1      -0.585   9.820  23.252  0.00  0.00    +0.000 A 
ATOM      6  C   UNL     1      -0.361   8.868  22.261  0.00  0.00    +0.000 A 
ATOM      7  C   UNL     1      -0.349   9.239  20.908  0.00  0.00    +0.000 A 
ENDBRANCH   1   2
BRANCH   1   8
ATOM      8  C   UNL     1       0.349  12.672  18.653  0.00  0.00    +0.000 A 
ATOM      9  C   UNL     1       1.732  12.746  18.440  0.00  0.00    +0.000 A 
ATOM     10  C   UNL     1       2.400  13.973  18.477  0.00  0.00    +0.000 A 
ATOM     11  C   UNL     1       1.694  15.149  18.705  0.00  0.00    +0.000 A 
ATOM     12  C   UNL     1       0.312  15.104  18.850  0.00  0.00    +0.000 A 
ATOM     13  C   UNL     1      -0.355  13.877  18.800  0.00  0.00    +0.000 A 
ENDBRANCH   1   8
BRANCH   1  14
ATOM     14  C   UNL     1      -2.077  11.132  18.040  0.00  0.00    +0.000 A 
ATOM     15  C   UNL     1      -2.258  10.665  16.729  0.00  0.00    +0.000 A 
ATOM     16  C   UNL     1      -3.495  10.764  16.094  0.00  0.00    +0.000 A 
ATOM     17  C   UNL     1      -4.578  11.320  16.767  0.00  0.00    +0.000 A 
ATOM     18  C   UNL     1      -4.425  11.760  18.080  0.00  0.00    +0.000 A 
ATOM     19  C   UNL     1      -3.184  11.663  18.712  0.00  0.00    +0.000 A 
ENDBRANCH   1  14
BRANCH   1  20
ATOM     20  C   UNL     1       0.527   9.802  17.920  0.00  0.00    +0.000 C 
BRANCH  20  21
ATOM     21  C   UNL     1       1.805   9.497  18.675  0.00  0.00    +0.000 C 
BRANCH  21  22
ATOM     22  C   UNL     1       2.730   8.439  18.108  0.00  0.00    +0.000 C 
BRANCH  22  30
ATOM     23  C   UNL     1       3.714   3.171  17.893  0.00  0.00    +0.000 A 
ATOM     24  C   UNL     1       4.051   4.118  16.945  0.00  0.00    +0.000 A 
ATOM     25  C   UNL     1       3.737   5.462  17.133  0.00  0.00    +0.000 A 
ATOM     26  C   UNL     1       3.071   5.883  18.298  0.00  0.00    +0.000 A 
ATOM     27  C   UNL     1       2.725   4.937  19.272  0.00  0.00    +0.000 A 
ATOM     28  C   UNL     1       2.074   5.639  20.323  0.00  0.00    +0.000 A 
ATOM     29  C   UNL     1       2.034   6.969  19.979  0.00  0.00    +0.000 A 
ATOM     30  N   UNL     1       2.635   7.121  18.748  0.00  0.00    +0.000 N 
ATOM     31  C   UNL     1       3.051   3.575  19.061  0.00  0.00    +0.000 A 
BRANCH  23  33
ATOM     32  C   UNL     1       3.739   1.051  18.953  0.00  0.00    +0.000 C 
ATOM     33  O   UNL     1       3.979   1.831  17.783  0.00  0.00    +0.000 OA
ENDBRANCH  23  33
ENDBRANCH  22  30
ENDBRANCH  21  22
ENDBRANCH  20  21
ENDBRANCH   1  20
TORSDOF 8
ENDMDL
MODEL 7
REMARK VINA RESULT:      -7.6      3.999      9.858
REMARK  Name = 
REMARK  9 active torsions:
REMARK  status: ('A' for Active; 'I' for Inactive)
REMARK    1  A    between atoms: C_1  and  O_2
REMARK    2  A    between atoms: O_2  and  C_3
REMARK    3  A    between atoms: N_10  and  C_11
REMARK    4  A    between atoms: C_11  and  C_12
REMARK    5  A    between atoms: C_12  and  C_13
REMARK    6  A    between atoms: C_13  and  P_14
REMARK    7  A    between atoms: P_14  and  C_15
REMARK    8  A    between atoms: P_14  and  C_21
REMARK    9  A    between atoms: P_14  and  C_27
REMARK                            x       y       z     vdW  Elec       q    Type
REMARK                         _______ _______ _______ _____ _____    ______ ____
ROOT
ATOM      1  P   UNL     1       5.247   5.357  16.692  0.00  0.00    +0.000 P 
ENDROOT
BRANCH   1   2
ATOM      2  C   UNL     1       4.366   4.063  17.563  0.00  0.00    +0.000 A 
ATOM      3  C   UNL     1       3.141   3.574  17.070  0.00  0.00    +0.000 A 
ATOM      4  C   UNL     1       2.410   2.598  17.747  0.00  0.00    +0.000 A 
ATOM      5  C   UNL     1       2.886   2.100  18.952  0.00  0.00    +0.000 A 
ATOM      6  C   UNL     1       4.095   2.564  19.463  0.00  0.00    +0.000 A 
ATOM      7  C   UNL     1       4.832   3.539  18.772  0.00  0.00    +0.000 A 
ENDBRANCH   1   2
BRANCH   1   8
ATOM      8  C   UNL     1       5.842   4.779  15.098  0.00  0.00    +0.000 A 
ATOM      9  C   UNL     1       7.103   5.155  14.618  0.00  0.00    +0.000 A 
ATOM     10  C   UNL     1       7.499   4.844  13.315  0.00  0.00    +0.000 A 
ATOM     11  C   UNL     1       6.651   4.129  12.477  0.00  0.00    +0.000 A 
ATOM     12  C   UNL     1       5.423   3.686  12.956  0.00  0.00    +0.000 A 
ATOM     13  C   UNL     1       5.035   3.989  14.264  0.00  0.00    +0.000 A 
ENDBRANCH   1   8
BRANCH   1  14
ATOM     14  C   UNL     1       6.582   6.039  17.647  0.00  0.00    +0.000 A 
ATOM     15  C   UNL     1       7.140   5.325  18.719  0.00  0.00    +0.000 A 
ATOM     16  C   UNL     1       8.141   5.885  19.513  0.00  0.00    +0.000 A 
ATOM     17  C   UNL     1       8.610   7.165  19.238  0.00  0.00    +0.000 A 
ATOM     18  C   UNL     1       8.088   7.876  18.159  0.00  0.00    +0.000 A 
ATOM     19  C   UNL     1       7.085   7.314  17.367  0.00  0.00    +0.000 A 
ENDBRANCH   1  14
BRANCH   1  20
ATOM     20  C   UNL     1       4.024   6.728  16.403  0.00  0.00    +0.000 C 
BRANCH  20  21
ATOM     21  C   UNL     1       3.675   7.419  17.706  0.00  0.00    +0.000 C 
BRANCH  21  22
ATOM     22  C   UNL     1       2.234   7.366  18.174  0.00  0.00    +0.000 C 
BRANCH  22  30
ATOM     23  C   UNL     1       0.103  10.150  22.234  0.00  0.00    +0.000 A 
ATOM     24  C   UNL     1       0.518   8.832  22.258  0.00  0.00    +0.000 A 
ATOM     25  C   UNL     1       1.062   8.232  21.125  0.00  0.00    +0.000 A 
ATOM     26  C   UNL     1       1.203   8.961  19.930  0.00  0.00    +0.000 A 
ATOM     27  C   UNL     1       0.792  10.300  19.888  0.00  0.00    +0.000 A 
ATOM     28  C   UNL     1       1.051  10.775  18.574  0.00  0.00    +0.000 A 
ATOM     29  C   UNL     1       1.603   9.742  17.854  0.00  0.00    +0.000 A 
ATOM     30  N   UNL     1       1.693   8.637  18.673  0.00  0.00    +0.000 N 
ATOM     31  C   UNL     1       0.239  10.890  21.050  0.00  0.00    +0.000 A 
BRANCH  23  33
ATOM     32  C   UNL     1      -1.403  11.822  22.979  0.00  0.00    +0.000 C 
ATOM     33  O   UNL     1      -0.448  10.813  23.299  0.00  0.00    +0.000 OA
ENDBRANCH  23  33
ENDBRANCH  22  30
ENDBRANCH  21  22
ENDBRANCH  20  21
ENDBRANCH   1  20
TORSDOF 8
ENDMDL
MODEL 8
REMARK VINA RESULT:      -7.6      2.091      3.345
REMARK  Name = 
REMARK  9 active torsions:
REMARK  status: ('A' for Active; 'I' for Inactive)
REMARK    1  A    between atoms: C_1  and  O_2
REMARK    2  A    between atoms: O_2  and  C_3
REMARK    3  A    between atoms: N_10  and  C_11
REMARK    4  A    between atoms: C_11  and  C_12
REMARK    5  A    between atoms: C_12  and  C_13
REMARK    6  A    between atoms: C_13  and  P_14
REMARK    7  A    between atoms: P_14  and  C_15
REMARK    8  A    between atoms: P_14  and  C_21
REMARK    9  A    between atoms: P_14  and  C_27
REMARK                            x       y       z     vdW  Elec       q    Type
REMARK                         _______ _______ _______ _____ _____    ______ ____
ROOT
ATOM      1  P   UNL     1       0.427  10.842  19.075  0.00  0.00    +0.000 P 
ENDROOT
BRANCH   1   2
ATOM      2  C   UNL     1       1.074  12.506  18.926  0.00  0.00    +0.000 A 
ATOM      3  C   UNL     1       0.322  13.609  19.375  0.00  0.00    +0.000 A 
ATOM      4  C   UNL     1       0.779  14.918  19.233  0.00  0.00    +0.000 A 
ATOM      5  C   UNL     1       2.001  15.155  18.618  0.00  0.00    +0.000 A 
ATOM      6  C   UNL     1       2.766  14.083  18.166  0.00  0.00    +0.000 A 
ATOM      7  C   UNL     1       2.306  12.766  18.321  0.00  0.00    +0.000 A 
ENDBRANCH   1   2
BRANCH   1   8
ATOM      8  C   UNL     1      -1.149  10.678  18.228  0.00  0.00    +0.000 A 
ATOM      9  C   UNL     1      -1.312   9.766  17.177  0.00  0.00    +0.000 A 
ATOM     10  C   UNL     1      -2.480   9.752  16.411  0.00  0.00    +0.000 A 
ATOM     11  C   UNL     1      -3.517  10.635  16.699  0.00  0.00    +0.000 A 
ATOM     12  C   UNL     1      -3.402  11.501  17.780  0.00  0.00    +0.000 A 
ATOM     13  C   UNL     1      -2.237  11.503  18.552  0.00  0.00    +0.000 A 
ENDBRANCH   1   8
BRANCH   1  14
ATOM     14  C   UNL     1       0.285  10.311  20.766  0.00  0.00    +0.000 A 
ATOM     15  C   UNL     1      -0.772  10.755  21.575  0.00  0.00    +0.000 A 
ATOM     16  C   UNL     1      -0.848  10.396  22.921  0.00  0.00    +0.000 A 
ATOM     17  C   UNL     1       0.127   9.573  23.476  0.00  0.00    +0.000 A 
ATOM     18  C   UNL     1       1.166   9.098  22.679  0.00  0.00    +0.000 A 
ATOM     19  C   UNL     1       1.242   9.462  21.333  0.00  0.00    +0.000 A 
ENDBRANCH   1  14
BRANCH   1  20
ATOM     20  C   UNL     1       1.660   9.719  18.251  0.00  0.00    +0.000 C 
BRANCH  20  21
ATOM     21  C   UNL     1       1.319   8.265  18.509  0.00  0.00    +0.000 C 
BRANCH  21  22
ATOM     22  C   UNL     1       2.361   7.402  19.193  0.00  0.00    +0.000 C 
BRANCH  22  30
ATOM     23  C   UNL     1       5.873   5.072  15.876  0.00  0.00    +0.000 A 
ATOM     24  C   UNL     1       5.931   6.359  16.377  0.00  0.00    +0.000 A 
ATOM     25  C   UNL     1       4.947   6.836  17.239  0.00  0.00    +0.000 A 
ATOM     26  C   UNL     1       3.873   6.013  17.622  0.00  0.00    +0.000 A 
ATOM     27  C   UNL     1       3.800   4.703  17.128  0.00  0.00    +0.000 A 
ATOM     28  C   UNL     1       2.628   4.115  17.676  0.00  0.00    +0.000 A 
ATOM     29  C   UNL     1       2.020   5.053  18.475  0.00  0.00    +0.000 A 
ATOM     30  N   UNL     1       2.772   6.209  18.442  0.00  0.00    +0.000 N 
ATOM     31  C   UNL     1       4.810   4.238  16.250  0.00  0.00    +0.000 A 
BRANCH  23  33
ATOM     32  C   UNL     1       6.261   3.828  13.896  0.00  0.00    +0.000 C 
ATOM     33  O   UNL     1       6.794   4.528  15.019  0.00  0.00    +0.000 OA
ENDBRANCH  23  33
ENDBRANCH  22  30
ENDBRANCH  21  22
ENDBRANCH  20  21
ENDBRANCH   1  20
TORSDOF 8
ENDMDL
MODEL 9
REMARK VINA RESULT:      -7.6      1.679      4.218
REMARK  Name = 
REMARK  9 active torsions:
REMARK  status: ('A' for Active; 'I' for Inactive)
REMARK    1  A    between atoms: C_1  and  O_2
REMARK    2  A    between atoms: O_2  and  C_3
REMARK    3  A    between atoms: N_10  and  C_11
REMARK    4  A    between atoms: C_11  and  C_12
REMARK    5  A    between atoms: C_12  and  C_13
REMARK    6  A    between atoms: C_13  and  P_14
REMARK    7  A    between atoms: P_14  and  C_15
REMARK    8  A    between atoms: P_14  and  C_21
REMARK    9  A    between atoms: P_14  and  C_27
REMARK                            x       y       z     vdW  Elec       q    Type
REMARK                         _______ _______ _______ _____ _____    ______ ____
ROOT
ATOM      1  P   UNL     1      -0.678  11.265  18.823  0.00  0.00    +0.000 P 
ENDROOT
BRANCH   1   2
ATOM      2  C   UNL     1      -0.731  10.758  20.541  0.00  0.00    +0.000 A 
ATOM      3  C   UNL     1      -0.978  11.699  21.558  0.00  0.00    +0.000 A 
ATOM      4  C   UNL     1      -0.982  11.344  22.906  0.00  0.00    +0.000 A 
ATOM      5  C   UNL     1      -0.720  10.030  23.269  0.00  0.00    +0.000 A 
ATOM      6  C   UNL     1      -0.474   9.077  22.284  0.00  0.00    +0.000 A 
ATOM      7  C   UNL     1      -0.481   9.438  20.928  0.00  0.00    +0.000 A 
ENDBRANCH   1   2
BRANCH   1   8
ATOM      8  C   UNL     1       0.267  12.780  18.622  0.00  0.00    +0.000 A 
ATOM      9  C   UNL     1       1.658  12.747  18.464  0.00  0.00    +0.000 A 
ATOM     10  C   UNL     1       2.411  13.924  18.473  0.00  0.00    +0.000 A 
ATOM     11  C   UNL     1       1.783  15.157  18.614  0.00  0.00    +0.000 A 
ATOM     12  C   UNL     1       0.396  15.216  18.702  0.00  0.00    +0.000 A 
ATOM     13  C   UNL     1      -0.354  14.038  18.682  0.00  0.00    +0.000 A 
ENDBRANCH   1   8
BRANCH   1  14
ATOM     14  C   UNL     1      -2.297  11.439  18.111  0.00  0.00    +0.000 A 
ATOM     15  C   UNL     1      -3.387  11.860  18.889  0.00  0.00    +0.000 A 
ATOM     16  C   UNL     1      -4.671  11.931  18.350  0.00  0.00    +0.000 A 
ATOM     17  C   UNL     1      -4.884  11.597  17.017  0.00  0.00    +0.000 A 
ATOM     18  C   UNL     1      -3.808  11.207  16.221  0.00  0.00    +0.000 A 
ATOM     19  C   UNL     1      -2.524  11.133  16.764  0.00  0.00    +0.000 A 
ENDBRANCH   1  14
BRANCH   1  20
ATOM     20  C   UNL     1       0.185   9.904  17.896  0.00  0.00    +0.000 C 
BRANCH  20  21
ATOM     21  C   UNL     1       1.645   9.826  18.292  0.00  0.00    +0.000 C 
BRANCH  21  22
ATOM     22  C   UNL     1       2.436   8.608  17.856  0.00  0.00    +0.000 C 
BRANCH  22  30
ATOM     23  C   UNL     1       3.778   3.532  18.956  0.00  0.00    +0.000 A 
ATOM     24  C   UNL     1       4.039   4.226  17.789  0.00  0.00    +0.000 A 
ATOM     25  C   UNL     1       3.635   5.550  17.639  0.00  0.00    +0.000 A 
ATOM     26  C   UNL     1       2.954   6.211  18.678  0.00  0.00    +0.000 A 
ATOM     27  C   UNL     1       2.684   5.524  19.870  0.00  0.00    +0.000 A 
ATOM     28  C   UNL     1       1.997   6.428  20.726  0.00  0.00    +0.000 A 
ATOM     29  C   UNL     1       1.862   7.621  20.057  0.00  0.00    +0.000 A 
ATOM     30  N   UNL     1       2.439   7.492  18.811  0.00  0.00    +0.000 N 
ATOM     31  C   UNL     1       3.101   4.178  20.001  0.00  0.00    +0.000 A 
BRANCH  23  33
ATOM     32  C   UNL     1       3.663   1.280  18.226  0.00  0.00    +0.000 C 
ATOM     33  O   UNL     1       4.133   2.228  19.182  0.00  0.00    +0.000 OA
ENDBRANCH  23  33
ENDBRANCH  22  30
ENDBRANCH  21  22
ENDBRANCH  20  21
ENDBRANCH   1  20
TORSDOF 8
ENDMDL
