MODEL 1
REMARK VINA RESULT:      -7.6      0.000      0.000
REMARK  Name = 
REMARK  14 active torsions:
REMARK  status: ('A' for Active; 'I' for Inactive)
REMARK    1  A    between atoms: C_1  and  O_2
REMARK    2  A    between atoms: O_2  and  C_3
REMARK    3  A    between atoms: C_3  and  C_5
REMARK    4  A    between atoms: C_5  and  N_22
REMARK    5  A    between atoms: C_6  and  C_7
REMARK    6  A    between atoms: C_10  and  N_11
REMARK    7  A    between atoms: N_11  and  C_12
REMARK    8  A    between atoms: N_11  and  C_16
REMARK    9  A    between atoms: C_12  and  C_13
REMARK   10  A    between atoms: C_13  and  C_14
REMARK   11  A    between atoms: C_16  and  C_17
REMARK   12  A    between atoms: C_17  and  C_18
REMARK   13  A    between atoms: C_23  and  C_25
REMARK   14  A    between atoms: C_27  and  N_28
REMARK                            x       y       z     vdW  Elec       q    Type
REMARK                         _______ _______ _______ _____ _____    ______ ____
ROOT
ATOM      1  C   UNL     1       0.616   9.808  19.934  0.00  0.00    +0.000 C 
ATOM      2  C   UNL     1       1.000   8.660  20.525  0.00  0.00    +0.000 C 
ENDROOT
BRANCH   2   3
ATOM      3  C   UNL     1       1.821   7.588  19.988  0.00  0.00    +0.000 A 
ATOM      4  C   UNL     1       1.856   6.369  20.659  0.00  0.00    +0.000 A 
ATOM      5  C   UNL     1       2.630   5.326  20.162  0.00  0.00    +0.000 A 
ATOM      6  C   UNL     1       3.350   5.447  18.964  0.00  0.00    +0.000 A 
ATOM      7  C   UNL     1       3.272   6.685  18.301  0.00  0.00    +0.000 A 
ATOM      8  C   UNL     1       2.532   7.754  18.807  0.00  0.00    +0.000 A 
BRANCH   6   9
ATOM      9  N   UNL     1       4.111   4.389  18.476  0.00  0.00    +0.000 N 
BRANCH   9  10
ATOM     10  C   UNL     1       5.371   4.656  17.751  0.00  0.00    +0.000 C 
BRANCH  10  11
ATOM     11  C   UNL     1       5.258   4.464  16.235  0.00  0.00    +0.000 C 
BRANCH  11  12
ATOM     12  C   UNL     1       6.457   4.936  15.535  0.00  0.00    +0.000 C 
ATOM     13  N   UNL     1       7.412   5.310  14.990  0.00  0.00    +0.000 NA
ENDBRANCH  11  12
ENDBRANCH  10  11
ENDBRANCH   9  10
BRANCH   9  14
ATOM     14  C   UNL     1       3.870   3.007  18.922  0.00  0.00    +0.000 C 
BRANCH  14  15
ATOM     15  C   UNL     1       3.002   2.210  17.949  0.00  0.00    +0.000 C 
BRANCH  15  16
ATOM     16  C   UNL     1       1.534   2.274  18.337  0.00  0.00    +0.000 C 
ATOM     17  N   UNL     1       0.316   2.327  18.659  0.00  0.00    +0.000 NA
ENDBRANCH  15  16
ENDBRANCH  14  15
ENDBRANCH   9  14
ENDBRANCH   6   9
ENDBRANCH   2   3
BRANCH   1  18
ATOM     18  N   UNL     1      -0.110  10.789  20.618  0.00  0.00    +0.000 N 
ATOM     19  C   UNL     1      -0.137  10.999  21.984  0.00  0.00    +0.000 C 
ATOM     20  O   UNL     1       0.477  10.337  22.817  0.00  0.00    +0.000 OA
ATOM     21  H   UNL     1      -0.634  11.419  20.012  0.00  0.00    +0.000 HD
BRANCH  19  22
ATOM     22  C   UNL     1      -0.905  12.141  22.533  0.00  0.00    +0.000 A 
ATOM     23  C   UNL     1      -2.152  11.800  23.104  0.00  0.00    +0.000 A 
ATOM     24  C   UNL     1      -3.038  12.793  23.527  0.00  0.00    +0.000 A 
ATOM     25  C   UNL     1      -2.679  14.139  23.420  0.00  0.00    +0.000 A 
ATOM     26  C   UNL     1      -1.433  14.479  22.879  0.00  0.00    +0.000 A 
ATOM     27  C   UNL     1      -0.547  13.489  22.426  0.00  0.00    +0.000 A 
ATOM     28 CL   UNL     1       0.919  14.028  21.694  0.00  0.00    +0.000 Cl
BRANCH  24  29
ATOM     29  N   UNL     1      -4.362  12.418  24.040  0.00  0.00    +0.000 N 
ATOM     30  O   UNL     1      -4.467  12.182  25.252  0.00  0.00    +0.000 OA
ATOM     31  O   UNL     1      -5.293  12.356  23.227  0.00  0.00    +0.000 OA
ENDBRANCH  24  29
ENDBRANCH  19  22
ENDBRANCH   1  18
BRANCH   1  32
ATOM     32  C   UNL     1       0.900  10.138  18.484  0.00  0.00    +0.000 C 
ATOM     33  O   UNL     1       1.857  10.829  18.158  0.00  0.00    +0.000 OA
BRANCH  32  35
ATOM     34  C   UNL     1      -1.307  10.061  17.574  0.00  0.00    +0.000 C 
ATOM     35  O   UNL     1       0.025   9.550  17.638  0.00  0.00    +0.000 OA
ENDBRANCH  32  35
ENDBRANCH   1  32
TORSDOF 13
ENDMDL
MODEL 2
REMARK VINA RESULT:      -7.6      1.686      2.473
REMARK  Name = 
REMARK  14 active torsions:
REMARK  status: ('A' for Active; 'I' for Inactive)
REMARK    1  A    between atoms: C_1  and  O_2
REMARK    2  A    between atoms: O_2  and  C_3
REMARK    3  A    between atoms: C_3  and  C_5
REMARK    4  A    between atoms: C_5  and  N_22
REMARK    5  A    between atoms: C_6  and  C_7
REMARK    6  A    between atoms: C_10  and  N_11
REMARK    7  A    between atoms: N_11  and  C_12
REMARK    8  A    between atoms: N_11  and  C_16
REMARK    9  A    between atoms: C_12  and  C_13
REMARK   10  A    between atoms: C_13  and  C_14
REMARK   11  A    between atoms: C_16  and  C_17
REMARK   12  A    between atoms: C_17  and  C_18
REMARK   13  A    between atoms: C_23  and  C_25
REMARK   14  A    between atoms: C_27  and  N_28
REMARK                            x       y       z     vdW  Elec       q    Type
REMARK                         _______ _______ _______ _____ _____    ______ ____
ROOT
ATOM      1  C   UNL     1       0.131  11.609  20.631  0.00  0.00    +0.000 C 
ATOM      2  C   UNL     1      -0.124  10.325  20.312  0.00  0.00    +0.000 C 
ENDROOT
BRANCH   2   3
ATOM      3  C   UNL     1       0.760   9.344  19.706  0.00  0.00    +0.000 A 
ATOM      4  C   UNL     1       1.044   9.447  18.347  0.00  0.00    +0.000 A 
ATOM      5  C   UNL     1       1.891   8.523  17.743  0.00  0.00    +0.000 A 
ATOM      6  C   UNL     1       2.517   7.505  18.478  0.00  0.00    +0.000 A 
ATOM      7  C   UNL     1       2.225   7.447  19.853  0.00  0.00    +0.000 A 
ATOM      8  C   UNL     1       1.346   8.341  20.466  0.00  0.00    +0.000 A 
BRANCH   6   9
ATOM      9  N   UNL     1       3.370   6.596  17.861  0.00  0.00    +0.000 N 
BRANCH   9  10
ATOM     10  C   UNL     1       4.574   7.075  17.150  0.00  0.00    +0.000 C 
BRANCH  10  11
ATOM     11  C   UNL     1       5.870   6.410  17.624  0.00  0.00    +0.000 C 
BRANCH  11  12
ATOM     12  C   UNL     1       6.670   5.911  16.501  0.00  0.00    +0.000 C 
ATOM     13  N   UNL     1       7.297   5.507  15.611  0.00  0.00    +0.000 NA
ENDBRANCH  11  12
ENDBRANCH  10  11
ENDBRANCH   9  10
BRANCH   9  14
ATOM     14  C   UNL     1       3.289   5.155  18.152  0.00  0.00    +0.000 C 
BRANCH  14  15
ATOM     15  C   UNL     1       1.966   4.532  17.708  0.00  0.00    +0.000 C 
BRANCH  15  16
ATOM     16  C   UNL     1       1.754   3.169  18.347  0.00  0.00    +0.000 C 
ATOM     17  N   UNL     1       1.578   2.038  18.877  0.00  0.00    +0.000 NA
ENDBRANCH  15  16
ENDBRANCH  14  15
ENDBRANCH   9  14
ENDBRANCH   6   9
ENDBRANCH   2   3
BRANCH   1  18
ATOM     18  N   UNL     1      -0.805  12.409  21.295  0.00  0.00    +0.000 N 
ATOM     19  C   UNL     1      -1.165  12.331  22.628  0.00  0.00    +0.000 C 
ATOM     20  O   UNL     1      -0.716  11.526  23.440  0.00  0.00    +0.000 OA
ATOM     21  H   UNL     1      -1.218  13.138  20.715  0.00  0.00    +0.000 HD
BRANCH  19  22
ATOM     22  C   UNL     1      -2.122  13.315  23.185  0.00  0.00    +0.000 A 
ATOM     23  C   UNL     1      -3.444  12.841  23.337  0.00  0.00    +0.000 A 
ATOM     24  C   UNL     1      -4.473  13.705  23.715  0.00  0.00    +0.000 A 
ATOM     25  C   UNL     1      -4.194  15.047  23.982  0.00  0.00    +0.000 A 
ATOM     26  C   UNL     1      -2.880  15.515  23.857  0.00  0.00    +0.000 A 
ATOM     27  C   UNL     1      -1.843  14.660  23.452  0.00  0.00    +0.000 A 
ATOM     28 CL   UNL     1      -0.284  15.367  23.244  0.00  0.00    +0.000 Cl
BRANCH  24  29
ATOM     29  N   UNL     1      -5.853  13.207  23.785  0.00  0.00    +0.000 N 
ATOM     30  O   UNL     1      -6.749  13.919  23.311  0.00  0.00    +0.000 OA
ATOM     31  O   UNL     1      -6.037  12.105  24.320  0.00  0.00    +0.000 OA
ENDBRANCH  24  29
ENDBRANCH  19  22
ENDBRANCH   1  18
BRANCH   1  32
ATOM     32  C   UNL     1       1.423  12.317  20.282  0.00  0.00    +0.000 C 
ATOM     33  O   UNL     1       2.278  12.548  21.129  0.00  0.00    +0.000 OA
BRANCH  32  35
ATOM     34  C   UNL     1       2.622  13.389  18.517  0.00  0.00    +0.000 C 
ATOM     35  O   UNL     1       1.520  12.598  18.964  0.00  0.00    +0.000 OA
ENDBRANCH  32  35
ENDBRANCH   1  32
TORSDOF 13
ENDMDL
MODEL 3
REMARK VINA RESULT:      -7.5      1.688      3.558
REMARK  Name = 
REMARK  14 active torsions:
REMARK  status: ('A' for Active; 'I' for Inactive)
REMARK    1  A    between atoms: C_1  and  O_2
REMARK    2  A    between atoms: O_2  and  C_3
REMARK    3  A    between atoms: C_3  and  C_5
REMARK    4  A    between atoms: C_5  and  N_22
REMARK    5  A    between atoms: C_6  and  C_7
REMARK    6  A    between atoms: C_10  and  N_11
REMARK    7  A    between atoms: N_11  and  C_12
REMARK    8  A    between atoms: N_11  and  C_16
REMARK    9  A    between atoms: C_12  and  C_13
REMARK   10  A    between atoms: C_13  and  C_14
REMARK   11  A    between atoms: C_16  and  C_17
REMARK   12  A    between atoms: C_17  and  C_18
REMARK   13  A    between atoms: C_23  and  C_25
REMARK   14  A    between atoms: C_27  and  N_28
REMARK                            x       y       z     vdW  Elec       q    Type
REMARK                         _______ _______ _______ _____ _____    ______ ____
ROOT
ATOM      1  C   UNL     1       0.052  11.530  20.423  0.00  0.00    +0.000 C 
ATOM      2  C   UNL     1      -0.109  10.216  20.177  0.00  0.00    +0.000 C 
ENDROOT
BRANCH   2   3
ATOM      3  C   UNL     1       0.831   9.278  19.587  0.00  0.00    +0.000 A 
ATOM      4  C   UNL     1       1.363   8.269  20.385  0.00  0.00    +0.000 A 
ATOM      5  C   UNL     1       2.261   7.356  19.842  0.00  0.00    +0.000 A 
ATOM      6  C   UNL     1       2.617   7.388  18.486  0.00  0.00    +0.000 A 
ATOM      7  C   UNL     1       2.042   8.406  17.704  0.00  0.00    +0.000 A 
ATOM      8  C   UNL     1       1.170   9.354  18.243  0.00  0.00    +0.000 A 
BRANCH   6   9
ATOM      9  N   UNL     1       3.508   6.459  17.957  0.00  0.00    +0.000 N 
BRANCH   9  10
ATOM     10  C   UNL     1       3.060   5.081  17.671  0.00  0.00    +0.000 C 
BRANCH  10  11
ATOM     11  C   UNL     1       3.351   4.094  18.807  0.00  0.00    +0.000 C 
BRANCH  11  12
ATOM     12  C   UNL     1       2.120   3.630  19.455  0.00  0.00    +0.000 C 
ATOM     13  N   UNL     1       1.147   3.270  19.976  0.00  0.00    +0.000 NA
ENDBRANCH  11  12
ENDBRANCH  10  11
ENDBRANCH   9  10
BRANCH   9  14
ATOM     14  C   UNL     1       4.796   6.882  17.381  0.00  0.00    +0.000 C 
BRANCH  14  15
ATOM     15  C   UNL     1       5.193   6.067  16.151  0.00  0.00    +0.000 C 
BRANCH  15  16
ATOM     16  C   UNL     1       6.507   5.335  16.372  0.00  0.00    +0.000 C 
ATOM     17  N   UNL     1       7.597   4.728  16.555  0.00  0.00    +0.000 NA
ENDBRANCH  15  16
ENDBRANCH  14  15
ENDBRANCH   9  14
ENDBRANCH   6   9
ENDBRANCH   2   3
BRANCH   1  18
ATOM     18  N   UNL     1      -0.924  12.287  21.081  0.00  0.00    +0.000 N 
ATOM     19  C   UNL     1      -1.186  12.301  22.438  0.00  0.00    +0.000 C 
ATOM     20  O   UNL     1      -0.599  11.629  23.283  0.00  0.00    +0.000 OA
ATOM     21  H   UNL     1      -1.452  12.909  20.470  0.00  0.00    +0.000 HD
BRANCH  19  22
ATOM     22  C   UNL     1      -2.210  13.227  22.975  0.00  0.00    +0.000 A 
ATOM     23  C   UNL     1      -3.530  12.723  22.973  0.00  0.00    +0.000 A 
ATOM     24  C   UNL     1      -4.607  13.542  23.318  0.00  0.00    +0.000 A 
ATOM     25  C   UNL     1      -4.381  14.866  23.702  0.00  0.00    +0.000 A 
ATOM     26  C   UNL     1      -3.072  15.361  23.730  0.00  0.00    +0.000 A 
ATOM     27  C   UNL     1      -1.985  14.553  23.360  0.00  0.00    +0.000 A 
ATOM     28 CL   UNL     1      -0.429  15.298  23.343  0.00  0.00    +0.000 Cl
BRANCH  24  29
ATOM     29  N   UNL     1      -5.977  13.019  23.228  0.00  0.00    +0.000 N 
ATOM     30  O   UNL     1      -6.838  13.527  23.960  0.00  0.00    +0.000 OA
ATOM     31  O   UNL     1      -6.186  12.099  22.428  0.00  0.00    +0.000 OA
ENDBRANCH  24  29
ENDBRANCH  19  22
ENDBRANCH   1  18
BRANCH   1  32
ATOM     32  C   UNL     1       1.270  12.320  19.993  0.00  0.00    +0.000 C 
ATOM     33  O   UNL     1       1.450  12.638  18.824  0.00  0.00    +0.000 OA
BRANCH  32  35
ATOM     34  C   UNL     1       2.452  14.021  21.181  0.00  0.00    +0.000 C 
ATOM     35  O   UNL     1       2.064  12.655  21.034  0.00  0.00    +0.000 OA
ENDBRANCH  32  35
ENDBRANCH   1  32
TORSDOF 13
ENDMDL
MODEL 4
REMARK VINA RESULT:      -7.5      2.136      2.827
REMARK  Name = 
REMARK  14 active torsions:
REMARK  status: ('A' for Active; 'I' for Inactive)
REMARK    1  A    between atoms: C_1  and  O_2
REMARK    2  A    between atoms: O_2  and  C_3
REMARK    3  A    between atoms: C_3  and  C_5
REMARK    4  A    between atoms: C_5  and  N_22
REMARK    5  A    between atoms: C_6  and  C_7
REMARK    6  A    between atoms: C_10  and  N_11
REMARK    7  A    between atoms: N_11  and  C_12
REMARK    8  A    between atoms: N_11  and  C_16
REMARK    9  A    between atoms: C_12  and  C_13
REMARK   10  A    between atoms: C_13  and  C_14
REMARK   11  A    between atoms: C_16  and  C_17
REMARK   12  A    between atoms: C_17  and  C_18
REMARK   13  A    between atoms: C_23  and  C_25
REMARK   14  A    between atoms: C_27  and  N_28
REMARK                            x       y       z     vdW  Elec       q    Type
REMARK                         _______ _______ _______ _____ _____    ______ ____
ROOT
ATOM      1  C   UNL     1      -0.218  11.529  20.674  0.00  0.00    +0.000 C 
ATOM      2  C   UNL     1      -0.346  10.233  20.329  0.00  0.00    +0.000 C 
ENDROOT
BRANCH   2   3
ATOM      3  C   UNL     1       0.663   9.322  19.816  0.00  0.00    +0.000 A 
ATOM      4  C   UNL     1       1.179   8.346  20.664  0.00  0.00    +0.000 A 
ATOM      5  C   UNL     1       2.143   7.459  20.195  0.00  0.00    +0.000 A 
ATOM      6  C   UNL     1       2.583   7.484  18.864  0.00  0.00    +0.000 A 
ATOM      7  C   UNL     1       2.022   8.468  18.029  0.00  0.00    +0.000 A 
ATOM      8  C   UNL     1       1.084   9.390  18.495  0.00  0.00    +0.000 A 
BRANCH   6   9
ATOM      9  N   UNL     1       3.539   6.582  18.408  0.00  0.00    +0.000 N 
BRANCH   9  10
ATOM     10  C   UNL     1       4.309   6.874  17.182  0.00  0.00    +0.000 C 
BRANCH  10  11
ATOM     11  C   UNL     1       5.700   6.233  17.164  0.00  0.00    +0.000 C 
BRANCH  11  12
ATOM     12  C   UNL     1       6.766   7.239  17.223  0.00  0.00    +0.000 C 
ATOM     13  N   UNL     1       7.612   8.032  17.280  0.00  0.00    +0.000 NA
ENDBRANCH  11  12
ENDBRANCH  10  11
ENDBRANCH   9  10
BRANCH   9  14
ATOM     14  C   UNL     1       4.033   5.494  19.270  0.00  0.00    +0.000 C 
BRANCH  14  15
ATOM     15  C   UNL     1       3.358   4.154  18.983  0.00  0.00    +0.000 C 
BRANCH  15  16
ATOM     16  C   UNL     1       4.120   3.003  19.619  0.00  0.00    +0.000 C 
ATOM     17  N   UNL     1       4.752   2.048  20.146  0.00  0.00    +0.000 NA
ENDBRANCH  15  16
ENDBRANCH  14  15
ENDBRANCH   9  14
ENDBRANCH   6   9
ENDBRANCH   2   3
BRANCH   1  18
ATOM     18  N   UNL     1      -1.271  12.255  21.238  0.00  0.00    +0.000 N 
ATOM     19  C   UNL     1      -1.899  12.004  22.445  0.00  0.00    +0.000 C 
ATOM     20  O   UNL     1      -1.626  11.082  23.210  0.00  0.00    +0.000 OA
ATOM     21  H   UNL     1      -1.557  13.069  20.694  0.00  0.00    +0.000 HD
BRANCH  19  22
ATOM     22  C   UNL     1      -2.951  12.928  22.927  0.00  0.00    +0.000 A 
ATOM     23  C   UNL     1      -4.265  12.597  22.526  0.00  0.00    +0.000 A 
ATOM     24  C   UNL     1      -5.331  13.460  22.790  0.00  0.00    +0.000 A 
ATOM     25  C   UNL     1      -5.109  14.648  23.489  0.00  0.00    +0.000 A 
ATOM     26  C   UNL     1      -3.812  14.967  23.911  0.00  0.00    +0.000 A 
ATOM     27  C   UNL     1      -2.730  14.119  23.627  0.00  0.00    +0.000 A 
ATOM     28 CL   UNL     1      -1.166  14.659  24.115  0.00  0.00    +0.000 Cl
BRANCH  24  29
ATOM     29  N   UNL     1      -6.673  13.133  22.290  0.00  0.00    +0.000 N 
ATOM     30  O   UNL     1      -6.956  11.938  22.130  0.00  0.00    +0.000 OA
ATOM     31  O   UNL     1      -7.440  14.076  22.054  0.00  0.00    +0.000 OA
ENDBRANCH  24  29
ENDBRANCH  19  22
ENDBRANCH   1  18
BRANCH   1  32
ATOM     32  C   UNL     1       1.050  12.329  20.463  0.00  0.00    +0.000 C 
ATOM     33  O   UNL     1       1.878  12.469  21.355  0.00  0.00    +0.000 OA
BRANCH  32  35
ATOM     34  C   UNL     1       2.394  13.402  18.806  0.00  0.00    +0.000 C 
ATOM     35  O   UNL     1       1.161  12.799  19.201  0.00  0.00    +0.000 OA
ENDBRANCH  32  35
ENDBRANCH   1  32
TORSDOF 13
ENDMDL
MODEL 5
REMARK VINA RESULT:      -7.4      1.772      3.593
REMARK  Name = 
REMARK  14 active torsions:
REMARK  status: ('A' for Active; 'I' for Inactive)
REMARK    1  A    between atoms: C_1  and  O_2
REMARK    2  A    between atoms: O_2  and  C_3
REMARK    3  A    between atoms: C_3  and  C_5
REMARK    4  A    between atoms: C_5  and  N_22
REMARK    5  A    between atoms: C_6  and  C_7
REMARK    6  A    between atoms: C_10  and  N_11
REMARK    7  A    between atoms: N_11  and  C_12
REMARK    8  A    between atoms: N_11  and  C_16
REMARK    9  A    between atoms: C_12  and  C_13
REMARK   10  A    between atoms: C_13  and  C_14
REMARK   11  A    between atoms: C_16  and  C_17
REMARK   12  A    between atoms: C_17  and  C_18
REMARK   13  A    between atoms: C_23  and  C_25
REMARK   14  A    between atoms: C_27  and  N_28
REMARK                            x       y       z     vdW  Elec       q    Type
REMARK                         _______ _______ _______ _____ _____    ______ ____
ROOT
ATOM      1  C   UNL     1      -0.168  11.500  20.514  0.00  0.00    +0.000 C 
ATOM      2  C   UNL     1      -0.316  10.213  20.147  0.00  0.00    +0.000 C 
ENDROOT
BRANCH   2   3
ATOM      3  C   UNL     1       0.670   9.306  19.585  0.00  0.00    +0.000 A 
ATOM      4  C   UNL     1       1.268   8.365  20.419  0.00  0.00    +0.000 A 
ATOM      5  C   UNL     1       2.212   7.483  19.905  0.00  0.00    +0.000 A 
ATOM      6  C   UNL     1       2.551   7.476  18.544  0.00  0.00    +0.000 A 
ATOM      7  C   UNL     1       1.910   8.424  17.726  0.00  0.00    +0.000 A 
ATOM      8  C   UNL     1       0.990   9.343  18.235  0.00  0.00    +0.000 A 
BRANCH   6   9
ATOM      9  N   UNL     1       3.489   6.578  18.043  0.00  0.00    +0.000 N 
BRANCH   9  10
ATOM     10  C   UNL     1       3.111   5.172  17.795  0.00  0.00    +0.000 C 
BRANCH  10  11
ATOM     11  C   UNL     1       2.565   4.456  19.035  0.00  0.00    +0.000 C 
BRANCH  11  12
ATOM     12  C   UNL     1       1.598   3.412  18.680  0.00  0.00    +0.000 C 
ATOM     13  N   UNL     1       0.839   2.583  18.391  0.00  0.00    +0.000 NA
ENDBRANCH  11  12
ENDBRANCH  10  11
ENDBRANCH   9  10
BRANCH   9  14
ATOM     14  C   UNL     1       4.757   7.048  17.459  0.00  0.00    +0.000 C 
BRANCH  14  15
ATOM     15  C   UNL     1       5.132   6.305  16.178  0.00  0.00    +0.000 C 
BRANCH  15  16
ATOM     16  C   UNL     1       6.420   5.516  16.352  0.00  0.00    +0.000 C 
ATOM     17  N   UNL     1       7.488   4.861  16.497  0.00  0.00    +0.000 NA
ENDBRANCH  15  16
ENDBRANCH  14  15
ENDBRANCH   9  14
ENDBRANCH   6   9
ENDBRANCH   2   3
BRANCH   1  18
ATOM     18  N   UNL     1      -1.199  12.222  21.125  0.00  0.00    +0.000 N 
ATOM     19  C   UNL     1      -1.567  12.177  22.457  0.00  0.00    +0.000 C 
ATOM     20  O   UNL     1      -1.040  11.475  23.316  0.00  0.00    +0.000 OA
ATOM     21  H   UNL     1      -1.685  12.866  20.500  0.00  0.00    +0.000 HD
BRANCH  19  22
ATOM     22  C   UNL     1      -2.638  13.073  22.950  0.00  0.00    +0.000 A 
ATOM     23  C   UNL     1      -3.950  12.687  22.593  0.00  0.00    +0.000 A 
ATOM     24  C   UNL     1      -5.038  13.516  22.870  0.00  0.00    +0.000 A 
ATOM     25  C   UNL     1      -4.840  14.727  23.537  0.00  0.00    +0.000 A 
ATOM     26  C   UNL     1      -3.545  15.101  23.915  0.00  0.00    +0.000 A 
ATOM     27  C   UNL     1      -2.441  14.287  23.617  0.00  0.00    +0.000 A 
ATOM     28 CL   UNL     1      -0.885  14.893  24.049  0.00  0.00    +0.000 Cl
BRANCH  24  29
ATOM     29  N   UNL     1      -6.381  13.131  22.415  0.00  0.00    +0.000 N 
ATOM     30  O   UNL     1      -6.645  11.923  22.351  0.00  0.00    +0.000 OA
ATOM     31  O   UNL     1      -7.167  14.041  22.119  0.00  0.00    +0.000 OA
ENDBRANCH  24  29
ENDBRANCH  19  22
ENDBRANCH   1  18
BRANCH   1  32
ATOM     32  C   UNL     1       1.099  12.296  20.282  0.00  0.00    +0.000 C 
ATOM     33  O   UNL     1       1.947  12.424  21.156  0.00  0.00    +0.000 OA
BRANCH  32  35
ATOM     34  C   UNL     1       2.447  12.717  18.356  0.00  0.00    +0.000 C 
ATOM     35  O   UNL     1       1.185  12.777  19.022  0.00  0.00    +0.000 OA
ENDBRANCH  32  35
ENDBRANCH   1  32
TORSDOF 13
ENDMDL
MODEL 6
REMARK VINA RESULT:      -7.4      2.010      3.743
REMARK  Name = 
REMARK  14 active torsions:
REMARK  status: ('A' for Active; 'I' for Inactive)
REMARK    1  A    between atoms: C_1  and  O_2
REMARK    2  A    between atoms: O_2  and  C_3
REMARK    3  A    between atoms: C_3  and  C_5
REMARK    4  A    between atoms: C_5  and  N_22
REMARK    5  A    between atoms: C_6  and  C_7
REMARK    6  A    between atoms: C_10  and  N_11
REMARK    7  A    between atoms: N_11  and  C_12
REMARK    8  A    between atoms: N_11  and  C_16
REMARK    9  A    between atoms: C_12  and  C_13
REMARK   10  A    between atoms: C_13  and  C_14
REMARK   11  A    between atoms: C_16  and  C_17
REMARK   12  A    between atoms: C_17  and  C_18
REMARK   13  A    between atoms: C_23  and  C_25
REMARK   14  A    between atoms: C_27  and  N_28
REMARK                            x       y       z     vdW  Elec       q    Type
REMARK                         _______ _______ _______ _____ _____    ______ ____
ROOT
ATOM      1  C   UNL     1      -0.267  11.563  20.046  0.00  0.00    +0.000 C 
ATOM      2  C   UNL     1      -0.395  10.319  19.546  0.00  0.00    +0.000 C 
ENDROOT
BRANCH   2   3
ATOM      3  C   UNL     1       0.645   9.362  19.207  0.00  0.00    +0.000 A 
ATOM      4  C   UNL     1       1.090   8.479  20.187  0.00  0.00    +0.000 A 
ATOM      5  C   UNL     1       2.081   7.551  19.886  0.00  0.00    +0.000 A 
ATOM      6  C   UNL     1       2.621   7.440  18.597  0.00  0.00    +0.000 A 
ATOM      7  C   UNL     1       2.131   8.333  17.626  0.00  0.00    +0.000 A 
ATOM      8  C   UNL     1       1.166   9.296  17.922  0.00  0.00    +0.000 A 
BRANCH   6   9
ATOM      9  N   UNL     1       3.604   6.498  18.310  0.00  0.00    +0.000 N 
BRANCH   9  10
ATOM     10  C   UNL     1       3.307   5.056  18.431  0.00  0.00    +0.000 C 
BRANCH  10  11
ATOM     11  C   UNL     1       2.006   4.638  17.739  0.00  0.00    +0.000 C 
BRANCH  11  12
ATOM     12  C   UNL     1       1.413   3.450  18.362  0.00  0.00    +0.000 C 
ATOM     13  N   UNL     1       0.953   2.508  18.861  0.00  0.00    +0.000 NA
ENDBRANCH  11  12
ENDBRANCH  10  11
ENDBRANCH   9  10
BRANCH   9  14
ATOM     14  C   UNL     1       4.833   6.874  17.591  0.00  0.00    +0.000 C 
BRANCH  14  15
ATOM     15  C   UNL     1       4.985   6.151  16.254  0.00  0.00    +0.000 C 
BRANCH  15  16
ATOM     16  C   UNL     1       6.362   5.523  16.117  0.00  0.00    +0.000 C 
ATOM     17  N   UNL     1       7.505   5.002  16.004  0.00  0.00    +0.000 NA
ENDBRANCH  15  16
ENDBRANCH  14  15
ENDBRANCH   9  14
ENDBRANCH   6   9
ENDBRANCH   2   3
BRANCH   1  18
ATOM     18  N   UNL     1      -1.376  12.337  20.404  0.00  0.00    +0.000 N 
ATOM     19  C   UNL     1      -1.978  12.398  21.647  0.00  0.00    +0.000 C 
ATOM     20  O   UNL     1      -1.628  11.762  22.638  0.00  0.00    +0.000 OA
ATOM     21  H   UNL     1      -1.729  12.933  19.656  0.00  0.00    +0.000 HD
BRANCH  19  22
ATOM     22  C   UNL     1      -3.102  13.337  21.870  0.00  0.00    +0.000 A 
ATOM     23  C   UNL     1      -4.378  12.733  21.939  0.00  0.00    +0.000 A 
ATOM     24  C   UNL     1      -5.534  13.513  22.002  0.00  0.00    +0.000 A 
ATOM     25  C   UNL     1      -5.435  14.906  22.033  0.00  0.00    +0.000 A 
ATOM     26  C   UNL     1      -4.171  15.507  21.991  0.00  0.00    +0.000 A 
ATOM     27  C   UNL     1      -3.004  14.732  21.900  0.00  0.00    +0.000 A 
ATOM     28 CL   UNL     1      -1.510  15.583  21.762  0.00  0.00    +0.000 Cl
BRANCH  24  29
ATOM     29  N   UNL     1      -6.852  12.864  21.989  0.00  0.00    +0.000 N 
ATOM     30  O   UNL     1      -7.851  13.582  22.134  0.00  0.00    +0.000 OA
ATOM     31  O   UNL     1      -6.883  11.636  21.837  0.00  0.00    +0.000 OA
ENDBRANCH  24  29
ENDBRANCH  19  22
ENDBRANCH   1  18
BRANCH   1  32
ATOM     32  C   UNL     1       1.066  12.255  20.240  0.00  0.00    +0.000 C 
ATOM     33  O   UNL     1       1.758  12.050  21.229  0.00  0.00    +0.000 OA
BRANCH  32  35
ATOM     34  C   UNL     1       2.444  12.629  18.326  0.00  0.00    +0.000 C 
ATOM     35  O   UNL     1       1.394  13.050  19.198  0.00  0.00    +0.000 OA
ENDBRANCH  32  35
ENDBRANCH   1  32
TORSDOF 13
ENDMDL
MODEL 7
REMARK VINA RESULT:      -7.4      3.414     10.539
REMARK  Name = 
REMARK  14 active torsions:
REMARK  status: ('A' for Active; 'I' for Inactive)
REMARK    1  A    between atoms: C_1  and  O_2
REMARK    2  A    between atoms: O_2  and  C_3
REMARK    3  A    between atoms: C_3  and  C_5
REMARK    4  A    between atoms: C_5  and  N_22
REMARK    5  A    between atoms: C_6  and  C_7
REMARK    6  A    between atoms: C_10  and  N_11
REMARK    7  A    between atoms: N_11  and  C_12
REMARK    8  A    between atoms: N_11  and  C_16
REMARK    9  A    between atoms: C_12  and  C_13
REMARK   10  A    between atoms: C_13  and  C_14
REMARK   11  A    between atoms: C_16  and  C_17
REMARK   12  A    between atoms: C_17  and  C_18
REMARK   13  A    between atoms: C_23  and  C_25
REMARK   14  A    between atoms: C_27  and  N_28
REMARK                            x       y       z     vdW  Elec       q    Type
REMARK                         _______ _______ _______ _____ _____    ______ ____
ROOT
ATOM      1  C   UNL     1       1.593   8.843  19.681  0.00  0.00    +0.000 C 
ATOM      2  C   UNL     1       1.450   9.135  20.989  0.00  0.00    +0.000 C 
ENDROOT
BRANCH   2   3
ATOM      3  C   UNL     1       0.577  10.114  21.614  0.00  0.00    +0.000 A 
ATOM      4  C   UNL     1       0.671  11.445  21.220  0.00  0.00    +0.000 A 
ATOM      5  C   UNL     1      -0.157  12.400  21.800  0.00  0.00    +0.000 A 
ATOM      6  C   UNL     1      -1.132  12.055  22.747  0.00  0.00    +0.000 A 
ATOM      7  C   UNL     1      -1.215  10.696  23.104  0.00  0.00    +0.000 A 
ATOM      8  C   UNL     1      -0.364   9.732  22.560  0.00  0.00    +0.000 A 
BRANCH   6   9
ATOM      9  N   UNL     1      -1.960  13.021  23.309  0.00  0.00    +0.000 N 
BRANCH   9  10
ATOM     10  C   UNL     1      -1.404  14.328  23.717  0.00  0.00    +0.000 C 
BRANCH  10  11
ATOM     11  C   UNL     1      -2.099  14.935  24.939  0.00  0.00    +0.000 C 
BRANCH  11  12
ATOM     12  C   UNL     1      -1.136  15.504  25.888  0.00  0.00    +0.000 C 
ATOM     13  N   UNL     1      -0.381  15.962  26.641  0.00  0.00    +0.000 NA
ENDBRANCH  11  12
ENDBRANCH  10  11
ENDBRANCH   9  10
BRANCH   9  14
ATOM     14  C   UNL     1      -3.426  12.910  23.227  0.00  0.00    +0.000 C 
BRANCH  14  15
ATOM     15  C   UNL     1      -3.962  13.128  21.813  0.00  0.00    +0.000 C 
BRANCH  15  16
ATOM     16  C   UNL     1      -5.331  12.492  21.636  0.00  0.00    +0.000 C 
ATOM     17  N   UNL     1      -6.467  11.964  21.489  0.00  0.00    +0.000 NA
ENDBRANCH  15  16
ENDBRANCH  14  15
ENDBRANCH   9  14
ENDBRANCH   6   9
ENDBRANCH   2   3
BRANCH   1  18
ATOM     18  N   UNL     1       2.420   7.806  19.238  0.00  0.00    +0.000 N 
ATOM     19  C   UNL     1       2.384   6.485  19.645  0.00  0.00    +0.000 C 
ATOM     20  O   UNL     1       1.612   6.019  20.481  0.00  0.00    +0.000 OA
ATOM     21  H   UNL     1       3.082   8.080  18.513  0.00  0.00    +0.000 HD
BRANCH  19  22
ATOM     22  C   UNL     1       3.287   5.498  19.009  0.00  0.00    +0.000 A 
ATOM     23  C   UNL     1       4.663   5.698  19.266  0.00  0.00    +0.000 A 
ATOM     24  C   UNL     1       5.629   4.929  18.614  0.00  0.00    +0.000 A 
ATOM     25  C   UNL     1       5.238   3.927  17.723  0.00  0.00    +0.000 A 
ATOM     26  C   UNL     1       3.876   3.710  17.486  0.00  0.00    +0.000 A 
ATOM     27  C   UNL     1       2.898   4.495  18.116  0.00  0.00    +0.000 A 
ATOM     28 CL   UNL     1       1.256   4.198  17.678  0.00  0.00    +0.000 Cl
BRANCH  24  29
ATOM     29  N   UNL     1       7.054   5.211  18.834  0.00  0.00    +0.000 N 
ATOM     30  O   UNL     1       7.777   5.347  17.838  0.00  0.00    +0.000 OA
ATOM     31  O   UNL     1       7.446   5.292  20.006  0.00  0.00    +0.000 OA
ENDBRANCH  24  29
ENDBRANCH  19  22
ENDBRANCH   1  18
BRANCH   1  32
ATOM     32  C   UNL     1       0.909   9.614  18.572  0.00  0.00    +0.000 C 
ATOM     33  O   UNL     1      -0.309   9.743  18.536  0.00  0.00    +0.000 OA
BRANCH  32  35
ATOM     34  C   UNL     1       2.354  11.430  18.011  0.00  0.00    +0.000 C 
ATOM     35  O   UNL     1       1.787  10.157  17.701  0.00  0.00    +0.000 OA
ENDBRANCH  32  35
ENDBRANCH   1  32
TORSDOF 13
ENDMDL
MODEL 8
REMARK VINA RESULT:      -7.3      3.414      4.795
REMARK  Name = 
REMARK  14 active torsions:
REMARK  status: ('A' for Active; 'I' for Inactive)
REMARK    1  A    between atoms: C_1  and  O_2
REMARK    2  A    between atoms: O_2  and  C_3
REMARK    3  A    between atoms: C_3  and  C_5
REMARK    4  A    between atoms: C_5  and  N_22
REMARK    5  A    between atoms: C_6  and  C_7
REMARK    6  A    between atoms: C_10  and  N_11
REMARK    7  A    between atoms: N_11  and  C_12
REMARK    8  A    between atoms: N_11  and  C_16
REMARK    9  A    between atoms: C_12  and  C_13
REMARK   10  A    between atoms: C_13  and  C_14
REMARK   11  A    between atoms: C_16  and  C_17
REMARK   12  A    between atoms: C_17  and  C_18
REMARK   13  A    between atoms: C_23  and  C_25
REMARK   14  A    between atoms: C_27  and  N_28
REMARK                            x       y       z     vdW  Elec       q    Type
REMARK                         _______ _______ _______ _____ _____    ______ ____
ROOT
ATOM      1  C   UNL     1       0.972  10.774  18.546  0.00  0.00    +0.000 C 
ATOM      2  C   UNL     1       2.118  10.068  18.590  0.00  0.00    +0.000 C 
ENDROOT
BRANCH   2   3
ATOM      3  C   UNL     1       2.299   8.627  18.641  0.00  0.00    +0.000 A 
ATOM      4  C   UNL     1       2.869   7.984  17.546  0.00  0.00    +0.000 A 
ATOM      5  C   UNL     1       3.057   6.606  17.572  0.00  0.00    +0.000 A 
ATOM      6  C   UNL     1       2.733   5.838  18.699  0.00  0.00    +0.000 A 
ATOM      7  C   UNL     1       2.181   6.525  19.796  0.00  0.00    +0.000 A 
ATOM      8  C   UNL     1       1.949   7.901  19.770  0.00  0.00    +0.000 A 
BRANCH   6   9
ATOM      9  N   UNL     1       2.938   4.462  18.713  0.00  0.00    +0.000 N 
BRANCH   9  10
ATOM     10  C   UNL     1       1.788   3.539  18.612  0.00  0.00    +0.000 C 
BRANCH  10  11
ATOM     11  C   UNL     1       1.880   2.339  19.560  0.00  0.00    +0.000 C 
BRANCH  11  12
ATOM     12  C   UNL     1       1.977   2.758  20.963  0.00  0.00    +0.000 C 
ATOM     13  N   UNL     1       2.047   3.098  22.070  0.00  0.00    +0.000 NA
ENDBRANCH  11  12
ENDBRANCH  10  11
ENDBRANCH   9  10
BRANCH   9  14
ATOM     14  C   UNL     1       4.280   3.889  18.510  0.00  0.00    +0.000 C 
BRANCH  14  15
ATOM     15  C   UNL     1       4.671   3.797  17.036  0.00  0.00    +0.000 C 
BRANCH  15  16
ATOM     16  C   UNL     1       6.105   4.249  16.814  0.00  0.00    +0.000 C 
ATOM     17  N   UNL     1       7.295   4.624  16.631  0.00  0.00    +0.000 NA
ENDBRANCH  15  16
ENDBRANCH  14  15
ENDBRANCH   9  14
ENDBRANCH   6   9
ENDBRANCH   2   3
BRANCH   1  18
ATOM     18  N   UNL     1       0.962  12.167  18.413  0.00  0.00    +0.000 N 
ATOM     19  C   UNL     1       1.115  13.097  19.424  0.00  0.00    +0.000 C 
ATOM     20  O   UNL     1       1.274  12.835  20.614  0.00  0.00    +0.000 OA
ATOM     21  H   UNL     1       0.868  12.494  17.452  0.00  0.00    +0.000 HD
BRANCH  19  22
ATOM     22  C   UNL     1       1.158  14.540  19.089  0.00  0.00    +0.000 A 
ATOM     23  C   UNL     1      -0.058  15.233  19.285  0.00  0.00    +0.000 A 
ATOM     24  C   UNL     1      -0.197  16.561  18.876  0.00  0.00    +0.000 A 
ATOM     25  C   UNL     1       0.885  17.228  18.295  0.00  0.00    +0.000 A 
ATOM     26  C   UNL     1       2.099  16.552  18.123  0.00  0.00    +0.000 A 
ATOM     27  C   UNL     1       2.240  15.209  18.507  0.00  0.00    +0.000 A 
ATOM     28 CL   UNL     1       3.751  14.452  18.162  0.00  0.00    +0.000 Cl
BRANCH  24  29
ATOM     29  N   UNL     1      -1.495  17.234  19.015  0.00  0.00    +0.000 N 
ATOM     30  O   UNL     1      -1.767  18.136  18.210  0.00  0.00    +0.000 OA
ATOM     31  O   UNL     1      -2.237  16.861  19.933  0.00  0.00    +0.000 OA
ENDBRANCH  24  29
ENDBRANCH  19  22
ENDBRANCH   1  18
BRANCH   1  32
ATOM     32  C   UNL     1      -0.402  10.149  18.666  0.00  0.00    +0.000 C 
ATOM     33  O   UNL     1      -0.962  10.031  19.749  0.00  0.00    +0.000 OA
BRANCH  32  35
ATOM     34  C   UNL     1      -2.316  10.013  17.245  0.00  0.00    +0.000 C 
ATOM     35  O   UNL     1      -0.921   9.805  17.466  0.00  0.00    +0.000 OA
ENDBRANCH  32  35
ENDBRANCH   1  32
TORSDOF 13
ENDMDL
MODEL 9
REMARK VINA RESULT:      -7.3      1.755      2.502
REMARK  Name = 
REMARK  14 active torsions:
REMARK  status: ('A' for Active; 'I' for Inactive)
REMARK    1  A    between atoms: C_1  and  O_2
REMARK    2  A    between atoms: O_2  and  C_3
REMARK    3  A    between atoms: C_3  and  C_5
REMARK    4  A    between atoms: C_5  and  N_22
REMARK    5  A    between atoms: C_6  and  C_7
REMARK    6  A    between atoms: C_10  and  N_11
REMARK    7  A    between atoms: N_11  and  C_12
REMARK    8  A    between atoms: N_11  and  C_16
REMARK    9  A    between atoms: C_12  and  C_13
REMARK   10  A    between atoms: C_13  and  C_14
REMARK   11  A    between atoms: C_16  and  C_17
REMARK   12  A    between atoms: C_17  and  C_18
REMARK   13  A    between atoms: C_23  and  C_25
REMARK   14  A    between atoms: C_27  and  N_28
REMARK                            x       y       z     vdW  Elec       q    Type
REMARK                         _______ _______ _______ _____ _____    ______ ____
ROOT
ATOM      1  C   UNL     1      -0.023  11.402  20.399  0.00  0.00    +0.000 C 
ATOM      2  C   UNL     1      -0.144  10.078  20.181  0.00  0.00    +0.000 C 
ENDROOT
BRANCH   2   3
ATOM      3  C   UNL     1       0.851   9.141  19.687  0.00  0.00    +0.000 A 
ATOM      4  C   UNL     1       1.349   8.173  20.555  0.00  0.00    +0.000 A 
ATOM      5  C   UNL     1       2.299   7.262  20.105  0.00  0.00    +0.000 A 
ATOM      6  C   UNL     1       2.741   7.253  18.774  0.00  0.00    +0.000 A 
ATOM      7  C   UNL     1       2.198   8.230  17.920  0.00  0.00    +0.000 A 
ATOM      8  C   UNL     1       1.274   9.177  18.366  0.00  0.00    +0.000 A 
BRANCH   6   9
ATOM      9  N   UNL     1       3.683   6.327  18.338  0.00  0.00    +0.000 N 
BRANCH   9  10
ATOM     10  C   UNL     1       4.399   6.541  17.063  0.00  0.00    +0.000 C 
BRANCH  10  11
ATOM     11  C   UNL     1       5.903   6.775  17.235  0.00  0.00    +0.000 C 
BRANCH  11  12
ATOM     12  C   UNL     1       6.691   5.978  16.289  0.00  0.00    +0.000 C 
ATOM     13  N   UNL     1       7.314   5.355  15.533  0.00  0.00    +0.000 NA
ENDBRANCH  11  12
ENDBRANCH  10  11
ENDBRANCH   9  10
BRANCH   9  14
ATOM     14  C   UNL     1       4.221   5.300  19.247  0.00  0.00    +0.000 C 
BRANCH  14  15
ATOM     15  C   UNL     1       3.268   4.122  19.443  0.00  0.00    +0.000 C 
BRANCH  15  16
ATOM     16  C   UNL     1       2.720   3.625  18.115  0.00  0.00    +0.000 C 
ATOM     17  N   UNL     1       2.266   3.213  17.013  0.00  0.00    +0.000 NA
ENDBRANCH  15  16
ENDBRANCH  14  15
ENDBRANCH   9  14
ENDBRANCH   6   9
ENDBRANCH   2   3
BRANCH   1  18
ATOM     18  N   UNL     1      -1.055  12.159  20.962  0.00  0.00    +0.000 N 
ATOM     19  C   UNL     1      -1.339  12.301  22.308  0.00  0.00    +0.000 C 
ATOM     20  O   UNL     1      -0.723  11.764  23.226  0.00  0.00    +0.000 OA
ATOM     21  H   UNL     1      -1.613  12.676  20.284  0.00  0.00    +0.000 HD
BRANCH  19  22
ATOM     22  C   UNL     1      -2.428  13.211  22.734  0.00  0.00    +0.000 A 
ATOM     23  C   UNL     1      -3.732  12.680  22.606  0.00  0.00    +0.000 A 
ATOM     24  C   UNL     1      -4.853  13.480  22.835  0.00  0.00    +0.000 A 
ATOM     25  C   UNL     1      -4.692  14.810  23.228  0.00  0.00    +0.000 A 
ATOM     26  C   UNL     1      -3.402  15.332  23.380  0.00  0.00    +0.000 A 
ATOM     27  C   UNL     1      -2.268  14.544  23.126  0.00  0.00    +0.000 A 
ATOM     28 CL   UNL     1      -0.733  15.319  23.256  0.00  0.00    +0.000 Cl
BRANCH  24  29
ATOM     29  N   UNL     1      -6.197  12.929  22.616  0.00  0.00    +0.000 N 
ATOM     30  O   UNL     1      -6.332  12.065  21.739  0.00  0.00    +0.000 OA
ATOM     31  O   UNL     1      -7.116  13.367  23.321  0.00  0.00    +0.000 OA
ENDBRANCH  24  29
ENDBRANCH  19  22
ENDBRANCH   1  18
BRANCH   1  32
ATOM     32  C   UNL     1       1.211  12.201  20.034  0.00  0.00    +0.000 C 
ATOM     33  O   UNL     1       1.447  12.524  18.877  0.00  0.00    +0.000 OA
BRANCH  32  35
ATOM     34  C   UNL     1       2.596  13.809  21.127  0.00  0.00    +0.000 C 
ATOM     35  O   UNL     1       1.949  12.536  21.115  0.00  0.00    +0.000 OA
ENDBRANCH  32  35
ENDBRANCH   1  32
TORSDOF 13
ENDMDL
