MODEL 1
REMARK VINA RESULT:      -7.7      0.000      0.000
REMARK  Name = 
REMARK  10 active torsions:
REMARK  status: ('A' for Active; 'I' for Inactive)
REMARK    1  A    between atoms: CG1_1  and  CB_2
REMARK    2  A    between atoms: CB_2  and  CG2_3
REMARK    3  A    between atoms: CB_2  and  CA_4
REMARK    4  A    between atoms: CA_4  and  C_5
REMARK    5  A    between atoms: CA_4  and  N_7
REMARK    6  A    between atoms: C_5  and  O_6
REMARK    7  A    between atoms: N_7  and  C_8
REMARK    8  A    between atoms: C_8  and  C_9
REMARK    9  A    between atoms: C_11  and  C_12
REMARK   10  A    between atoms: C_13  and  C_14
REMARK                            x       y       z     vdW  Elec       q    Type
REMARK                         _______ _______ _______ _____ _____    ______ ____
ROOT
ATOM      1  C   UNK A   0       4.748   5.785  17.346  0.00  0.00    +0.000 A 
ATOM      2  N   UNK A   0       5.522   6.865  17.670  0.00  0.00    +0.000 NA
ATOM      3  C   UNK A   0       6.770   6.905  17.145  0.00  0.00    +0.000 A 
ATOM      4  C   UNK A   0       7.279   5.938  16.288  0.00  0.00    +0.000 A 
ATOM      5  C   UNK A   0       6.475   4.847  15.970  0.00  0.00    +0.000 A 
ATOM      6  C   UNK A   0       5.202   4.765  16.515  0.00  0.00    +0.000 A 
ATOM      7  F   UNK A   0       4.427   3.711  16.223  0.00  0.00    +0.000 F 
ENDROOT
BRANCH   3   8
ATOM      8  C   UNK A   0       7.584   8.000  17.577  0.00  0.00    +0.000 C 
ATOM      9  C   UNK A   0       8.236   8.912  18.004  0.00  0.00    +0.000 C 
BRANCH   9  10
ATOM     10  C   UNK A   0       8.978  10.003  18.565  0.00  0.00    +0.000 A 
ATOM     11  C   UNK A   0       9.131  10.117  19.947  0.00  0.00    +0.000 A 
ATOM     12  C   UNK A   0       9.834  11.199  20.488  0.00  0.00    +0.000 A 
ATOM     13  C   UNK A   0      10.384  12.162  19.645  0.00  0.00    +0.000 A 
ATOM     14  C   UNK A   0      10.233  12.050  18.262  0.00  0.00    +0.000 A 
ATOM     15  C   UNK A   0       9.529  10.970  17.722  0.00  0.00    +0.000 A 
ENDBRANCH   9  10
ENDBRANCH   3   8
BRANCH   1  16
ATOM     16  C   UNK A   0       3.360   5.702  17.946  0.00  0.00    +0.000 C 
BRANCH  16  17
ATOM     17  N   VAL A   1       3.283   4.990  19.234  0.00  0.00    +0.000 NA
ATOM     18  H   VAL A   1       4.146   5.162  19.747  0.00  0.00    +0.000 HD
BRANCH  17  19
ATOM     19  CA  VAL A   1       3.079   3.531  19.113  0.00  0.00    +0.000 C 
BRANCH  19  21
ATOM     20  CG1 VAL A   1       0.737   2.529  18.738  0.00  0.00    +0.000 C 
ATOM     21  CB  VAL A   1       1.725   3.100  19.767  0.00  0.00    +0.000 C 
ATOM     22  CG2 VAL A   1       1.033   4.208  20.565  0.00  0.00    +0.000 C 
ENDBRANCH  19  21
BRANCH  19  23
ATOM     23  C   VAL A   1       4.281   2.722  19.669  0.00  0.00    +0.000 C 
BRANCH  23  24
ATOM     24  O   VAL A   1       5.522   3.385  19.455  0.00  0.00    +0.000 OA
ATOM     25  H   VAL A   1       6.044   2.805  18.871  0.00  0.00    +0.000 HD
ENDBRANCH  23  24
ENDBRANCH  19  23
ENDBRANCH  17  19
ENDBRANCH  16  17
ENDBRANCH   1  16
TORSDOF 8
ENDMDL
MODEL 2
REMARK VINA RESULT:      -7.7      3.951      6.816
REMARK  Name = 
REMARK  10 active torsions:
REMARK  status: ('A' for Active; 'I' for Inactive)
REMARK    1  A    between atoms: CG1_1  and  CB_2
REMARK    2  A    between atoms: CB_2  and  CG2_3
REMARK    3  A    between atoms: CB_2  and  CA_4
REMARK    4  A    between atoms: CA_4  and  C_5
REMARK    5  A    between atoms: CA_4  and  N_7
REMARK    6  A    between atoms: C_5  and  O_6
REMARK    7  A    between atoms: N_7  and  C_8
REMARK    8  A    between atoms: C_8  and  C_9
REMARK    9  A    between atoms: C_11  and  C_12
REMARK   10  A    between atoms: C_13  and  C_14
REMARK                            x       y       z     vdW  Elec       q    Type
REMARK                         _______ _______ _______ _____ _____    ______ ____
ROOT
ATOM      1  C   UNK A   0       3.238   3.570  19.027  0.00  0.00    +0.000 A 
ATOM      2  N   UNK A   0       2.916   4.816  19.489  0.00  0.00    +0.000 NA
ATOM      3  C   UNK A   0       1.880   4.900  20.357  0.00  0.00    +0.000 A 
ATOM      4  C   UNK A   0       1.164   3.802  20.813  0.00  0.00    +0.000 A 
ATOM      5  C   UNK A   0       1.507   2.542  20.332  0.00  0.00    +0.000 A 
ATOM      6  C   UNK A   0       2.547   2.428  19.419  0.00  0.00    +0.000 A 
ATOM      7  F   UNK A   0       2.875   1.219  18.942  0.00  0.00    +0.000 F 
ENDROOT
BRANCH   3   8
ATOM      8  C   UNK A   0       1.513   6.227  20.749  0.00  0.00    +0.000 C 
ATOM      9  C   UNK A   0       1.156   7.339  21.024  0.00  0.00    +0.000 C 
BRANCH   9  10
ATOM     10  C   UNK A   0       0.700   8.670  21.298  0.00  0.00    +0.000 A 
ATOM     11  C   UNK A   0       0.085   8.971  22.514  0.00  0.00    +0.000 A 
ATOM     12  C   UNK A   0      -0.381  10.266  22.763  0.00  0.00    +0.000 A 
ATOM     13  C   UNK A   0      -0.228  11.257  21.797  0.00  0.00    +0.000 A 
ATOM     14  C   UNK A   0       0.388  10.960  20.579  0.00  0.00    +0.000 A 
ATOM     15  C   UNK A   0       0.852   9.665  20.331  0.00  0.00    +0.000 A 
ENDBRANCH   9  10
ENDBRANCH   3   8
BRANCH   1  16
ATOM     16  C   UNK A   0       4.372   3.454  18.030  0.00  0.00    +0.000 C 
BRANCH  16  17
ATOM     17  N   VAL A   1       5.663   3.994  18.493  0.00  0.00    +0.000 NA
ATOM     18  H   VAL A   1       5.591   4.183  19.492  0.00  0.00    +0.000 HD
BRANCH  17  19
ATOM     19  CA  VAL A   1       6.089   5.230  17.801  0.00  0.00    +0.000 C 
BRANCH  19  21
ATOM     20  CG1 VAL A   1       5.532   5.717  15.335  0.00  0.00    +0.000 C 
ATOM     21  CB  VAL A   1       5.003   5.699  16.778  0.00  0.00    +0.000 C 
ATOM     22  CG2 VAL A   1       4.381   7.059  17.102  0.00  0.00    +0.000 C 
ENDBRANCH  19  21
BRANCH  19  23
ATOM     23  C   VAL A   1       7.488   5.082  17.145  0.00  0.00    +0.000 C 
BRANCH  23  24
ATOM     24  O   VAL A   1       8.234   4.006  17.701  0.00  0.00    +0.000 OA
ATOM     25  H   VAL A   1       7.591   3.439  18.164  0.00  0.00    +0.000 HD
ENDBRANCH  23  24
ENDBRANCH  19  23
ENDBRANCH  17  19
ENDBRANCH  16  17
ENDBRANCH   1  16
TORSDOF 8
ENDMDL
MODEL 3
REMARK VINA RESULT:      -7.6      3.560      6.993
REMARK  Name = 
REMARK  10 active torsions:
REMARK  status: ('A' for Active; 'I' for Inactive)
REMARK    1  A    between atoms: CG1_1  and  CB_2
REMARK    2  A    between atoms: CB_2  and  CG2_3
REMARK    3  A    between atoms: CB_2  and  CA_4
REMARK    4  A    between atoms: CA_4  and  C_5
REMARK    5  A    between atoms: CA_4  and  N_7
REMARK    6  A    between atoms: C_5  and  O_6
REMARK    7  A    between atoms: N_7  and  C_8
REMARK    8  A    between atoms: C_8  and  C_9
REMARK    9  A    between atoms: C_11  and  C_12
REMARK   10  A    between atoms: C_13  and  C_14
REMARK                            x       y       z     vdW  Elec       q    Type
REMARK                         _______ _______ _______ _____ _____    ______ ____
ROOT
ATOM      1  C   UNK A   0       3.573   3.928  18.411  0.00  0.00    +0.000 A 
ATOM      2  N   UNK A   0       3.180   5.115  18.967  0.00  0.00    +0.000 NA
ATOM      3  C   UNK A   0       2.233   5.057  19.934  0.00  0.00    +0.000 A 
ATOM      4  C   UNK A   0       1.675   3.873  20.398  0.00  0.00    +0.000 A 
ATOM      5  C   UNK A   0       2.088   2.676  19.820  0.00  0.00    +0.000 A 
ATOM      6  C   UNK A   0       3.037   2.707  18.808  0.00  0.00    +0.000 A 
ATOM      7  F   UNK A   0       3.430   1.559  18.239  0.00  0.00    +0.000 F 
ENDROOT
BRANCH   3   8
ATOM      8  C   UNK A   0       1.781   6.322  20.428  0.00  0.00    +0.000 C 
ATOM      9  C   UNK A   0       1.346   7.378  20.795  0.00  0.00    +0.000 C 
BRANCH   9  10
ATOM     10  C   UNK A   0       0.789   8.639  21.186  0.00  0.00    +0.000 A 
ATOM     11  C   UNK A   0       0.849   9.736  20.324  0.00  0.00    +0.000 A 
ATOM     12  C   UNK A   0       0.326  10.970  20.723  0.00  0.00    +0.000 A 
ATOM     13  C   UNK A   0      -0.258  11.105  21.980  0.00  0.00    +0.000 A 
ATOM     14  C   UNK A   0      -0.320  10.009  22.844  0.00  0.00    +0.000 A 
ATOM     15  C   UNK A   0       0.203   8.777  22.445  0.00  0.00    +0.000 A 
ENDBRANCH   9  10
ENDBRANCH   3   8
BRANCH   1  16
ATOM     16  C   UNK A   0       4.607   3.970  17.307  0.00  0.00    +0.000 C 
BRANCH  16  17
ATOM     17  N   VAL A   1       6.005   3.867  17.761  0.00  0.00    +0.000 NA
ATOM     18  H   VAL A   1       6.016   3.928  18.778  0.00  0.00    +0.000 HD
BRANCH  17  19
ATOM     19  CA  VAL A   1       6.903   4.904  17.208  0.00  0.00    +0.000 C 
BRANCH  19  21
ATOM     20  CG1 VAL A   1       7.566   7.375  17.500  0.00  0.00    +0.000 C 
ATOM     21  CB  VAL A   1       7.034   6.111  18.194  0.00  0.00    +0.000 C 
ATOM     22  CG2 VAL A   1       7.887   5.822  19.432  0.00  0.00    +0.000 C 
ENDBRANCH  19  21
BRANCH  19  23
ATOM     23  C   VAL A   1       6.475   5.353  15.786  0.00  0.00    +0.000 C 
BRANCH  23  24
ATOM     24  O   VAL A   1       7.532   5.234  14.841  0.00  0.00    +0.000 OA
ATOM     25  H   VAL A   1       7.432   5.982  14.225  0.00  0.00    +0.000 HD
ENDBRANCH  23  24
ENDBRANCH  19  23
ENDBRANCH  17  19
ENDBRANCH  16  17
ENDBRANCH   1  16
TORSDOF 8
ENDMDL
MODEL 4
REMARK VINA RESULT:      -7.6      1.270      1.740
REMARK  Name = 
REMARK  10 active torsions:
REMARK  status: ('A' for Active; 'I' for Inactive)
REMARK    1  A    between atoms: CG1_1  and  CB_2
REMARK    2  A    between atoms: CB_2  and  CG2_3
REMARK    3  A    between atoms: CB_2  and  CA_4
REMARK    4  A    between atoms: CA_4  and  C_5
REMARK    5  A    between atoms: CA_4  and  N_7
REMARK    6  A    between atoms: C_5  and  O_6
REMARK    7  A    between atoms: N_7  and  C_8
REMARK    8  A    between atoms: C_8  and  C_9
REMARK    9  A    between atoms: C_11  and  C_12
REMARK   10  A    between atoms: C_13  and  C_14
REMARK                            x       y       z     vdW  Elec       q    Type
REMARK                         _______ _______ _______ _____ _____    ______ ____
ROOT
ATOM      1  C   UNK A   0       5.556   5.105  17.942  0.00  0.00    +0.000 A 
ATOM      2  N   UNK A   0       6.172   6.293  18.228  0.00  0.00    +0.000 NA
ATOM      3  C   UNK A   0       7.033   6.777  17.303  0.00  0.00    +0.000 A 
ATOM      4  C   UNK A   0       7.293   6.154  16.089  0.00  0.00    +0.000 A 
ATOM      5  C   UNK A   0       6.657   4.946  15.815  0.00  0.00    +0.000 A 
ATOM      6  C   UNK A   0       5.790   4.412  16.758  0.00  0.00    +0.000 A 
ATOM      7  F   UNK A   0       5.183   3.243  16.506  0.00  0.00    +0.000 F 
ENDROOT
BRANCH   3   8
ATOM      8  C   UNK A   0       7.727   7.972  17.675  0.00  0.00    +0.000 C 
ATOM      9  C   UNK A   0       8.256   8.987  18.033  0.00  0.00    +0.000 C 
BRANCH   9  10
ATOM     10  C   UNK A   0       8.835  10.217  18.490  0.00  0.00    +0.000 A 
ATOM     11  C   UNK A   0       8.722  11.379  17.726  0.00  0.00    +0.000 A 
ATOM     12  C   UNK A   0       9.313  12.568  18.167  0.00  0.00    +0.000 A 
ATOM     13  C   UNK A   0      10.011  12.593  19.371  0.00  0.00    +0.000 A 
ATOM     14  C   UNK A   0      10.124  11.432  20.139  0.00  0.00    +0.000 A 
ATOM     15  C   UNK A   0       9.535  10.244  19.697  0.00  0.00    +0.000 A 
ENDBRANCH   9  10
ENDBRANCH   3   8
BRANCH   1  16
ATOM     16  C   UNK A   0       4.613   4.527  18.975  0.00  0.00    +0.000 C 
BRANCH  16  17
ATOM     17  N   VAL A   1       3.201   4.918  18.815  0.00  0.00    +0.000 NA
ATOM     18  H   VAL A   1       3.003   5.675  19.468  0.00  0.00    +0.000 HD
BRANCH  17  19
ATOM     19  CA  VAL A   1       2.236   3.821  19.042  0.00  0.00    +0.000 C 
BRANCH  19  21
ATOM     20  CG1 VAL A   1       1.490   5.503  20.844  0.00  0.00    +0.000 C 
ATOM     21  CB  VAL A   1       1.449   4.039  20.376  0.00  0.00    +0.000 C 
ATOM     22  CG2 VAL A   1       1.898   3.133  21.525  0.00  0.00    +0.000 C 
ENDBRANCH  19  21
BRANCH  19  23
ATOM     23  C   VAL A   1       2.909   2.425  18.980  0.00  0.00    +0.000 C 
BRANCH  23  24
ATOM     24  O   VAL A   1       2.042   1.430  18.447  0.00  0.00    +0.000 OA
ATOM     25  H   VAL A   1       2.044   0.696  19.087  0.00  0.00    +0.000 HD
ENDBRANCH  23  24
ENDBRANCH  19  23
ENDBRANCH  17  19
ENDBRANCH  16  17
ENDBRANCH   1  16
TORSDOF 8
ENDMDL
MODEL 5
REMARK VINA RESULT:      -7.6      3.591      6.965
REMARK  Name = 
REMARK  10 active torsions:
REMARK  status: ('A' for Active; 'I' for Inactive)
REMARK    1  A    between atoms: CG1_1  and  CB_2
REMARK    2  A    between atoms: CB_2  and  CG2_3
REMARK    3  A    between atoms: CB_2  and  CA_4
REMARK    4  A    between atoms: CA_4  and  C_5
REMARK    5  A    between atoms: CA_4  and  N_7
REMARK    6  A    between atoms: C_5  and  O_6
REMARK    7  A    between atoms: N_7  and  C_8
REMARK    8  A    between atoms: C_8  and  C_9
REMARK    9  A    between atoms: C_11  and  C_12
REMARK   10  A    between atoms: C_13  and  C_14
REMARK                            x       y       z     vdW  Elec       q    Type
REMARK                         _______ _______ _______ _____ _____    ______ ____
ROOT
ATOM      1  C   UNK A   0       3.615   3.823  19.455  0.00  0.00    +0.000 A 
ATOM      2  N   UNK A   0       3.204   5.036  19.935  0.00  0.00    +0.000 NA
ATOM      3  C   UNK A   0       1.930   5.117  20.389  0.00  0.00    +0.000 A 
ATOM      4  C   UNK A   0       1.051   4.043  20.417  0.00  0.00    +0.000 A 
ATOM      5  C   UNK A   0       1.488   2.817  19.924  0.00  0.00    +0.000 A 
ATOM      6  C   UNK A   0       2.779   2.711  19.427  0.00  0.00    +0.000 A 
ATOM      7  F   UNK A   0       3.203   1.536  18.940  0.00  0.00    +0.000 F 
ENDROOT
BRANCH   3   8
ATOM      8  C   UNK A   0       1.505   6.421  20.798  0.00  0.00    +0.000 C 
ATOM      9  C   UNK A   0       1.117   7.521  21.077  0.00  0.00    +0.000 C 
BRANCH   9  10
ATOM     10  C   UNK A   0       0.637   8.844  21.351  0.00  0.00    +0.000 A 
ATOM     11  C   UNK A   0      -0.003   9.128  22.558  0.00  0.00    +0.000 A 
ATOM     12  C   UNK A   0      -0.491  10.416  22.807  0.00  0.00    +0.000 A 
ATOM     13  C   UNK A   0      -0.337  11.415  21.849  0.00  0.00    +0.000 A 
ATOM     14  C   UNK A   0       0.304  11.133  20.641  0.00  0.00    +0.000 A 
ATOM     15  C   UNK A   0       0.790   9.847  20.393  0.00  0.00    +0.000 A 
ENDBRANCH   9  10
ENDBRANCH   3   8
BRANCH   1  16
ATOM     16  C   UNK A   0       5.024   3.716  18.912  0.00  0.00    +0.000 C 
BRANCH  16  17
ATOM     17  N   VAL A   1       5.917   4.830  19.278  0.00  0.00    +0.000 NA
ATOM     18  H   VAL A   1       5.344   5.597  19.628  0.00  0.00    +0.000 HD
BRANCH  17  19
ATOM     19  CA  VAL A   1       6.758   5.326  18.167  0.00  0.00    +0.000 C 
BRANCH  19  21
ATOM     20  CG1 VAL A   1       5.380   6.857  16.621  0.00  0.00    +0.000 C 
ATOM     21  CB  VAL A   1       6.374   6.795  17.791  0.00  0.00    +0.000 C 
ATOM     22  CG2 VAL A   1       7.571   7.697  17.480  0.00  0.00    +0.000 C 
ENDBRANCH  19  21
BRANCH  19  23
ATOM     23  C   VAL A   1       6.724   4.379  16.938  0.00  0.00    +0.000 C 
BRANCH  23  24
ATOM     24  O   VAL A   1       7.922   4.446  16.172  0.00  0.00    +0.000 OA
ATOM     25  H   VAL A   1       8.384   3.601  16.316  0.00  0.00    +0.000 HD
ENDBRANCH  23  24
ENDBRANCH  19  23
ENDBRANCH  17  19
ENDBRANCH  16  17
ENDBRANCH   1  16
TORSDOF 8
ENDMDL
MODEL 6
REMARK VINA RESULT:      -7.6      3.098      4.706
REMARK  Name = 
REMARK  10 active torsions:
REMARK  status: ('A' for Active; 'I' for Inactive)
REMARK    1  A    between atoms: CG1_1  and  CB_2
REMARK    2  A    between atoms: CB_2  and  CG2_3
REMARK    3  A    between atoms: CB_2  and  CA_4
REMARK    4  A    between atoms: CA_4  and  C_5
REMARK    5  A    between atoms: CA_4  and  N_7
REMARK    6  A    between atoms: C_5  and  O_6
REMARK    7  A    between atoms: N_7  and  C_8
REMARK    8  A    between atoms: C_8  and  C_9
REMARK    9  A    between atoms: C_11  and  C_12
REMARK   10  A    between atoms: C_13  and  C_14
REMARK                            x       y       z     vdW  Elec       q    Type
REMARK                         _______ _______ _______ _____ _____    ______ ____
ROOT
ATOM      1  C   UNK A   0       6.322   5.593  16.499  0.00  0.00    +0.000 A 
ATOM      2  N   UNK A   0       7.040   6.734  16.733  0.00  0.00    +0.000 NA
ATOM      3  C   UNK A   0       7.506   6.919  17.991  0.00  0.00    +0.000 A 
ATOM      4  C   UNK A   0       7.319   6.011  19.025  0.00  0.00    +0.000 A 
ATOM      5  C   UNK A   0       6.587   4.856  18.768  0.00  0.00    +0.000 A 
ATOM      6  C   UNK A   0       6.073   4.653  17.494  0.00  0.00    +0.000 A 
ATOM      7  F   UNK A   0       5.357   3.548  17.242  0.00  0.00    +0.000 F 
ENDROOT
BRANCH   3   8
ATOM      8  C   UNK A   0       8.172   8.165  18.223  0.00  0.00    +0.000 C 
ATOM      9  C   UNK A   0       8.729   9.193  18.488  0.00  0.00    +0.000 C 
BRANCH   9  10
ATOM     10  C   UNK A   0       9.381  10.414  18.864  0.00  0.00    +0.000 A 
ATOM     11  C   UNK A   0       9.467  10.784  20.207  0.00  0.00    +0.000 A 
ATOM     12  C   UNK A   0      10.081  11.989  20.564  0.00  0.00    +0.000 A 
ATOM     13  C   UNK A   0      10.610  12.818  19.578  0.00  0.00    +0.000 A 
ATOM     14  C   UNK A   0      10.526  12.450  18.234  0.00  0.00    +0.000 A 
ATOM     15  C   UNK A   0       9.911  11.247  17.878  0.00  0.00    +0.000 A 
ENDBRANCH   9  10
ENDBRANCH   3   8
BRANCH   1  16
ATOM     16  C   UNK A   0       5.764   5.379  15.109  0.00  0.00    +0.000 C 
BRANCH  16  17
ATOM     17  N   VAL A   1       6.321   4.221  14.387  0.00  0.00    +0.000 NA
ATOM     18  H   VAL A   1       7.285   4.089  14.689  0.00  0.00    +0.000 HD
BRANCH  17  19
ATOM     19  CA  VAL A   1       6.292   4.349  12.914  0.00  0.00    +0.000 C 
BRANCH  19  21
ATOM     20  CG1 VAL A   1       6.803   2.364  11.357  0.00  0.00    +0.000 C 
ATOM     21  CB  VAL A   1       5.751   3.040  12.251  0.00  0.00    +0.000 C 
ATOM     22  CG2 VAL A   1       4.460   3.228  11.452  0.00  0.00    +0.000 C 
ENDBRANCH  19  21
BRANCH  19  23
ATOM     23  C   VAL A   1       7.668   4.775  12.336  0.00  0.00    +0.000 C 
BRANCH  23  24
ATOM     24  O   VAL A   1       8.340   5.710  13.172  0.00  0.00    +0.000 OA
ATOM     25  H   VAL A   1       7.651   6.129  13.720  0.00  0.00    +0.000 HD
ENDBRANCH  23  24
ENDBRANCH  19  23
ENDBRANCH  17  19
ENDBRANCH  16  17
ENDBRANCH   1  16
TORSDOF 8
ENDMDL
MODEL 7
REMARK VINA RESULT:      -7.6      1.006      1.340
REMARK  Name = 
REMARK  10 active torsions:
REMARK  status: ('A' for Active; 'I' for Inactive)
REMARK    1  A    between atoms: CG1_1  and  CB_2
REMARK    2  A    between atoms: CB_2  and  CG2_3
REMARK    3  A    between atoms: CB_2  and  CA_4
REMARK    4  A    between atoms: CA_4  and  C_5
REMARK    5  A    between atoms: CA_4  and  N_7
REMARK    6  A    between atoms: C_5  and  O_6
REMARK    7  A    between atoms: N_7  and  C_8
REMARK    8  A    between atoms: C_8  and  C_9
REMARK    9  A    between atoms: C_11  and  C_12
REMARK   10  A    between atoms: C_13  and  C_14
REMARK                            x       y       z     vdW  Elec       q    Type
REMARK                         _______ _______ _______ _____ _____    ______ ____
ROOT
ATOM      1  C   UNK A   0       4.824   5.667  17.405  0.00  0.00    +0.000 A 
ATOM      2  N   UNK A   0       5.560   6.746  17.810  0.00  0.00    +0.000 NA
ATOM      3  C   UNK A   0       6.821   6.846  17.328  0.00  0.00    +0.000 A 
ATOM      4  C   UNK A   0       7.381   5.939  16.437  0.00  0.00    +0.000 A 
ATOM      5  C   UNK A   0       6.617   4.847  16.036  0.00  0.00    +0.000 A 
ATOM      6  C   UNK A   0       5.330   4.705  16.536  0.00  0.00    +0.000 A 
ATOM      7  F   UNK A   0       4.592   3.649  16.163  0.00  0.00    +0.000 F 
ENDROOT
BRANCH   3   8
ATOM      8  C   UNK A   0       7.592   7.935  17.843  0.00  0.00    +0.000 C 
ATOM      9  C   UNK A   0       8.251   8.870  18.208  0.00  0.00    +0.000 C 
BRANCH   9  10
ATOM     10  C   UNK A   0       9.058   9.993  18.584  0.00  0.00    +0.000 A 
ATOM     11  C   UNK A   0       9.267  10.294  19.931  0.00  0.00    +0.000 A 
ATOM     12  C   UNK A   0      10.034  11.408  20.290  0.00  0.00    +0.000 A 
ATOM     13  C   UNK A   0      10.592  12.215  19.302  0.00  0.00    +0.000 A 
ATOM     14  C   UNK A   0      10.385  11.916  17.954  0.00  0.00    +0.000 A 
ATOM     15  C   UNK A   0       9.617  10.805  17.596  0.00  0.00    +0.000 A 
ENDBRANCH   9  10
ENDBRANCH   3   8
BRANCH   1  16
ATOM     16  C   UNK A   0       3.422   5.517  17.955  0.00  0.00    +0.000 C 
BRANCH  16  17
ATOM     17  N   VAL A   1       3.343   5.344  19.416  0.00  0.00    +0.000 NA
ATOM     18  H   VAL A   1       4.216   5.673  19.825  0.00  0.00    +0.000 HD
BRANCH  17  19
ATOM     19  CA  VAL A   1       3.105   3.951  19.853  0.00  0.00    +0.000 C 
BRANCH  19  21
ATOM     20  CG1 VAL A   1       0.969   2.850  18.927  0.00  0.00    +0.000 C 
ATOM     21  CB  VAL A   1       2.467   3.107  18.700  0.00  0.00    +0.000 C 
ATOM     22  CG2 VAL A   1       3.171   1.774  18.435  0.00  0.00    +0.000 C 
ENDBRANCH  19  21
BRANCH  19  23
ATOM     23  C   VAL A   1       2.272   3.881  21.160  0.00  0.00    +0.000 C 
BRANCH  23  24
ATOM     24  O   VAL A   1       2.646   2.780  21.980  0.00  0.00    +0.000 OA
ATOM     25  H   VAL A   1       2.096   2.028  21.693  0.00  0.00    +0.000 HD
ENDBRANCH  23  24
ENDBRANCH  19  23
ENDBRANCH  17  19
ENDBRANCH  16  17
ENDBRANCH   1  16
TORSDOF 8
ENDMDL
MODEL 8
REMARK VINA RESULT:      -7.6      0.513      1.124
REMARK  Name = 
REMARK  10 active torsions:
REMARK  status: ('A' for Active; 'I' for Inactive)
REMARK    1  A    between atoms: CG1_1  and  CB_2
REMARK    2  A    between atoms: CB_2  and  CG2_3
REMARK    3  A    between atoms: CB_2  and  CA_4
REMARK    4  A    between atoms: CA_4  and  C_5
REMARK    5  A    between atoms: CA_4  and  N_7
REMARK    6  A    between atoms: C_5  and  O_6
REMARK    7  A    between atoms: N_7  and  C_8
REMARK    8  A    between atoms: C_8  and  C_9
REMARK    9  A    between atoms: C_11  and  C_12
REMARK   10  A    between atoms: C_13  and  C_14
REMARK                            x       y       z     vdW  Elec       q    Type
REMARK                         _______ _______ _______ _____ _____    ______ ____
ROOT
ATOM      1  C   UNK A   0       4.889   6.011  17.272  0.00  0.00    +0.000 A 
ATOM      2  N   UNK A   0       5.604   7.108  17.669  0.00  0.00    +0.000 NA
ATOM      3  C   UNK A   0       6.896   7.175  17.270  0.00  0.00    +0.000 A 
ATOM      4  C   UNK A   0       7.508   6.219  16.471  0.00  0.00    +0.000 A 
ATOM      5  C   UNK A   0       6.764   5.111  16.077  0.00  0.00    +0.000 A 
ATOM      6  C   UNK A   0       5.445   5.001  16.493  0.00  0.00    +0.000 A 
ATOM      7  F   UNK A   0       4.726   3.930  16.128  0.00  0.00    +0.000 F 
ENDROOT
BRANCH   3   8
ATOM      8  C   UNK A   0       7.639   8.288  17.779  0.00  0.00    +0.000 C 
ATOM      9  C   UNK A   0       8.321   9.189  18.180  0.00  0.00    +0.000 C 
BRANCH   9  10
ATOM     10  C   UNK A   0       9.188  10.231  18.649  0.00  0.00    +0.000 A 
ATOM     11  C   UNK A   0       9.937  10.987  17.747  0.00  0.00    +0.000 A 
ATOM     12  C   UNK A   0      10.800  11.984  18.215  0.00  0.00    +0.000 A 
ATOM     13  C   UNK A   0      10.908  12.224  19.582  0.00  0.00    +0.000 A 
ATOM     14  C   UNK A   0      10.159  11.469  20.487  0.00  0.00    +0.000 A 
ATOM     15  C   UNK A   0       9.298  10.473  20.019  0.00  0.00    +0.000 A 
ENDBRANCH   9  10
ENDBRANCH   3   8
BRANCH   1  16
ATOM     16  C   UNK A   0       3.451   5.897  17.732  0.00  0.00    +0.000 C 
BRANCH  16  17
ATOM     17  N   VAL A   1       3.271   5.310  19.071  0.00  0.00    +0.000 NA
ATOM     18  H   VAL A   1       4.023   5.646  19.671  0.00  0.00    +0.000 HD
BRANCH  17  19
ATOM     19  CA  VAL A   1       3.266   3.831  19.092  0.00  0.00    +0.000 C 
BRANCH  19  21
ATOM     20  CG1 VAL A   1       1.046   2.560  18.797  0.00  0.00    +0.000 C 
ATOM     21  CB  VAL A   1       1.972   3.288  19.784  0.00  0.00    +0.000 C 
ATOM     22  CG2 VAL A   1       1.168   4.352  20.535  0.00  0.00    +0.000 C 
ENDBRANCH  19  21
BRANCH  19  23
ATOM     23  C   VAL A   1       4.557   3.248  19.725  0.00  0.00    +0.000 C 
BRANCH  23  24
ATOM     24  O   VAL A   1       4.772   1.890  19.360  0.00  0.00    +0.000 OA
ATOM     25  H   VAL A   1       5.359   1.906  18.582  0.00  0.00    +0.000 HD
ENDBRANCH  23  24
ENDBRANCH  19  23
ENDBRANCH  17  19
ENDBRANCH  16  17
ENDBRANCH   1  16
TORSDOF 8
ENDMDL
MODEL 9
REMARK VINA RESULT:      -7.5      4.062      6.961
REMARK  Name = 
REMARK  10 active torsions:
REMARK  status: ('A' for Active; 'I' for Inactive)
REMARK    1  A    between atoms: CG1_1  and  CB_2
REMARK    2  A    between atoms: CB_2  and  CG2_3
REMARK    3  A    between atoms: CB_2  and  CA_4
REMARK    4  A    between atoms: CA_4  and  C_5
REMARK    5  A    between atoms: CA_4  and  N_7
REMARK    6  A    between atoms: C_5  and  O_6
REMARK    7  A    between atoms: N_7  and  C_8
REMARK    8  A    between atoms: C_8  and  C_9
REMARK    9  A    between atoms: C_11  and  C_12
REMARK   10  A    between atoms: C_13  and  C_14
REMARK                            x       y       z     vdW  Elec       q    Type
REMARK                         _______ _______ _______ _____ _____    ______ ____
ROOT
ATOM      1  C   UNK A   0       3.527   3.857  19.578  0.00  0.00    +0.000 A 
ATOM      2  N   UNK A   0       3.150   5.083  20.052  0.00  0.00    +0.000 NA
ATOM      3  C   UNK A   0       1.849   5.235  20.395  0.00  0.00    +0.000 A 
ATOM      4  C   UNK A   0       0.906   4.219  20.320  0.00  0.00    +0.000 A 
ATOM      5  C   UNK A   0       1.309   2.977  19.836  0.00  0.00    +0.000 A 
ATOM      6  C   UNK A   0       2.631   2.800  19.450  0.00  0.00    +0.000 A 
ATOM      7  F   UNK A   0       3.023   1.611  18.971  0.00  0.00    +0.000 F 
ENDROOT
BRANCH   3   8
ATOM      8  C   UNK A   0       1.470   6.555  20.799  0.00  0.00    +0.000 C 
ATOM      9  C   UNK A   0       1.087   7.649  21.109  0.00  0.00    +0.000 C 
BRANCH   9  10
ATOM     10  C   UNK A   0       0.580   8.948  21.442  0.00  0.00    +0.000 A 
ATOM     11  C   UNK A   0      -0.130   9.148  22.626  0.00  0.00    +0.000 A 
ATOM     12  C   UNK A   0      -0.644  10.413  22.931  0.00  0.00    +0.000 A 
ATOM     13  C   UNK A   0      -0.444  11.474  22.053  0.00  0.00    +0.000 A 
ATOM     14  C   UNK A   0       0.267  11.278  20.867  0.00  0.00    +0.000 A 
ATOM     15  C   UNK A   0       0.779  10.014  20.562  0.00  0.00    +0.000 A 
ENDBRANCH   9  10
ENDBRANCH   3   8
BRANCH   1  16
ATOM     16  C   UNK A   0       4.969   3.672  19.157  0.00  0.00    +0.000 C 
BRANCH  16  17
ATOM     17  N   VAL A   1       5.240   3.937  17.733  0.00  0.00    +0.000 NA
ATOM     18  H   VAL A   1       5.588   3.078  17.308  0.00  0.00    +0.000 HD
BRANCH  17  19
ATOM     19  CA  VAL A   1       6.215   5.022  17.490  0.00  0.00    +0.000 C 
BRANCH  19  21
ATOM     20  CG1 VAL A   1       5.006   6.575  15.830  0.00  0.00    +0.000 C 
ATOM     21  CB  VAL A   1       6.122   5.535  16.015  0.00  0.00    +0.000 C 
ATOM     22  CG2 VAL A   1       5.952   4.426  14.975  0.00  0.00    +0.000 C 
ENDBRANCH  19  21
BRANCH  19  23
ATOM     23  C   VAL A   1       7.660   4.610  17.877  0.00  0.00    +0.000 C 
BRANCH  23  24
ATOM     24  O   VAL A   1       8.089   5.217  19.090  0.00  0.00    +0.000 OA
ATOM     25  H   VAL A   1       8.633   5.983  18.834  0.00  0.00    +0.000 HD
ENDBRANCH  23  24
ENDBRANCH  19  23
ENDBRANCH  17  19
ENDBRANCH  16  17
ENDBRANCH   1  16
TORSDOF 8
ENDMDL
