MODEL 1
REMARK VINA RESULT:      -9.2      0.000      0.000
REMARK  Name = 
REMARK  5 active torsions:
REMARK  status: ('A' for Active; 'I' for Inactive)
REMARK    1  A    between atoms: C_4  and  C_5
REMARK    2  A    between atoms: C_10  and  C_11
REMARK    3  A    between atoms: C_15  and  O_16
REMARK    4  A    between atoms: O_16  and  C_17
REMARK    5  A    between atoms: N_22  and  C_23
REMARK                            x       y       z     vdW  Elec       q    Type
REMARK                         _______ _______ _______ _____ _____    ______ ____
ROOT
ATOM      1  C   UNL     1       1.001   9.968  18.544  0.00  0.00    +0.000 C 
ATOM      2  O   UNL     1       1.479   9.911  17.413  0.00  0.00    +0.000 OA
ATOM      3  N   UNL     1       1.229   9.041  19.545  0.00  0.00    +0.000 N 
ATOM      4  C   UNL     1       2.043   7.948  19.330  0.00  0.00    +0.000 A 
ATOM      5  C   UNL     1       3.203   7.891  18.543  0.00  0.00    +0.000 A 
ATOM      6  C   UNL     1       3.616   6.571  18.548  0.00  0.00    +0.000 A 
ATOM      7  N   UNL     1       2.610   5.896  19.249  0.00  0.00    +0.000 N 
ATOM      8  N   UNL     1       1.801   6.775  19.918  0.00  0.00    +0.000 NA
ATOM      9  H   UNL     1       0.550   8.911  20.284  0.00  0.00    +0.000 HD
ENDROOT
BRANCH   1  13
ATOM     10  O   UNL     1      -0.303  14.590  18.408  0.00  0.00    +0.000 OA
ATOM     11  C   UNL     1      -0.357  13.378  18.442  0.00  0.00    +0.000 C 
ATOM     12  C   UNL     1       0.742  12.449  18.896  0.00  0.00    +0.000 C 
ATOM     13  C   UNL     1       0.057  11.080  18.949  0.00  0.00    +0.000 C 
ATOM     14  C   UNL     1      -1.105  11.226  17.971  0.00  0.00    +0.000 C 
ATOM     15  N   UNL     1      -1.433  12.619  18.040  0.00  0.00    +0.000 N 
ATOM     16  H   UNL     1      -2.209  13.060  17.563  0.00  0.00    +0.000 HD
ENDBRANCH   1  13
BRANCH   6  17
ATOM     17  C   UNL     1       4.826   6.010  17.926  0.00  0.00    +0.000 A 
ATOM     18  C   UNL     1       5.905   5.521  18.677  0.00  0.00    +0.000 A 
ATOM     19  C   UNL     1       6.974   4.885  18.047  0.00  0.00    +0.000 A 
ATOM     20  C   UNL     1       7.036   4.839  16.656  0.00  0.00    +0.000 A 
ATOM     21  C   UNL     1       6.035   5.438  15.891  0.00  0.00    +0.000 A 
ATOM     22  C   UNL     1       4.909   5.959  16.524  0.00  0.00    +0.000 A 
BRANCH  21  23
ATOM     23  O   UNL     1       6.239   5.419  14.545  0.00  0.00    +0.000 OA
BRANCH  23  24
ATOM     24  C   UNL     1       6.055   4.186  13.852  0.00  0.00    +0.000 C 
ATOM     25  F   UNL     1       6.239   3.086  14.612  0.00  0.00    +0.000 F 
ATOM     26  F   UNL     1       4.790   4.147  13.375  0.00  0.00    +0.000 F 
ATOM     27  F   UNL     1       6.903   4.138  12.801  0.00  0.00    +0.000 F 
ENDBRANCH  23  24
ENDBRANCH  21  23
ENDBRANCH   6  17
BRANCH   7  28
ATOM     28  C   UNL     1       2.367   4.493  19.337  0.00  0.00    +0.000 A 
ATOM     29  C   UNL     1       1.897   3.799  18.216  0.00  0.00    +0.000 A 
ATOM     30  C   UNL     1       1.483   2.469  18.348  0.00  0.00    +0.000 A 
ATOM     31  C   UNL     1       1.559   1.827  19.582  0.00  0.00    +0.000 A 
ATOM     32  C   UNL     1       2.123   2.476  20.674  0.00  0.00    +0.000 A 
ATOM     33  C   UNL     1       2.551   3.800  20.542  0.00  0.00    +0.000 A 
ENDBRANCH   7  28
TORSDOF 5
ENDMDL
MODEL 2
REMARK VINA RESULT:      -9.1      1.130      1.491
REMARK  Name = 
REMARK  5 active torsions:
REMARK  status: ('A' for Active; 'I' for Inactive)
REMARK    1  A    between atoms: C_4  and  C_5
REMARK    2  A    between atoms: C_10  and  C_11
REMARK    3  A    between atoms: C_15  and  O_16
REMARK    4  A    between atoms: O_16  and  C_17
REMARK    5  A    between atoms: N_22  and  C_23
REMARK                            x       y       z     vdW  Elec       q    Type
REMARK                         _______ _______ _______ _____ _____    ______ ____
ROOT
ATOM      1  C   UNL     1       1.252   9.831  18.374  0.00  0.00    +0.000 C 
ATOM      2  O   UNL     1       1.762   9.810  17.257  0.00  0.00    +0.000 OA
ATOM      3  N   UNL     1       1.448   8.872  19.351  0.00  0.00    +0.000 N 
ATOM      4  C   UNL     1       2.266   7.784  19.124  0.00  0.00    +0.000 A 
ATOM      5  C   UNL     1       3.448   7.749  18.370  0.00  0.00    +0.000 A 
ATOM      6  C   UNL     1       3.858   6.428  18.344  0.00  0.00    +0.000 A 
ATOM      7  N   UNL     1       2.830   5.734  18.992  0.00  0.00    +0.000 N 
ATOM      8  N   UNL     1       2.004   6.593  19.666  0.00  0.00    +0.000 NA
ATOM      9  H   UNL     1       0.748   8.720  20.065  0.00  0.00    +0.000 HD
ENDROOT
BRANCH   1  13
ATOM     10  O   UNL     1      -1.606  11.862  21.661  0.00  0.00    +0.000 OA
ATOM     11  C   UNL     1      -0.818  11.720  20.748  0.00  0.00    +0.000 C 
ATOM     12  C   UNL     1      -0.638  10.477  19.911  0.00  0.00    +0.000 C 
ATOM     13  C   UNL     1       0.298  10.934  18.788  0.00  0.00    +0.000 C 
ATOM     14  C   UNL     1       1.033  12.123  19.398  0.00  0.00    +0.000 C 
ATOM     15  N   UNL     1       0.085  12.669  20.323  0.00  0.00    +0.000 N 
ATOM     16  H   UNL     1       0.216  13.515  20.863  0.00  0.00    +0.000 HD
ENDBRANCH   1  13
BRANCH   6  17
ATOM     17  C   UNL     1       5.084   5.884  17.740  0.00  0.00    +0.000 A 
ATOM     18  C   UNL     1       6.170   5.435  18.506  0.00  0.00    +0.000 A 
ATOM     19  C   UNL     1       7.257   4.813  17.895  0.00  0.00    +0.000 A 
ATOM     20  C   UNL     1       7.329   4.741  16.505  0.00  0.00    +0.000 A 
ATOM     21  C   UNL     1       6.318   5.301  15.722  0.00  0.00    +0.000 A 
ATOM     22  C   UNL     1       5.177   5.808  16.340  0.00  0.00    +0.000 A 
BRANCH  21  23
ATOM     23  O   UNL     1       6.530   5.260  14.379  0.00  0.00    +0.000 OA
BRANCH  23  24
ATOM     24  C   UNL     1       6.102   4.103  13.663  0.00  0.00    +0.000 C 
ATOM     25  F   UNL     1       4.824   4.155  13.233  0.00  0.00    +0.000 F 
ATOM     26  F   UNL     1       6.893   3.953  12.577  0.00  0.00    +0.000 F 
ATOM     27  F   UNL     1       6.254   3.015  14.448  0.00  0.00    +0.000 F 
ENDBRANCH  23  24
ENDBRANCH  21  23
ENDBRANCH   6  17
BRANCH   7  28
ATOM     28  C   UNL     1       2.582   4.329  19.028  0.00  0.00    +0.000 A 
ATOM     29  C   UNL     1       2.632   3.586  17.842  0.00  0.00    +0.000 A 
ATOM     30  C   UNL     1       2.210   2.253  17.842  0.00  0.00    +0.000 A 
ATOM     31  C   UNL     1       1.763   1.655  19.018  0.00  0.00    +0.000 A 
ATOM     32  C   UNL     1       1.809   2.355  20.219  0.00  0.00    +0.000 A 
ATOM     33  C   UNL     1       2.245   3.683  20.226  0.00  0.00    +0.000 A 
ENDBRANCH   7  28
TORSDOF 5
ENDMDL
MODEL 3
REMARK VINA RESULT:      -9.1      0.435      1.156
REMARK  Name = 
REMARK  5 active torsions:
REMARK  status: ('A' for Active; 'I' for Inactive)
REMARK    1  A    between atoms: C_4  and  C_5
REMARK    2  A    between atoms: C_10  and  C_11
REMARK    3  A    between atoms: C_15  and  O_16
REMARK    4  A    between atoms: O_16  and  C_17
REMARK    5  A    between atoms: N_22  and  C_23
REMARK                            x       y       z     vdW  Elec       q    Type
REMARK                         _______ _______ _______ _____ _____    ______ ____
ROOT
ATOM      1  C   UNL     1       1.132   9.887  18.488  0.00  0.00    +0.000 C 
ATOM      2  O   UNL     1       1.645   9.919  17.372  0.00  0.00    +0.000 OA
ATOM      3  N   UNL     1       1.337   8.888  19.423  0.00  0.00    +0.000 N 
ATOM      4  C   UNL     1       2.164   7.818  19.151  0.00  0.00    +0.000 A 
ATOM      5  C   UNL     1       3.347   7.827  18.397  0.00  0.00    +0.000 A 
ATOM      6  C   UNL     1       3.769   6.512  18.315  0.00  0.00    +0.000 A 
ATOM      7  N   UNL     1       2.747   5.781  18.931  0.00  0.00    +0.000 N 
ATOM      8  N   UNL     1       1.912   6.603  19.640  0.00  0.00    +0.000 NA
ATOM      9  H   UNL     1       0.636   8.699  20.129  0.00  0.00    +0.000 HD
ENDROOT
BRANCH   1  13
ATOM     10  O   UNL     1      -0.370  14.451  18.422  0.00  0.00    +0.000 OA
ATOM     11  C   UNL     1      -0.371  13.237  18.461  0.00  0.00    +0.000 C 
ATOM     12  C   UNL     1       0.792  12.358  18.850  0.00  0.00    +0.000 C 
ATOM     13  C   UNL     1       0.168  10.962  18.948  0.00  0.00    +0.000 C 
ATOM     14  C   UNL     1      -1.055  11.054  18.042  0.00  0.00    +0.000 C 
ATOM     15  N   UNL     1      -1.436  12.433  18.127  0.00  0.00    +0.000 N 
ATOM     16  H   UNL     1      -2.258  12.839  17.697  0.00  0.00    +0.000 HD
ENDBRANCH   1  13
BRANCH   6  17
ATOM     17  C   UNL     1       5.001   6.005  17.690  0.00  0.00    +0.000 A 
ATOM     18  C   UNL     1       6.141   5.665  18.432  0.00  0.00    +0.000 A 
ATOM     19  C   UNL     1       7.239   5.073  17.810  0.00  0.00    +0.000 A 
ATOM     20  C   UNL     1       7.259   4.925  16.425  0.00  0.00    +0.000 A 
ATOM     21  C   UNL     1       6.187   5.378  15.657  0.00  0.00    +0.000 A 
ATOM     22  C   UNL     1       5.042   5.853  16.293  0.00  0.00    +0.000 A 
BRANCH  21  23
ATOM     23  O   UNL     1       6.347   5.272  14.309  0.00  0.00    +0.000 OA
BRANCH  23  24
ATOM     24  C   UNL     1       6.033   4.027  13.689  0.00  0.00    +0.000 C 
ATOM     25  F   UNL     1       6.873   3.672  12.694  0.00  0.00    +0.000 F 
ATOM     26  F   UNL     1       6.079   3.056  14.629  0.00  0.00    +0.000 F 
ATOM     27  F   UNL     1       4.775   4.081  13.200  0.00  0.00    +0.000 F 
ENDBRANCH  23  24
ENDBRANCH  21  23
ENDBRANCH   6  17
BRANCH   7  28
ATOM     28  C   UNL     1       2.511   4.374  18.905  0.00  0.00    +0.000 A 
ATOM     29  C   UNL     1       2.384   3.670  20.109  0.00  0.00    +0.000 A 
ATOM     30  C   UNL     1       2.339   2.273  20.092  0.00  0.00    +0.000 A 
ATOM     31  C   UNL     1       2.396   1.580  18.884  0.00  0.00    +0.000 A 
ATOM     32  C   UNL     1       2.416   2.275  17.680  0.00  0.00    +0.000 A 
ATOM     33  C   UNL     1       2.446   3.672  17.692  0.00  0.00    +0.000 A 
ENDBRANCH   7  28
TORSDOF 5
ENDMDL
MODEL 4
REMARK VINA RESULT:      -9.1      1.041      1.450
REMARK  Name = 
REMARK  5 active torsions:
REMARK  status: ('A' for Active; 'I' for Inactive)
REMARK    1  A    between atoms: C_4  and  C_5
REMARK    2  A    between atoms: C_10  and  C_11
REMARK    3  A    between atoms: C_15  and  O_16
REMARK    4  A    between atoms: O_16  and  C_17
REMARK    5  A    between atoms: N_22  and  C_23
REMARK                            x       y       z     vdW  Elec       q    Type
REMARK                         _______ _______ _______ _____ _____    ______ ____
ROOT
ATOM      1  C   UNL     1       1.230  10.071  18.428  0.00  0.00    +0.000 C 
ATOM      2  O   UNL     1       1.776  10.053  17.327  0.00  0.00    +0.000 OA
ATOM      3  N   UNL     1       1.342   9.074  19.381  0.00  0.00    +0.000 N 
ATOM      4  C   UNL     1       2.108   7.951  19.149  0.00  0.00    +0.000 A 
ATOM      5  C   UNL     1       3.312   7.874  18.432  0.00  0.00    +0.000 A 
ATOM      6  C   UNL     1       3.652   6.535  18.380  0.00  0.00    +0.000 A 
ATOM      7  N   UNL     1       2.568   5.878  18.974  0.00  0.00    +0.000 N 
ATOM      8  N   UNL     1       1.765   6.762  19.646  0.00  0.00    +0.000 NA
ATOM      9  H   UNL     1       0.610   8.940  20.068  0.00  0.00    +0.000 HD
ENDROOT
BRANCH   1  13
ATOM     10  O   UNL     1      -3.178  11.874  19.069  0.00  0.00    +0.000 OA
ATOM     11  C   UNL     1      -1.999  11.629  19.224  0.00  0.00    +0.000 C 
ATOM     12  C   UNL     1      -1.051  11.111  18.170  0.00  0.00    +0.000 C 
ATOM     13  C   UNL     1       0.322  11.210  18.843  0.00  0.00    +0.000 C 
ATOM     14  C   UNL     1      -0.007  11.163  20.331  0.00  0.00    +0.000 C 
ATOM     15  N   UNL     1      -1.310  11.753  20.409  0.00  0.00    +0.000 N 
ATOM     16  H   UNL     1      -1.815  11.944  21.266  0.00  0.00    +0.000 HD
ENDBRANCH   1  13
BRANCH   6  17
ATOM     17  C   UNL     1       4.868   5.942  17.800  0.00  0.00    +0.000 A 
ATOM     18  C   UNL     1       5.899   5.409  18.587  0.00  0.00    +0.000 A 
ATOM     19  C   UNL     1       6.972   4.747  17.993  0.00  0.00    +0.000 A 
ATOM     20  C   UNL     1       7.090   4.717  16.605  0.00  0.00    +0.000 A 
ATOM     21  C   UNL     1       6.140   5.357  15.808  0.00  0.00    +0.000 A 
ATOM     22  C   UNL     1       5.007   5.907  16.402  0.00  0.00    +0.000 A 
BRANCH  21  23
ATOM     23  O   UNL     1       6.398   5.348  14.471  0.00  0.00    +0.000 OA
BRANCH  23  24
ATOM     24  C   UNL     1       6.128   4.154  13.740  0.00  0.00    +0.000 C 
ATOM     25  F   UNL     1       6.268   3.018  14.455  0.00  0.00    +0.000 F 
ATOM     26  F   UNL     1       4.853   4.203  13.294  0.00  0.00    +0.000 F 
ATOM     27  F   UNL     1       6.947   4.097  12.667  0.00  0.00    +0.000 F 
ENDBRANCH  23  24
ENDBRANCH  21  23
ENDBRANCH   6  17
BRANCH   7  28
ATOM     28  C   UNL     1       2.245   4.489  18.959  0.00  0.00    +0.000 A 
ATOM     29  C   UNL     1       1.789   3.871  20.129  0.00  0.00    +0.000 A 
ATOM     30  C   UNL     1       1.649   2.480  20.169  0.00  0.00    +0.000 A 
ATOM     31  C   UNL     1       1.938   1.710  19.043  0.00  0.00    +0.000 A 
ATOM     32  C   UNL     1       2.291   2.326  17.848  0.00  0.00    +0.000 A 
ATOM     33  C   UNL     1       2.417   3.717  17.800  0.00  0.00    +0.000 A 
ENDBRANCH   7  28
TORSDOF 5
ENDMDL
MODEL 5
REMARK VINA RESULT:      -9.0      1.351      1.861
REMARK  Name = 
REMARK  5 active torsions:
REMARK  status: ('A' for Active; 'I' for Inactive)
REMARK    1  A    between atoms: C_4  and  C_5
REMARK    2  A    between atoms: C_10  and  C_11
REMARK    3  A    between atoms: C_15  and  O_16
REMARK    4  A    between atoms: O_16  and  C_17
REMARK    5  A    between atoms: N_22  and  C_23
REMARK                            x       y       z     vdW  Elec       q    Type
REMARK                         _______ _______ _______ _____ _____    ______ ____
ROOT
ATOM      1  C   UNL     1       1.079   9.628  18.510  0.00  0.00    +0.000 C 
ATOM      2  O   UNL     1       1.514   9.701  17.363  0.00  0.00    +0.000 OA
ATOM      3  N   UNL     1       1.424   8.649  19.424  0.00  0.00    +0.000 N 
ATOM      4  C   UNL     1       2.316   7.649  19.094  0.00  0.00    +0.000 A 
ATOM      5  C   UNL     1       3.443   7.754  18.265  0.00  0.00    +0.000 A 
ATOM      6  C   UNL     1       3.963   6.478  18.149  0.00  0.00    +0.000 A 
ATOM      7  N   UNL     1       3.046   5.666  18.826  0.00  0.00    +0.000 N 
ATOM      8  N   UNL     1       2.195   6.418  19.592  0.00  0.00    +0.000 NA
ATOM      9  H   UNL     1       0.789   8.403  20.174  0.00  0.00    +0.000 HD
ENDROOT
BRANCH   1  13
ATOM     10  O   UNL     1      -1.195  11.716  22.193  0.00  0.00    +0.000 OA
ATOM     11  C   UNL     1      -0.652  11.546  21.120  0.00  0.00    +0.000 C 
ATOM     12  C   UNL     1      -0.448  10.222  20.425  0.00  0.00    +0.000 C 
ATOM     13  C   UNL     1       0.063  10.621  19.037  0.00  0.00    +0.000 C 
ATOM     14  C   UNL     1       0.678  11.998  19.266  0.00  0.00    +0.000 C 
ATOM     15  N   UNL     1      -0.092  12.538  20.346  0.00  0.00    +0.000 N 
ATOM     16  H   UNL     1       0.001  13.474  20.720  0.00  0.00    +0.000 HD
ENDBRANCH   1  13
BRANCH   6  17
ATOM     17  C   UNL     1       5.189   6.073  17.443  0.00  0.00    +0.000 A 
ATOM     18  C   UNL     1       6.421   5.917  18.094  0.00  0.00    +0.000 A 
ATOM     19  C   UNL     1       7.525   5.412  17.409  0.00  0.00    +0.000 A 
ATOM     20  C   UNL     1       7.444   5.172  16.039  0.00  0.00    +0.000 A 
ATOM     21  C   UNL     1       6.263   5.447  15.348  0.00  0.00    +0.000 A 
ATOM     22  C   UNL     1       5.129   5.831  16.059  0.00  0.00    +0.000 A 
BRANCH  21  23
ATOM     23  O   UNL     1       6.320   5.266  14.000  0.00  0.00    +0.000 OA
BRANCH  23  24
ATOM     24  C   UNL     1       6.040   3.968  13.480  0.00  0.00    +0.000 C 
ATOM     25  F   UNL     1       6.878   3.567  12.502  0.00  0.00    +0.000 F 
ATOM     26  F   UNL     1       6.132   3.073  14.490  0.00  0.00    +0.000 F 
ATOM     27  F   UNL     1       4.775   3.943  13.009  0.00  0.00    +0.000 F 
ENDBRANCH  23  24
ENDBRANCH  21  23
ENDBRANCH   6  17
BRANCH   7  28
ATOM     28  C   UNL     1       2.924   4.245  18.808  0.00  0.00    +0.000 A 
ATOM     29  C   UNL     1       3.617   3.477  19.751  0.00  0.00    +0.000 A 
ATOM     30  C   UNL     1       3.648   2.085  19.623  0.00  0.00    +0.000 A 
ATOM     31  C   UNL     1       2.975   1.458  18.576  0.00  0.00    +0.000 A 
ATOM     32  C   UNL     1       2.199   2.206  17.697  0.00  0.00    +0.000 A 
ATOM     33  C   UNL     1       2.154   3.596  17.831  0.00  0.00    +0.000 A 
ENDBRANCH   7  28
TORSDOF 5
ENDMDL
MODEL 6
REMARK VINA RESULT:      -8.9      0.963      1.448
REMARK  Name = 
REMARK  5 active torsions:
REMARK  status: ('A' for Active; 'I' for Inactive)
REMARK    1  A    between atoms: C_4  and  C_5
REMARK    2  A    between atoms: C_10  and  C_11
REMARK    3  A    between atoms: C_15  and  O_16
REMARK    4  A    between atoms: O_16  and  C_17
REMARK    5  A    between atoms: N_22  and  C_23
REMARK                            x       y       z     vdW  Elec       q    Type
REMARK                         _______ _______ _______ _____ _____    ______ ____
ROOT
ATOM      1  C   UNL     1       0.670  10.016  18.846  0.00  0.00    +0.000 C 
ATOM      2  O   UNL     1       1.045   9.773  17.701  0.00  0.00    +0.000 OA
ATOM      3  N   UNL     1       0.945   9.231  19.951  0.00  0.00    +0.000 N 
ATOM      4  C   UNL     1       1.692   8.077  19.835  0.00  0.00    +0.000 A 
ATOM      5  C   UNL     1       2.775   7.847  18.975  0.00  0.00    +0.000 A 
ATOM      6  C   UNL     1       3.133   6.520  19.142  0.00  0.00    +0.000 A 
ATOM      7  N   UNL     1       2.164   6.007  20.012  0.00  0.00    +0.000 N 
ATOM      8  N   UNL     1       1.452   7.015  20.607  0.00  0.00    +0.000 NA
ATOM      9  H   UNL     1       0.328   9.245  20.753  0.00  0.00    +0.000 HD
ENDROOT
BRANCH   1  13
ATOM     10  O   UNL     1      -0.195  14.728  18.475  0.00  0.00    +0.000 OA
ATOM     11  C   UNL     1      -0.362  13.528  18.547  0.00  0.00    +0.000 C 
ATOM     12  C   UNL     1       0.621  12.523  19.096  0.00  0.00    +0.000 C 
ATOM     13  C   UNL     1      -0.189  11.225  19.156  0.00  0.00    +0.000 C 
ATOM     14  C   UNL     1      -1.277  11.435  18.108  0.00  0.00    +0.000 C 
ATOM     15  N   UNL     1      -1.479  12.853  18.109  0.00  0.00    +0.000 N 
ATOM     16  H   UNL     1      -2.185  13.343  17.573  0.00  0.00    +0.000 HD
ENDBRANCH   1  13
BRANCH   6  17
ATOM     17  C   UNL     1       4.260   5.812  18.515  0.00  0.00    +0.000 A 
ATOM     18  C   UNL     1       5.552   5.816  19.060  0.00  0.00    +0.000 A 
ATOM     19  C   UNL     1       6.558   5.030  18.500  0.00  0.00    +0.000 A 
ATOM     20  C   UNL     1       6.318   4.327  17.321  0.00  0.00    +0.000 A 
ATOM     21  C   UNL     1       5.075   4.417  16.693  0.00  0.00    +0.000 A 
ATOM     22  C   UNL     1       4.039   5.101  17.323  0.00  0.00    +0.000 A 
BRANCH  21  23
ATOM     23  O   UNL     1       4.976   3.768  15.500  0.00  0.00    +0.000 OA
BRANCH  23  24
ATOM     24  C   UNL     1       5.601   4.353  14.360  0.00  0.00    +0.000 C 
ATOM     25  F   UNL     1       5.740   5.693  14.426  0.00  0.00    +0.000 F 
ATOM     26  F   UNL     1       6.836   3.819  14.227  0.00  0.00    +0.000 F 
ATOM     27  F   UNL     1       4.887   4.042  13.256  0.00  0.00    +0.000 F 
ENDBRANCH  23  24
ENDBRANCH  21  23
ENDBRANCH   6  17
BRANCH   7  28
ATOM     28  C   UNL     1       1.872   4.646  20.325  0.00  0.00    +0.000 A 
ATOM     29  C   UNL     1       2.337   4.096  21.525  0.00  0.00    +0.000 A 
ATOM     30  C   UNL     1       2.214   2.721  21.749  0.00  0.00    +0.000 A 
ATOM     31  C   UNL     1       1.611   1.902  20.797  0.00  0.00    +0.000 A 
ATOM     32  C   UNL     1       1.053   2.458  19.650  0.00  0.00    +0.000 A 
ATOM     33  C   UNL     1       1.161   3.833  19.429  0.00  0.00    +0.000 A 
ENDBRANCH   7  28
TORSDOF 5
ENDMDL
MODEL 7
REMARK VINA RESULT:      -8.8      1.080      1.429
REMARK  Name = 
REMARK  5 active torsions:
REMARK  status: ('A' for Active; 'I' for Inactive)
REMARK    1  A    between atoms: C_4  and  C_5
REMARK    2  A    between atoms: C_10  and  C_11
REMARK    3  A    between atoms: C_15  and  O_16
REMARK    4  A    between atoms: O_16  and  C_17
REMARK    5  A    between atoms: N_22  and  C_23
REMARK                            x       y       z     vdW  Elec       q    Type
REMARK                         _______ _______ _______ _____ _____    ______ ____
ROOT
ATOM      1  C   UNL     1       0.830  10.058  18.447  0.00  0.00    +0.000 C 
ATOM      2  O   UNL     1       1.247   9.854  17.309  0.00  0.00    +0.000 OA
ATOM      3  N   UNL     1       1.106   9.261  19.543  0.00  0.00    +0.000 N 
ATOM      4  C   UNL     1       1.900   8.139  19.425  0.00  0.00    +0.000 A 
ATOM      5  C   UNL     1       3.016   7.970  18.592  0.00  0.00    +0.000 A 
ATOM      6  C   UNL     1       3.420   6.655  18.741  0.00  0.00    +0.000 A 
ATOM      7  N   UNL     1       2.449   6.086  19.573  0.00  0.00    +0.000 N 
ATOM      8  N   UNL     1       1.682   7.053  20.168  0.00  0.00    +0.000 NA
ATOM      9  H   UNL     1       0.466   9.233  20.328  0.00  0.00    +0.000 HD
ENDROOT
BRANCH   1  13
ATOM     10  O   UNL     1      -3.587  11.912  18.830  0.00  0.00    +0.000 OA
ATOM     11  C   UNL     1      -2.414  11.674  19.037  0.00  0.00    +0.000 C 
ATOM     12  C   UNL     1      -1.436  11.086  18.050  0.00  0.00    +0.000 C 
ATOM     13  C   UNL     1      -0.085  11.225  18.758  0.00  0.00    +0.000 C 
ATOM     14  C   UNL     1      -0.460  11.276  20.235  0.00  0.00    +0.000 C 
ATOM     15  N   UNL     1      -1.762  11.874  20.233  0.00  0.00    +0.000 N 
ATOM     16  H   UNL     1      -2.293  12.122  21.060  0.00  0.00    +0.000 HD
ENDBRANCH   1  13
BRANCH   6  17
ATOM     17  C   UNL     1       4.592   6.006  18.133  0.00  0.00    +0.000 A 
ATOM     18  C   UNL     1       5.570   5.346  18.891  0.00  0.00    +0.000 A 
ATOM     19  C   UNL     1       6.594   4.639  18.264  0.00  0.00    +0.000 A 
ATOM     20  C   UNL     1       6.723   4.684  16.877  0.00  0.00    +0.000 A 
ATOM     21  C   UNL     1       5.835   5.443  16.115  0.00  0.00    +0.000 A 
ATOM     22  C   UNL     1       4.742   6.044  16.736  0.00  0.00    +0.000 A 
BRANCH  21  23
ATOM     23  O   UNL     1       6.105   5.495  14.782  0.00  0.00    +0.000 OA
BRANCH  23  24
ATOM     24  C   UNL     1       5.995   4.291  14.024  0.00  0.00    +0.000 C 
ATOM     25  F   UNL     1       6.910   4.166  13.041  0.00  0.00    +0.000 F 
ATOM     26  F   UNL     1       6.148   3.242  14.863  0.00  0.00    +0.000 F 
ATOM     27  F   UNL     1       4.759   4.221  13.483  0.00  0.00    +0.000 F 
ENDBRANCH  23  24
ENDBRANCH  21  23
ENDBRANCH   6  17
BRANCH   7  28
ATOM     28  C   UNL     1       2.203   4.708  19.849  0.00  0.00    +0.000 A 
ATOM     29  C   UNL     1       1.747   3.867  18.827  0.00  0.00    +0.000 A 
ATOM     30  C   UNL     1       1.330   2.568  19.133  0.00  0.00    +0.000 A 
ATOM     31  C   UNL     1       1.386   2.101  20.445  0.00  0.00    +0.000 A 
ATOM     32  C   UNL     1       1.935   2.894  21.446  0.00  0.00    +0.000 A 
ATOM     33  C   UNL     1       2.367   4.187  21.141  0.00  0.00    +0.000 A 
ENDBRANCH   7  28
TORSDOF 5
ENDMDL
MODEL 8
REMARK VINA RESULT:      -8.8      3.638      5.324
REMARK  Name = 
REMARK  5 active torsions:
REMARK  status: ('A' for Active; 'I' for Inactive)
REMARK    1  A    between atoms: C_4  and  C_5
REMARK    2  A    between atoms: C_10  and  C_11
REMARK    3  A    between atoms: C_15  and  O_16
REMARK    4  A    between atoms: O_16  and  C_17
REMARK    5  A    between atoms: N_22  and  C_23
REMARK                            x       y       z     vdW  Elec       q    Type
REMARK                         _______ _______ _______ _____ _____    ______ ____
ROOT
ATOM      1  C   UNL     1       1.415  10.252  18.916  0.00  0.00    +0.000 C 
ATOM      2  O   UNL     1       1.112   9.546  19.875  0.00  0.00    +0.000 OA
ATOM      3  N   UNL     1       2.097   9.812  17.796  0.00  0.00    +0.000 N 
ATOM      4  C   UNL     1       2.496   8.497  17.677  0.00  0.00    +0.000 A 
ATOM      5  C   UNL     1       1.818   7.357  18.132  0.00  0.00    +0.000 A 
ATOM      6  C   UNL     1       2.648   6.280  17.880  0.00  0.00    +0.000 A 
ATOM      7  N   UNL     1       3.825   6.857  17.389  0.00  0.00    +0.000 N 
ATOM      8  N   UNL     1       3.625   8.168  17.047  0.00  0.00    +0.000 NA
ATOM      9  H   UNL     1       2.644  10.461  17.244  0.00  0.00    +0.000 HD
ENDROOT
BRANCH   1  13
ATOM     10  O   UNL     1       1.295  14.543  21.077  0.00  0.00    +0.000 OA
ATOM     11  C   UNL     1       1.409  13.682  20.227  0.00  0.00    +0.000 C 
ATOM     12  C   UNL     1       0.848  12.283  20.296  0.00  0.00    +0.000 C 
ATOM     13  C   UNL     1       1.088  11.731  18.887  0.00  0.00    +0.000 C 
ATOM     14  C   UNL     1       2.258  12.563  18.373  0.00  0.00    +0.000 C 
ATOM     15  N   UNL     1       2.102  13.819  19.046  0.00  0.00    +0.000 N 
ATOM     16  H   UNL     1       2.674  14.640  18.891  0.00  0.00    +0.000 HD
ENDBRANCH   1  13
BRANCH   6  17
ATOM     17  C   UNL     1       2.360   4.855  18.108  0.00  0.00    +0.000 A 
ATOM     18  C   UNL     1       2.619   3.867  17.148  0.00  0.00    +0.000 A 
ATOM     19  C   UNL     1       2.446   2.519  17.455  0.00  0.00    +0.000 A 
ATOM     20  C   UNL     1       1.899   2.149  18.682  0.00  0.00    +0.000 A 
ATOM     21  C   UNL     1       1.512   3.126  19.599  0.00  0.00    +0.000 A 
ATOM     22  C   UNL     1       1.803   4.463  19.338  0.00  0.00    +0.000 A 
BRANCH  21  23
ATOM     23  O   UNL     1       0.903   2.662  20.725  0.00  0.00    +0.000 OA
BRANCH  23  24
ATOM     24  C   UNL     1       1.662   2.612  21.931  0.00  0.00    +0.000 C 
ATOM     25  F   UNL     1       2.745   1.809  21.876  0.00  0.00    +0.000 F 
ATOM     26  F   UNL     1       2.092   3.861  22.219  0.00  0.00    +0.000 F 
ATOM     27  F   UNL     1       0.863   2.198  22.939  0.00  0.00    +0.000 F 
ENDBRANCH  23  24
ENDBRANCH  21  23
ENDBRANCH   6  17
BRANCH   7  28
ATOM     28  C   UNL     1       5.110   6.261  17.215  0.00  0.00    +0.000 A 
ATOM     29  C   UNL     1       5.552   5.933  15.928  0.00  0.00    +0.000 A 
ATOM     30  C   UNL     1       6.723   5.184  15.768  0.00  0.00    +0.000 A 
ATOM     31  C   UNL     1       7.462   4.786  16.881  0.00  0.00    +0.000 A 
ATOM     32  C   UNL     1       7.085   5.198  18.154  0.00  0.00    +0.000 A 
ATOM     33  C   UNL     1       5.924   5.959  18.316  0.00  0.00    +0.000 A 
ENDBRANCH   7  28
TORSDOF 5
ENDMDL
MODEL 9
REMARK VINA RESULT:      -8.8      2.339      2.687
REMARK  Name = 
REMARK  5 active torsions:
REMARK  status: ('A' for Active; 'I' for Inactive)
REMARK    1  A    between atoms: C_4  and  C_5
REMARK    2  A    between atoms: C_10  and  C_11
REMARK    3  A    between atoms: C_15  and  O_16
REMARK    4  A    between atoms: O_16  and  C_17
REMARK    5  A    between atoms: N_22  and  C_23
REMARK                            x       y       z     vdW  Elec       q    Type
REMARK                         _______ _______ _______ _____ _____    ______ ____
ROOT
ATOM      1  C   UNL     1       0.094  10.426  19.408  0.00  0.00    +0.000 C 
ATOM      2  O   UNL     1       0.082  10.185  18.203  0.00  0.00    +0.000 OA
ATOM      3  N   UNL     1       0.733   9.653  20.361  0.00  0.00    +0.000 N 
ATOM      4  C   UNL     1       1.428   8.516  20.005  0.00  0.00    +0.000 A 
ATOM      5  C   UNL     1       2.177   8.306  18.838  0.00  0.00    +0.000 A 
ATOM      6  C   UNL     1       2.600   6.989  18.876  0.00  0.00    +0.000 A 
ATOM      7  N   UNL     1       1.980   6.459  20.012  0.00  0.00    +0.000 N 
ATOM      8  N   UNL     1       1.478   7.453  20.810  0.00  0.00    +0.000 NA
ATOM      9  H   UNL     1       0.411   9.657  21.320  0.00  0.00    +0.000 HD
ENDROOT
BRANCH   1  13
ATOM     10  O   UNL     1      -0.617  15.171  19.668  0.00  0.00    +0.000 OA
ATOM     11  C   UNL     1      -0.821  13.974  19.648  0.00  0.00    +0.000 C 
ATOM     12  C   UNL     1       0.198  12.893  19.911  0.00  0.00    +0.000 C 
ATOM     13  C   UNL     1      -0.645  11.616  19.985  0.00  0.00    +0.000 C 
ATOM     14  C   UNL     1      -1.888  11.963  19.172  0.00  0.00    +0.000 C 
ATOM     15  N   UNL     1      -2.025  13.378  19.351  0.00  0.00    +0.000 N 
ATOM     16  H   UNL     1      -2.791  13.940  18.999  0.00  0.00    +0.000 HD
ENDBRANCH   1  13
BRANCH   6  17
ATOM     17  C   UNL     1       3.478   6.304  17.914  0.00  0.00    +0.000 A 
ATOM     18  C   UNL     1       4.270   6.996  16.986  0.00  0.00    +0.000 A 
ATOM     19  C   UNL     1       5.178   6.310  16.181  0.00  0.00    +0.000 A 
ATOM     20  C   UNL     1       5.219   4.918  16.206  0.00  0.00    +0.000 A 
ATOM     21  C   UNL     1       4.344   4.207  17.029  0.00  0.00    +0.000 A 
ATOM     22  C   UNL     1       3.529   4.899  17.921  0.00  0.00    +0.000 A 
BRANCH  21  23
ATOM     23  O   UNL     1       4.401   2.852  16.909  0.00  0.00    +0.000 OA
BRANCH  23  24
ATOM     24  C   UNL     1       3.616   2.062  17.799  0.00  0.00    +0.000 C 
ATOM     25  F   UNL     1       2.295   2.056  17.523  0.00  0.00    +0.000 F 
ATOM     26  F   UNL     1       4.053   0.784  17.737  0.00  0.00    +0.000 F 
ATOM     27  F   UNL     1       3.795   2.507  19.062  0.00  0.00    +0.000 F 
ENDBRANCH  23  24
ENDBRANCH  21  23
ENDBRANCH   6  17
BRANCH   7  28
ATOM     28  C   UNL     1       1.838   5.093  20.400  0.00  0.00    +0.000 A 
ATOM     29  C   UNL     1       0.899   4.283  19.751  0.00  0.00    +0.000 A 
ATOM     30  C   UNL     1       0.626   3.004  20.248  0.00  0.00    +0.000 A 
ATOM     31  C   UNL     1       1.301   2.525  21.370  0.00  0.00    +0.000 A 
ATOM     32  C   UNL     1       2.309   3.283  21.955  0.00  0.00    +0.000 A 
ATOM     33  C   UNL     1       2.595   4.555  21.452  0.00  0.00    +0.000 A 
ENDBRANCH   7  28
TORSDOF 5
ENDMDL
