MODEL 1
REMARK VINA RESULT:      -8.6      0.000      0.000
REMARK  Name = 
REMARK  7 active torsions:
REMARK  status: ('A' for Active; 'I' for Inactive)
REMARK    1  A    between atoms: C_1  and  N_2
REMARK    2  A    between atoms: C_4  and  C_5
REMARK    3  A    between atoms: C_17  and  C_19
REMARK    4  A    between atoms: C_19  and  C_20
REMARK    5  A    between atoms: C_20  and  N_21
REMARK    6  A    between atoms: C_20  and  C_22
REMARK    7  A    between atoms: C_22  and  C_23
REMARK                            x       y       z     vdW  Elec       q    Type
REMARK                         _______ _______ _______ _____ _____    ______ ____
ROOT
ATOM      1  C   UNL     1       1.877   3.564  21.369  0.00  0.00    +0.000 C 
ATOM      2  N   UNL     1       2.316   4.666  20.545  0.00  0.00    +0.000 N 
ATOM      3  N   UNL     1       1.707   5.863  20.655  0.00  0.00    +0.000 NA
ATOM      4  C   UNL     1       2.295   6.640  19.726  0.00  0.00    +0.000 A 
ATOM      5  C   UNL     1       3.354   5.936  19.090  0.00  0.00    +0.000 A 
ATOM      6  C   UNL     1       3.308   4.662  19.615  0.00  0.00    +0.000 A 
ATOM      7  C   UNL     1       4.159   3.530  19.170  0.00  0.00    +0.000 C 
ATOM      8  C   UNL     1       5.340   4.089  18.336  0.00  0.00    +0.000 C 
ATOM      9  N   UNL     1       4.926   5.180  17.421  0.00  0.00    +0.000 N 
ATOM     10  C   UNL     1       5.160   5.266  16.059  0.00  0.00    +0.000 C 
ATOM     11  O   UNL     1       4.891   6.289  15.418  0.00  0.00    +0.000 OA
ATOM     12  C   UNL     1       4.349   6.368  18.071  0.00  0.00    +0.000 C 
ENDROOT
BRANCH   4  13
ATOM     13  C   UNL     1       1.833   8.006  19.474  0.00  0.00    +0.000 A 
ATOM     14  C   UNL     1       2.028   8.608  18.223  0.00  0.00    +0.000 A 
ATOM     15  C   UNL     1       1.593   9.918  17.995  0.00  0.00    +0.000 A 
ATOM     16  C   UNL     1       0.958  10.621  19.011  0.00  0.00    +0.000 A 
ATOM     17  F   UNL     1       0.547  11.877  18.793  0.00  0.00    +0.000 F 
ATOM     18  C   UNL     1       0.757  10.046  20.258  0.00  0.00    +0.000 A 
ATOM     19  C   UNL     1       1.211   8.748  20.492  0.00  0.00    +0.000 A 
ENDBRANCH   4  13
BRANCH  10  20
ATOM     20  C   UNL     1       5.761   4.093  15.316  0.00  0.00    +0.000 C 
BRANCH  20  21
ATOM     21  C   UNL     1       7.104   4.459  14.656  0.00  0.00    +0.000 C 
BRANCH  21  22
ATOM     22  N   UNL     1       7.629   5.670  15.315  0.00  0.00    +0.000 NA
ATOM     23  H   UNL     1       8.616   5.793  15.086  0.00  0.00    +0.000 HD
ATOM     24  H   UNL     1       7.159   6.481  14.905  0.00  0.00    +0.000 HD
ENDBRANCH  21  22
BRANCH  21  25
ATOM     25  C   UNL     1       6.944   4.710  13.139  0.00  0.00    +0.000 C 
BRANCH  25  26
ATOM     26  C   UNL     1       6.273   3.659  12.281  0.00  0.00    +0.000 A 
ATOM     27  C   UNL     1       4.891   3.757  12.062  0.00  0.00    +0.000 A 
ATOM     28  C   UNL     1       4.211   2.784  11.339  0.00  0.00    +0.000 A 
ATOM     29  F   UNL     1       2.891   2.899  11.150  0.00  0.00    +0.000 F 
ATOM     30  C   UNL     1       4.880   1.679  10.821  0.00  0.00    +0.000 A 
ATOM     31  C   UNL     1       6.252   1.560  11.031  0.00  0.00    +0.000 A 
ATOM     32  C   UNL     1       6.934   2.538  11.757  0.00  0.00    +0.000 A 
ATOM     33  F   UNL     1       8.250   2.372  11.950  0.00  0.00    +0.000 F 
ENDBRANCH  25  26
ENDBRANCH  21  25
ENDBRANCH  20  21
ENDBRANCH  10  20
TORSDOF 6
ENDMDL
MODEL 2
REMARK VINA RESULT:      -8.3      4.456      6.967
REMARK  Name = 
REMARK  7 active torsions:
REMARK  status: ('A' for Active; 'I' for Inactive)
REMARK    1  A    between atoms: C_1  and  N_2
REMARK    2  A    between atoms: C_4  and  C_5
REMARK    3  A    between atoms: C_17  and  C_19
REMARK    4  A    between atoms: C_19  and  C_20
REMARK    5  A    between atoms: C_20  and  N_21
REMARK    6  A    between atoms: C_20  and  C_22
REMARK    7  A    between atoms: C_22  and  C_23
REMARK                            x       y       z     vdW  Elec       q    Type
REMARK                         _______ _______ _______ _____ _____    ______ ____
ROOT
ATOM      1  C   UNL     1       2.267  13.722  18.019  0.00  0.00    +0.000 C 
ATOM      2  N   UNL     1       1.472  12.745  18.724  0.00  0.00    +0.000 N 
ATOM      3  N   UNL     1       0.508  13.157  19.571  0.00  0.00    +0.000 NA
ATOM      4  C   UNL     1       0.005  12.028  20.104  0.00  0.00    +0.000 A 
ATOM      5  C   UNL     1       0.608  10.888  19.506  0.00  0.00    +0.000 A 
ATOM      6  C   UNL     1       1.570  11.391  18.657  0.00  0.00    +0.000 A 
ATOM      7  C   UNL     1       2.539  10.567  17.889  0.00  0.00    +0.000 C 
ATOM      8  C   UNL     1       2.051   9.097  17.882  0.00  0.00    +0.000 C 
ATOM      9  N   UNL     1       1.510   8.669  19.195  0.00  0.00    +0.000 N 
ATOM     10  C   UNL     1       1.873   7.553  19.929  0.00  0.00    +0.000 C 
ATOM     11  O   UNL     1       1.256   7.217  20.947  0.00  0.00    +0.000 OA
ATOM     12  C   UNL     1       0.348   9.432  19.680  0.00  0.00    +0.000 C 
ENDROOT
BRANCH   4  13
ATOM     13  C   UNL     1      -1.014  12.070  21.154  0.00  0.00    +0.000 A 
ATOM     14  C   UNL     1      -0.797  11.442  22.388  0.00  0.00    +0.000 A 
ATOM     15  C   UNL     1      -1.781  11.478  23.382  0.00  0.00    +0.000 A 
ATOM     16  C   UNL     1      -2.975  12.147  23.145  0.00  0.00    +0.000 A 
ATOM     17  F   UNL     1      -3.919  12.176  24.095  0.00  0.00    +0.000 F 
ATOM     18  C   UNL     1      -3.213  12.773  21.930  0.00  0.00    +0.000 A 
ATOM     19  C   UNL     1      -2.240  12.718  20.931  0.00  0.00    +0.000 A 
ENDBRANCH   4  13
BRANCH  10  20
ATOM     20  C   UNL     1       3.049   6.707  19.492  0.00  0.00    +0.000 C 
BRANCH  20  21
ATOM     21  C   UNL     1       2.630   5.620  18.484  0.00  0.00    +0.000 C 
BRANCH  21  22
ATOM     22  N   UNL     1       1.730   4.674  19.170  0.00  0.00    +0.000 NA
ATOM     23  H   UNL     1       2.059   4.502  20.119  0.00  0.00    +0.000 HD
ATOM     24  H   UNL     1       0.820   5.129  19.283  0.00  0.00    +0.000 HD
ENDBRANCH  21  22
BRANCH  21  25
ATOM     25  C   UNL     1       3.855   4.867  17.915  0.00  0.00    +0.000 C 
BRANCH  25  26
ATOM     26  C   UNL     1       5.216   5.527  17.959  0.00  0.00    +0.000 A 
ATOM     27  C   UNL     1       6.106   5.159  18.978  0.00  0.00    +0.000 A 
ATOM     28  C   UNL     1       7.342   5.781  19.107  0.00  0.00    +0.000 A 
ATOM     29  F   UNL     1       8.170   5.414  20.093  0.00  0.00    +0.000 F 
ATOM     30  C   UNL     1       7.728   6.793  18.235  0.00  0.00    +0.000 A 
ATOM     31  C   UNL     1       6.858   7.177  17.217  0.00  0.00    +0.000 A 
ATOM     32  C   UNL     1       5.616   6.553  17.089  0.00  0.00    +0.000 A 
ATOM     33  F   UNL     1       4.804   6.968  16.107  0.00  0.00    +0.000 F 
ENDBRANCH  25  26
ENDBRANCH  21  25
ENDBRANCH  20  21
ENDBRANCH  10  20
TORSDOF 6
ENDMDL
MODEL 3
REMARK VINA RESULT:      -8.3      4.628      7.070
REMARK  Name = 
REMARK  7 active torsions:
REMARK  status: ('A' for Active; 'I' for Inactive)
REMARK    1  A    between atoms: C_1  and  N_2
REMARK    2  A    between atoms: C_4  and  C_5
REMARK    3  A    between atoms: C_17  and  C_19
REMARK    4  A    between atoms: C_19  and  C_20
REMARK    5  A    between atoms: C_20  and  N_21
REMARK    6  A    between atoms: C_20  and  C_22
REMARK    7  A    between atoms: C_22  and  C_23
REMARK                            x       y       z     vdW  Elec       q    Type
REMARK                         _______ _______ _______ _____ _____    ______ ____
ROOT
ATOM      1  C   UNL     1       2.180  14.056  18.177  0.00  0.00    +0.000 C 
ATOM      2  N   UNL     1       1.389  13.043  18.835  0.00  0.00    +0.000 N 
ATOM      3  N   UNL     1       0.418  13.411  19.693  0.00  0.00    +0.000 NA
ATOM      4  C   UNL     1      -0.078  12.255  20.175  0.00  0.00    +0.000 A 
ATOM      5  C   UNL     1       0.539  11.147  19.533  0.00  0.00    +0.000 A 
ATOM      6  C   UNL     1       1.501  11.694  18.711  0.00  0.00    +0.000 A 
ATOM      7  C   UNL     1       2.482  10.912  17.916  0.00  0.00    +0.000 C 
ATOM      8  C   UNL     1       2.007   9.439  17.843  0.00  0.00    +0.000 C 
ATOM      9  N   UNL     1       1.463   8.951  19.134  0.00  0.00    +0.000 N 
ATOM     10  C   UNL     1       1.832   7.808  19.822  0.00  0.00    +0.000 C 
ATOM     11  O   UNL     1       1.213   7.424  20.821  0.00  0.00    +0.000 OA
ATOM     12  C   UNL     1       0.291   9.683  19.645  0.00  0.00    +0.000 C 
ENDROOT
BRANCH   4  13
ATOM     13  C   UNL     1      -1.103  12.243  21.220  0.00  0.00    +0.000 A 
ATOM     14  C   UNL     1      -0.884  11.569  22.430  0.00  0.00    +0.000 A 
ATOM     15  C   UNL     1      -1.874  11.554  23.419  0.00  0.00    +0.000 A 
ATOM     16  C   UNL     1      -3.075  12.218  23.202  0.00  0.00    +0.000 A 
ATOM     17  F   UNL     1      -4.024  12.199  24.147  0.00  0.00    +0.000 F 
ATOM     18  C   UNL     1      -3.314  12.890  22.011  0.00  0.00    +0.000 A 
ATOM     19  C   UNL     1      -2.335  12.886  21.017  0.00  0.00    +0.000 A 
ENDBRANCH   4  13
BRANCH  10  20
ATOM     20  C   UNL     1       3.018   6.992  19.356  0.00  0.00    +0.000 C 
BRANCH  20  21
ATOM     21  C   UNL     1       2.628   5.994  18.251  0.00  0.00    +0.000 C 
BRANCH  21  22
ATOM     22  N   UNL     1       2.006   4.817  18.886  0.00  0.00    +0.000 NA
ATOM     23  H   UNL     1       1.035   5.020  19.125  0.00  0.00    +0.000 HD
ATOM     24  H   UNL     1       1.957   4.070  18.188  0.00  0.00    +0.000 HD
ENDBRANCH  21  22
BRANCH  21  25
ATOM     25  C   UNL     1       3.856   5.557  17.417  0.00  0.00    +0.000 C 
BRANCH  25  26
ATOM     26  C   UNL     1       5.246   5.852  17.936  0.00  0.00    +0.000 A 
ATOM     27  C   UNL     1       6.009   6.834  17.288  0.00  0.00    +0.000 A 
ATOM     28  C   UNL     1       7.315   7.099  17.678  0.00  0.00    +0.000 A 
ATOM     29  F   UNL     1       8.022   8.038  17.038  0.00  0.00    +0.000 F 
ATOM     30  C   UNL     1       7.909   6.389  18.717  0.00  0.00    +0.000 A 
ATOM     31  C   UNL     1       7.171   5.406  19.372  0.00  0.00    +0.000 A 
ATOM     32  C   UNL     1       5.859   5.140  18.979  0.00  0.00    +0.000 A 
ATOM     33  F   UNL     1       5.194   4.173  19.625  0.00  0.00    +0.000 F 
ENDBRANCH  25  26
ENDBRANCH  21  25
ENDBRANCH  20  21
ENDBRANCH  10  20
TORSDOF 6
ENDMDL
MODEL 4
REMARK VINA RESULT:      -8.3      2.086      8.194
REMARK  Name = 
REMARK  7 active torsions:
REMARK  status: ('A' for Active; 'I' for Inactive)
REMARK    1  A    between atoms: C_1  and  N_2
REMARK    2  A    between atoms: C_4  and  C_5
REMARK    3  A    between atoms: C_17  and  C_19
REMARK    4  A    between atoms: C_19  and  C_20
REMARK    5  A    between atoms: C_20  and  N_21
REMARK    6  A    between atoms: C_20  and  C_22
REMARK    7  A    between atoms: C_22  and  C_23
REMARK                            x       y       z     vdW  Elec       q    Type
REMARK                         _______ _______ _______ _____ _____    ______ ____
ROOT
ATOM      1  C   UNL     1       7.888   7.689  18.009  0.00  0.00    +0.000 C 
ATOM      2  N   UNL     1       7.308   6.520  17.392  0.00  0.00    +0.000 N 
ATOM      3  N   UNL     1       7.525   6.280  16.084  0.00  0.00    +0.000 NA
ATOM      4  C   UNL     1       6.810   5.173  15.808  0.00  0.00    +0.000 A 
ATOM      5  C   UNL     1       6.211   4.664  16.992  0.00  0.00    +0.000 A 
ATOM      6  C   UNL     1       6.521   5.578  17.977  0.00  0.00    +0.000 A 
ATOM      7  C   UNL     1       6.016   5.526  19.372  0.00  0.00    +0.000 C 
ATOM      8  C   UNL     1       5.435   4.115  19.643  0.00  0.00    +0.000 C 
ATOM      9  N   UNL     1       4.655   3.590  18.496  0.00  0.00    +0.000 N 
ATOM     10  C   UNL     1       3.364   3.092  18.517  0.00  0.00    +0.000 C 
ATOM     11  O   UNL     1       2.861   2.550  17.525  0.00  0.00    +0.000 OA
ATOM     12  C   UNL     1       5.405   3.437  17.237  0.00  0.00    +0.000 C 
ENDROOT
BRANCH   4  13
ATOM     13  C   UNL     1       6.717   4.647  14.445  0.00  0.00    +0.000 A 
ATOM     14  C   UNL     1       7.663   5.005  13.474  0.00  0.00    +0.000 A 
ATOM     15  C   UNL     1       7.560   4.505  12.171  0.00  0.00    +0.000 A 
ATOM     16  C   UNL     1       6.520   3.645  11.842  0.00  0.00    +0.000 A 
ATOM     17  F   UNL     1       6.419   3.172  10.593  0.00  0.00    +0.000 F 
ATOM     18  C   UNL     1       5.571   3.279  12.787  0.00  0.00    +0.000 A 
ATOM     19  C   UNL     1       5.661   3.795  14.080  0.00  0.00    +0.000 A 
ENDBRANCH   4  13
BRANCH  10  20
ATOM     20  C   UNL     1       2.530   3.199  19.775  0.00  0.00    +0.000 C 
BRANCH  20  21
ATOM     21  C   UNL     1       1.655   4.467  19.776  0.00  0.00    +0.000 C 
BRANCH  21  22
ATOM     22  N   UNL     1       1.176   4.700  18.400  0.00  0.00    +0.000 NA
ATOM     23  H   UNL     1       0.884   5.672  18.291  0.00  0.00    +0.000 HD
ATOM     24  H   UNL     1       1.972   4.590  17.766  0.00  0.00    +0.000 HD
ENDBRANCH  21  22
BRANCH  21  25
ATOM     25  C   UNL     1       2.439   5.701  20.280  0.00  0.00    +0.000 C 
BRANCH  25  26
ATOM     26  C   UNL     1       2.210   7.043  19.620  0.00  0.00    +0.000 A 
ATOM     27  C   UNL     1       1.426   7.994  20.290  0.00  0.00    +0.000 A 
ATOM     28  C   UNL     1       1.127   9.217  19.702  0.00  0.00    +0.000 A 
ATOM     29  F   UNL     1       0.372  10.104  20.362  0.00  0.00    +0.000 F 
ATOM     30  C   UNL     1       1.588   9.530  18.428  0.00  0.00    +0.000 A 
ATOM     31  C   UNL     1       2.365   8.599  17.743  0.00  0.00    +0.000 A 
ATOM     32  C   UNL     1       2.664   7.370  18.333  0.00  0.00    +0.000 A 
ATOM     33  F   UNL     1       3.399   6.498  17.629  0.00  0.00    +0.000 F 
ENDBRANCH  25  26
ENDBRANCH  21  25
ENDBRANCH  20  21
ENDBRANCH  10  20
TORSDOF 6
ENDMDL
MODEL 5
REMARK VINA RESULT:      -8.2      2.857      8.854
REMARK  Name = 
REMARK  7 active torsions:
REMARK  status: ('A' for Active; 'I' for Inactive)
REMARK    1  A    between atoms: C_1  and  N_2
REMARK    2  A    between atoms: C_4  and  C_5
REMARK    3  A    between atoms: C_17  and  C_19
REMARK    4  A    between atoms: C_19  and  C_20
REMARK    5  A    between atoms: C_20  and  N_21
REMARK    6  A    between atoms: C_20  and  C_22
REMARK    7  A    between atoms: C_22  and  C_23
REMARK                            x       y       z     vdW  Elec       q    Type
REMARK                         _______ _______ _______ _____ _____    ______ ____
ROOT
ATOM      1  C   UNL     1       4.147   2.445  20.853  0.00  0.00    +0.000 C 
ATOM      2  N   UNL     1       4.077   3.352  19.731  0.00  0.00    +0.000 N 
ATOM      3  N   UNL     1       4.902   3.174  18.680  0.00  0.00    +0.000 NA
ATOM      4  C   UNL     1       4.635   4.201  17.850  0.00  0.00    +0.000 A 
ATOM      5  C   UNL     1       3.559   4.979  18.356  0.00  0.00    +0.000 A 
ATOM      6  C   UNL     1       3.257   4.425  19.582  0.00  0.00    +0.000 A 
ATOM      7  C   UNL     1       2.262   4.974  20.539  0.00  0.00    +0.000 C 
ATOM      8  C   UNL     1       1.363   5.994  19.797  0.00  0.00    +0.000 C 
ATOM      9  N   UNL     1       2.128   6.858  18.865  0.00  0.00    +0.000 N 
ATOM     10  C   UNL     1       2.123   8.241  18.807  0.00  0.00    +0.000 C 
ATOM     11  O   UNL     1       2.694   8.854  17.897  0.00  0.00    +0.000 OA
ATOM     12  C   UNL     1       2.839   6.151  17.786  0.00  0.00    +0.000 C 
ENDROOT
BRANCH   4  13
ATOM     13  C   UNL     1       5.407   4.408  16.623  0.00  0.00    +0.000 A 
ATOM     14  C   UNL     1       6.701   4.944  16.674  0.00  0.00    +0.000 A 
ATOM     15  C   UNL     1       7.427   5.149  15.495  0.00  0.00    +0.000 A 
ATOM     16  C   UNL     1       6.864   4.810  14.271  0.00  0.00    +0.000 A 
ATOM     17  F   UNL     1       7.557   5.012  13.143  0.00  0.00    +0.000 F 
ATOM     18  C   UNL     1       5.583   4.280  14.197  0.00  0.00    +0.000 A 
ATOM     19  C   UNL     1       4.851   4.098  15.371  0.00  0.00    +0.000 A 
ENDBRANCH   4  13
BRANCH  10  20
ATOM     20  C   UNL     1       1.406   9.042  19.872  0.00  0.00    +0.000 C 
BRANCH  20  21
ATOM     21  C   UNL     1       0.590  10.199  19.265  0.00  0.00    +0.000 C 
BRANCH  21  22
ATOM     22  N   UNL     1       1.057  11.462  19.867  0.00  0.00    +0.000 NA
ATOM     23  H   UNL     1       1.250  11.327  20.860  0.00  0.00    +0.000 HD
ATOM     24  H   UNL     1       1.962  11.694  19.450  0.00  0.00    +0.000 HD
ENDBRANCH  21  22
BRANCH  21  25
ATOM     25  C   UNL     1      -0.926  10.022  19.517  0.00  0.00    +0.000 C 
BRANCH  25  26
ATOM     26  C   UNL     1      -1.905  10.363  18.414  0.00  0.00    +0.000 A 
ATOM     27  C   UNL     1      -1.755   9.737  17.169  0.00  0.00    +0.000 A 
ATOM     28  C   UNL     1      -2.583  10.062  16.101  0.00  0.00    +0.000 A 
ATOM     29  F   UNL     1      -2.415   9.452  14.921  0.00  0.00    +0.000 F 
ATOM     30  C   UNL     1      -3.576  11.027  16.233  0.00  0.00    +0.000 A 
ATOM     31  C   UNL     1      -3.739  11.665  17.461  0.00  0.00    +0.000 A 
ATOM     32  C   UNL     1      -2.907  11.338  18.533  0.00  0.00    +0.000 A 
ATOM     33  F   UNL     1      -3.088  11.991  19.689  0.00  0.00    +0.000 F 
ENDBRANCH  25  26
ENDBRANCH  21  25
ENDBRANCH  20  21
ENDBRANCH  10  20
TORSDOF 6
ENDMDL
MODEL 6
REMARK VINA RESULT:      -8.2      2.190      8.078
REMARK  Name = 
REMARK  7 active torsions:
REMARK  status: ('A' for Active; 'I' for Inactive)
REMARK    1  A    between atoms: C_1  and  N_2
REMARK    2  A    between atoms: C_4  and  C_5
REMARK    3  A    between atoms: C_17  and  C_19
REMARK    4  A    between atoms: C_19  and  C_20
REMARK    5  A    between atoms: C_20  and  N_21
REMARK    6  A    between atoms: C_20  and  C_22
REMARK    7  A    between atoms: C_22  and  C_23
REMARK                            x       y       z     vdW  Elec       q    Type
REMARK                         _______ _______ _______ _____ _____    ______ ____
ROOT
ATOM      1  C   UNL     1       7.659   7.548  17.705  0.00  0.00    +0.000 C 
ATOM      2  N   UNL     1       7.056   6.348  17.173  0.00  0.00    +0.000 N 
ATOM      3  N   UNL     1       7.144   6.087  15.854  0.00  0.00    +0.000 NA
ATOM      4  C   UNL     1       6.440   4.953  15.675  0.00  0.00    +0.000 A 
ATOM      5  C   UNL     1       5.983   4.452  16.924  0.00  0.00    +0.000 A 
ATOM      6  C   UNL     1       6.365   5.396  17.854  0.00  0.00    +0.000 A 
ATOM      7  C   UNL     1       6.009   5.359  19.296  0.00  0.00    +0.000 C 
ATOM      8  C   UNL     1       5.505   3.937  19.651  0.00  0.00    +0.000 C 
ATOM      9  N   UNL     1       4.628   3.364  18.601  0.00  0.00    +0.000 N 
ATOM     10  C   UNL     1       3.362   2.828  18.766  0.00  0.00    +0.000 C 
ATOM     11  O   UNL     1       2.777   2.250  17.842  0.00  0.00    +0.000 OA
ATOM     12  C   UNL     1       5.247   3.206  17.274  0.00  0.00    +0.000 C 
ENDROOT
BRANCH   4  13
ATOM     13  C   UNL     1       6.223   4.395  14.339  0.00  0.00    +0.000 A 
ATOM     14  C   UNL     1       7.254   4.394  13.388  0.00  0.00    +0.000 A 
ATOM     15  C   UNL     1       7.035   3.869  12.110  0.00  0.00    +0.000 A 
ATOM     16  C   UNL     1       5.792   3.338  11.787  0.00  0.00    +0.000 A 
ATOM     17  F   UNL     1       5.581   2.840  10.561  0.00  0.00    +0.000 F 
ATOM     18  C   UNL     1       4.757   3.331  12.711  0.00  0.00    +0.000 A 
ATOM     19  C   UNL     1       4.969   3.875  13.978  0.00  0.00    +0.000 A 
ENDBRANCH   4  13
BRANCH  10  20
ATOM     20  C   UNL     1       2.659   2.937  20.102  0.00  0.00    +0.000 C 
BRANCH  20  21
ATOM     21  C   UNL     1       1.639   4.091  20.120  0.00  0.00    +0.000 C 
BRANCH  21  22
ATOM     22  N   UNL     1       1.088   4.244  18.760  0.00  0.00    +0.000 NA
ATOM     23  H   UNL     1       0.145   4.631  18.806  0.00  0.00    +0.000 HD
ATOM     24  H   UNL     1       1.642   4.954  18.273  0.00  0.00    +0.000 HD
ENDBRANCH  21  22
BRANCH  21  25
ATOM     25  C   UNL     1       2.286   5.418  20.581  0.00  0.00    +0.000 C 
BRANCH  25  26
ATOM     26  C   UNL     1       2.292   6.604  19.642  0.00  0.00    +0.000 A 
ATOM     27  C   UNL     1       3.109   6.553  18.503  0.00  0.00    +0.000 A 
ATOM     28  C   UNL     1       3.205   7.639  17.642  0.00  0.00    +0.000 A 
ATOM     29  F   UNL     1       3.996   7.564  16.565  0.00  0.00    +0.000 F 
ATOM     30  C   UNL     1       2.503   8.814  17.891  0.00  0.00    +0.000 A 
ATOM     31  C   UNL     1       1.689   8.888  19.019  0.00  0.00    +0.000 A 
ATOM     32  C   UNL     1       1.593   7.797  19.884  0.00  0.00    +0.000 A 
ATOM     33  F   UNL     1       0.813   7.921  20.966  0.00  0.00    +0.000 F 
ENDBRANCH  25  26
ENDBRANCH  21  25
ENDBRANCH  20  21
ENDBRANCH  10  20
TORSDOF 6
ENDMDL
MODEL 7
REMARK VINA RESULT:      -8.2      3.655      6.298
REMARK  Name = 
REMARK  7 active torsions:
REMARK  status: ('A' for Active; 'I' for Inactive)
REMARK    1  A    between atoms: C_1  and  N_2
REMARK    2  A    between atoms: C_4  and  C_5
REMARK    3  A    between atoms: C_17  and  C_19
REMARK    4  A    between atoms: C_19  and  C_20
REMARK    5  A    between atoms: C_20  and  N_21
REMARK    6  A    between atoms: C_20  and  C_22
REMARK    7  A    between atoms: C_22  and  C_23
REMARK                            x       y       z     vdW  Elec       q    Type
REMARK                         _______ _______ _______ _____ _____    ______ ____
ROOT
ATOM      1  C   UNL     1       2.355  13.490  17.925  0.00  0.00    +0.000 C 
ATOM      2  N   UNL     1       1.562  12.533  18.660  0.00  0.00    +0.000 N 
ATOM      3  N   UNL     1       0.619  12.970  19.518  0.00  0.00    +0.000 NA
ATOM      4  C   UNL     1       0.114  11.854  20.079  0.00  0.00    +0.000 A 
ATOM      5  C   UNL     1       0.694  10.698  19.489  0.00  0.00    +0.000 A 
ATOM      6  C   UNL     1       1.645  11.177  18.613  0.00  0.00    +0.000 A 
ATOM      7  C   UNL     1       2.591  10.331  17.842  0.00  0.00    +0.000 C 
ATOM      8  C   UNL     1       2.087   8.866  17.868  0.00  0.00    +0.000 C 
ATOM      9  N   UNL     1       1.566   8.465  19.197  0.00  0.00    +0.000 N 
ATOM     10  C   UNL     1       1.931   7.357  19.943  0.00  0.00    +0.000 C 
ATOM     11  O   UNL     1       1.330   7.045  20.977  0.00  0.00    +0.000 OA
ATOM     12  C   UNL     1       0.421   9.249  19.692  0.00  0.00    +0.000 C 
ENDROOT
BRANCH   4  13
ATOM     13  C   UNL     1      -0.885  11.925  21.147  0.00  0.00    +0.000 A 
ATOM     14  C   UNL     1      -2.067  12.659  20.974  0.00  0.00    +0.000 A 
ATOM     15  C   UNL     1      -3.010  12.730  22.004  0.00  0.00    +0.000 A 
ATOM     16  C   UNL     1      -2.778  12.062  23.199  0.00  0.00    +0.000 A 
ATOM     17  F   UNL     1      -3.680  12.135  24.187  0.00  0.00    +0.000 F 
ATOM     18  C   UNL     1      -1.614  11.332  23.393  0.00  0.00    +0.000 A 
ATOM     19  C   UNL     1      -0.662  11.279  22.374  0.00  0.00    +0.000 A 
ENDBRANCH   4  13
BRANCH  10  20
ATOM     20  C   UNL     1       3.089   6.491  19.498  0.00  0.00    +0.000 C 
BRANCH  20  21
ATOM     21  C   UNL     1       2.610   5.223  18.768  0.00  0.00    +0.000 C 
BRANCH  21  22
ATOM     22  N   UNL     1       1.451   4.677  19.499  0.00  0.00    +0.000 NA
ATOM     23  H   UNL     1       1.099   5.366  20.163  0.00  0.00    +0.000 HD
ATOM     24  H   UNL     1       0.690   4.542  18.828  0.00  0.00    +0.000 HD
ENDBRANCH  21  22
BRANCH  21  25
ATOM     25  C   UNL     1       3.728   4.159  18.678  0.00  0.00    +0.000 C 
BRANCH  25  26
ATOM     26  C   UNL     1       4.890   4.383  17.734  0.00  0.00    +0.000 A 
ATOM     27  C   UNL     1       4.720   4.072  16.377  0.00  0.00    +0.000 A 
ATOM     28  C   UNL     1       5.773   4.194  15.478  0.00  0.00    +0.000 A 
ATOM     29  F   UNL     1       5.584   3.886  14.189  0.00  0.00    +0.000 F 
ATOM     30  C   UNL     1       7.028   4.618  15.900  0.00  0.00    +0.000 A 
ATOM     31  C   UNL     1       7.220   4.929  17.245  0.00  0.00    +0.000 A 
ATOM     32  C   UNL     1       6.163   4.805  18.147  0.00  0.00    +0.000 A 
ATOM     33  F   UNL     1       6.399   5.096  19.434  0.00  0.00    +0.000 F 
ENDBRANCH  25  26
ENDBRANCH  21  25
ENDBRANCH  20  21
ENDBRANCH  10  20
TORSDOF 6
ENDMDL
MODEL 8
REMARK VINA RESULT:      -8.1      2.854      8.962
REMARK  Name = 
REMARK  7 active torsions:
REMARK  status: ('A' for Active; 'I' for Inactive)
REMARK    1  A    between atoms: C_1  and  N_2
REMARK    2  A    between atoms: C_4  and  C_5
REMARK    3  A    between atoms: C_17  and  C_19
REMARK    4  A    between atoms: C_19  and  C_20
REMARK    5  A    between atoms: C_20  and  N_21
REMARK    6  A    between atoms: C_20  and  C_22
REMARK    7  A    between atoms: C_22  and  C_23
REMARK                            x       y       z     vdW  Elec       q    Type
REMARK                         _______ _______ _______ _____ _____    ______ ____
ROOT
ATOM      1  C   UNL     1       4.421   1.555  21.210  0.00  0.00    +0.000 C 
ATOM      2  N   UNL     1       4.224   2.597  20.229  0.00  0.00    +0.000 N 
ATOM      3  N   UNL     1       5.033   2.660  19.154  0.00  0.00    +0.000 NA
ATOM      4  C   UNL     1       4.637   3.757  18.482  0.00  0.00    +0.000 A 
ATOM      5  C   UNL     1       3.497   4.335  19.107  0.00  0.00    +0.000 A 
ATOM      6  C   UNL     1       3.290   3.585  20.245  0.00  0.00    +0.000 A 
ATOM      7  C   UNL     1       2.269   3.881  21.282  0.00  0.00    +0.000 C 
ATOM      8  C   UNL     1       1.246   4.891  20.703  0.00  0.00    +0.000 C 
ATOM      9  N   UNL     1       1.889   5.955  19.895  0.00  0.00    +0.000 N 
ATOM     10  C   UNL     1       1.735   7.324  20.034  0.00  0.00    +0.000 C 
ATOM     11  O   UNL     1       2.212   8.117  19.214  0.00  0.00    +0.000 OA
ATOM     12  C   UNL     1       2.642   5.489  18.718  0.00  0.00    +0.000 C 
ENDROOT
BRANCH   4  13
ATOM     13  C   UNL     1       5.348   4.217  17.288  0.00  0.00    +0.000 A 
ATOM     14  C   UNL     1       6.497   5.013  17.401  0.00  0.00    +0.000 A 
ATOM     15  C   UNL     1       7.164   5.457  16.255  0.00  0.00    +0.000 A 
ATOM     16  C   UNL     1       6.689   5.100  14.999  0.00  0.00    +0.000 A 
ATOM     17  F   UNL     1       7.324   5.530  13.901  0.00  0.00    +0.000 F 
ATOM     18  C   UNL     1       5.552   4.316  14.863  0.00  0.00    +0.000 A 
ATOM     19  C   UNL     1       4.874   3.892  16.007  0.00  0.00    +0.000 A 
ENDBRANCH   4  13
BRANCH  10  20
ATOM     20  C   UNL     1       0.965   7.885  21.210  0.00  0.00    +0.000 C 
BRANCH  20  21
ATOM     21  C   UNL     1       1.269   9.378  21.434  0.00  0.00    +0.000 C 
BRANCH  21  22
ATOM     22  N   UNL     1       2.006   9.516  22.705  0.00  0.00    +0.000 NA
ATOM     23  H   UNL     1       1.418   9.220  23.484  0.00  0.00    +0.000 HD
ATOM     24  H   UNL     1       2.784   8.851  22.692  0.00  0.00    +0.000 HD
ENDBRANCH  21  22
BRANCH  21  25
ATOM     25  C   UNL     1      -0.025  10.223  21.478  0.00  0.00    +0.000 C 
BRANCH  25  26
ATOM     26  C   UNL     1      -0.486  10.937  20.226  0.00  0.00    +0.000 A 
ATOM     27  C   UNL     1      -1.101  10.186  19.215  0.00  0.00    +0.000 A 
ATOM     28  C   UNL     1      -1.483  10.776  18.016  0.00  0.00    +0.000 A 
ATOM     29  F   UNL     1      -2.064  10.034  17.066  0.00  0.00    +0.000 F 
ATOM     30  C   UNL     1      -1.256  12.128  17.781  0.00  0.00    +0.000 A 
ATOM     31  C   UNL     1      -0.642  12.893  18.770  0.00  0.00    +0.000 A 
ATOM     32  C   UNL     1      -0.258  12.299  19.973  0.00  0.00    +0.000 A 
ATOM     33  F   UNL     1       0.346  13.069  20.888  0.00  0.00    +0.000 F 
ENDBRANCH  25  26
ENDBRANCH  21  25
ENDBRANCH  20  21
ENDBRANCH  10  20
TORSDOF 6
ENDMDL
MODEL 9
REMARK VINA RESULT:      -8.0      0.896      1.900
REMARK  Name = 
REMARK  7 active torsions:
REMARK  status: ('A' for Active; 'I' for Inactive)
REMARK    1  A    between atoms: C_1  and  N_2
REMARK    2  A    between atoms: C_4  and  C_5
REMARK    3  A    between atoms: C_17  and  C_19
REMARK    4  A    between atoms: C_19  and  C_20
REMARK    5  A    between atoms: C_20  and  N_21
REMARK    6  A    between atoms: C_20  and  C_22
REMARK    7  A    between atoms: C_22  and  C_23
REMARK                            x       y       z     vdW  Elec       q    Type
REMARK                         _______ _______ _______ _____ _____    ______ ____
ROOT
ATOM      1  C   UNL     1       1.727   2.813  21.537  0.00  0.00    +0.000 C 
ATOM      2  N   UNL     1       2.181   4.008  20.866  0.00  0.00    +0.000 N 
ATOM      3  N   UNL     1       1.547   5.176  21.086  0.00  0.00    +0.000 NA
ATOM      4  C   UNL     1       2.160   6.063  20.279  0.00  0.00    +0.000 A 
ATOM      5  C   UNL     1       3.256   5.451  19.613  0.00  0.00    +0.000 A 
ATOM      6  C   UNL     1       3.210   4.124  19.985  0.00  0.00    +0.000 A 
ATOM      7  C   UNL     1       4.099   3.061  19.450  0.00  0.00    +0.000 C 
ATOM      8  C   UNL     1       5.303   3.727  18.738  0.00  0.00    +0.000 C 
ATOM      9  N   UNL     1       4.910   4.911  17.937  0.00  0.00    +0.000 N 
ATOM     10  C   UNL     1       5.198   5.157  16.606  0.00  0.00    +0.000 C 
ATOM     11  O   UNL     1       4.938   6.244  16.076  0.00  0.00    +0.000 OA
ATOM     12  C   UNL     1       4.285   6.009  18.694  0.00  0.00    +0.000 C 
ENDROOT
BRANCH   4  13
ATOM     13  C   UNL     1       1.685   7.444  20.166  0.00  0.00    +0.000 A 
ATOM     14  C   UNL     1       1.070   8.080  21.253  0.00  0.00    +0.000 A 
ATOM     15  C   UNL     1       0.610   9.396  21.133  0.00  0.00    +0.000 A 
ATOM     16  C   UNL     1       0.772  10.076  19.932  0.00  0.00    +0.000 A 
ATOM     17  F   UNL     1       0.326  11.333  19.816  0.00  0.00    +0.000 F 
ATOM     18  C   UNL     1       1.376   9.464  18.842  0.00  0.00    +0.000 A 
ATOM     19  C   UNL     1       1.814   8.145  18.955  0.00  0.00    +0.000 A 
ENDBRANCH   4  13
BRANCH  10  20
ATOM     20  C   UNL     1       5.850   4.085  15.760  0.00  0.00    +0.000 C 
BRANCH  20  21
ATOM     21  C   UNL     1       7.139   4.591  15.087  0.00  0.00    +0.000 C 
BRANCH  21  22
ATOM     22  N   UNL     1       7.589   5.803  15.797  0.00  0.00    +0.000 NA
ATOM     23  H   UNL     1       8.226   5.551  16.552  0.00  0.00    +0.000 HD
ATOM     24  H   UNL     1       8.153   6.358  15.148  0.00  0.00    +0.000 HD
ENDBRANCH  21  22
BRANCH  21  25
ATOM     25  C   UNL     1       6.916   4.907  13.590  0.00  0.00    +0.000 C 
BRANCH  25  26
ATOM     26  C   UNL     1       6.435   3.810  12.665  0.00  0.00    +0.000 A 
ATOM     27  C   UNL     1       7.390   3.038  11.989  0.00  0.00    +0.000 A 
ATOM     28  C   UNL     1       7.005   2.063  11.076  0.00  0.00    +0.000 A 
ATOM     29  F   UNL     1       7.938   1.343  10.441  0.00  0.00    +0.000 F 
ATOM     30  C   UNL     1       5.661   1.832  10.800  0.00  0.00    +0.000 A 
ATOM     31  C   UNL     1       4.696   2.592  11.457  0.00  0.00    +0.000 A 
ATOM     32  C   UNL     1       5.083   3.571  12.373  0.00  0.00    +0.000 A 
ATOM     33  F   UNL     1       4.121   4.290  12.967  0.00  0.00    +0.000 F 
ENDBRANCH  25  26
ENDBRANCH  21  25
ENDBRANCH  20  21
ENDBRANCH  10  20
TORSDOF 6
ENDMDL
