MODEL 1
REMARK VINA RESULT:      -8.1      0.000      0.000
REMARK  Name = 
REMARK  8 active torsions:
REMARK  status: ('A' for Active; 'I' for Inactive)
REMARK    1  A    between atoms: C_2  and  C_3
REMARK    2  A    between atoms: C_5  and  C_6
REMARK    3  A    between atoms: C_8  and  C_9
REMARK    4  A    between atoms: C_17  and  N_18
REMARK    5  A    between atoms: N_18  and  C_19
REMARK    6  A    between atoms: C_19  and  C_20
REMARK    7  A    between atoms: C_20  and  O_21
REMARK    8  A    between atoms: C_26  and  O_27
REMARK                            x       y       z     vdW  Elec       q    Type
REMARK                         _______ _______ _______ _____ _____    ______ ____
ROOT
ATOM      1  C   UNL     1       0.997   9.050  20.657  0.00  0.00    +0.000 A 
ATOM      2  N   UNL     1       1.280   7.825  21.030  0.00  0.00    +0.000 NA
ATOM      3  C   UNL     1       1.902   7.305  19.917  0.00  0.00    +0.000 A 
ATOM      4  N   UNL     1       2.018   8.175  18.901  0.00  0.00    +0.000 NA
ATOM      5  O   UNL     1       1.425   9.338  19.394  0.00  0.00    +0.000 OA
ENDROOT
BRANCH   3   6
ATOM      6  C   UNL     1       2.338   5.920  19.860  0.00  0.00    +0.000 A 
ATOM      7  C   UNL     1       1.746   4.952  20.692  0.00  0.00    +0.000 A 
ATOM      8  C   UNL     1       2.190   3.621  20.689  0.00  0.00    +0.000 A 
ATOM      9  C   UNL     1       3.227   3.225  19.848  0.00  0.00    +0.000 A 
ATOM     10  C   UNL     1       3.815   4.173  19.021  0.00  0.00    +0.000 A 
ATOM     11  C   UNL     1       3.368   5.505  19.017  0.00  0.00    +0.000 A 
ATOM     12  C   UNL     1       4.173   6.315  18.041  0.00  0.00    +0.000 C 
ATOM     13  C   UNL     1       4.777   5.209  17.167  0.00  0.00    +0.000 C 
ATOM     14  C   UNL     1       4.982   3.981  18.082  0.00  0.00    +0.000 C 
BRANCH  14  15
ATOM     15  N   UNL     1       6.284   4.056  18.762  0.00  0.00    +0.000 NA
ATOM     16  H   UNL     1       6.669   3.112  18.800  0.00  0.00    +0.000 HD
BRANCH  15  17
ATOM     17  C   UNL     1       7.226   4.929  18.044  0.00  0.00    +0.000 C 
BRANCH  17  18
ATOM     18  C   UNL     1       7.857   5.980  18.960  0.00  0.00    +0.000 C 
BRANCH  18  19
ATOM     19  O   UNL     1       7.968   5.486  20.292  0.00  0.00    +0.000 OA
ATOM     20  H   UNL     1       8.424   4.630  20.223  0.00  0.00    +0.000 HD
ENDBRANCH  18  19
ENDBRANCH  17  18
ENDBRANCH  15  17
ENDBRANCH  14  15
ENDBRANCH   3   6
BRANCH   1  23
ATOM     21  C   UNL     1      -0.208  12.461  21.686  0.00  0.00    +0.000 A 
ATOM     22  C   UNL     1       0.435  11.428  20.992  0.00  0.00    +0.000 A 
ATOM     23  C   UNL     1       0.282  10.088  21.383  0.00  0.00    +0.000 A 
ATOM     24  C   UNL     1      -0.538   9.797  22.485  0.00  0.00    +0.000 A 
ATOM     25  C   UNL     1      -1.176  10.823  23.183  0.00  0.00    +0.000 A 
ATOM     26  C   UNL     1      -1.010  12.147  22.787  0.00  0.00    +0.000 A 
BRANCH  21  28
ATOM     27  N   UNL     1       0.168  14.918  20.939  0.00  0.00    +0.000 NA
ATOM     28  C   UNL     1      -0.022  13.816  21.256  0.00  0.00    +0.000 C 
ENDBRANCH  21  28
BRANCH  26  29
ATOM     29  O   UNL     1      -1.632  13.148  23.475  0.00  0.00    +0.000 OA
ATOM     30  H   UNL     1      -0.988  13.610  24.040  0.00  0.00    +0.000 HD
ENDBRANCH  26  29
ENDBRANCH   1  23
TORSDOF 8
ENDMDL
MODEL 2
REMARK VINA RESULT:      -8.1      3.611      9.567
REMARK  Name = 
REMARK  8 active torsions:
REMARK  status: ('A' for Active; 'I' for Inactive)
REMARK    1  A    between atoms: C_2  and  C_3
REMARK    2  A    between atoms: C_5  and  C_6
REMARK    3  A    between atoms: C_8  and  C_9
REMARK    4  A    between atoms: C_17  and  N_18
REMARK    5  A    between atoms: N_18  and  C_19
REMARK    6  A    between atoms: C_19  and  C_20
REMARK    7  A    between atoms: C_20  and  O_21
REMARK    8  A    between atoms: C_26  and  O_27
REMARK                            x       y       z     vdW  Elec       q    Type
REMARK                         _______ _______ _______ _____ _____    ______ ____
ROOT
ATOM      1  C   UNL     1       2.448   7.576  18.623  0.00  0.00    +0.000 A 
ATOM      2  N   UNL     1       2.095   8.678  18.006  0.00  0.00    +0.000 NA
ATOM      3  C   UNL     1       1.418   9.370  18.985  0.00  0.00    +0.000 A 
ATOM      4  N   UNL     1       1.370   8.735  20.167  0.00  0.00    +0.000 NA
ATOM      5  O   UNL     1       2.061   7.546  19.930  0.00  0.00    +0.000 OA
ENDROOT
BRANCH   3   6
ATOM      6  C   UNL     1       0.782  10.650  18.719  0.00  0.00    +0.000 A 
ATOM      7  C   UNL     1       1.448  11.852  19.018  0.00  0.00    +0.000 A 
ATOM      8  C   UNL     1       0.829  13.096  18.819  0.00  0.00    +0.000 A 
ATOM      9  C   UNL     1      -0.463  13.165  18.306  0.00  0.00    +0.000 A 
ATOM     10  C   UNL     1      -1.128  11.984  18.005  0.00  0.00    +0.000 A 
ATOM     11  C   UNL     1      -0.507  10.738  18.198  0.00  0.00    +0.000 A 
ATOM     12  C   UNL     1      -1.442   9.631  17.799  0.00  0.00    +0.000 C 
ATOM     13  C   UNL     1      -2.446  10.394  16.925  0.00  0.00    +0.000 C 
ATOM     14  C   UNL     1      -2.542  11.824  17.501  0.00  0.00    +0.000 C 
BRANCH  14  15
ATOM     15  N   UNL     1      -3.544  11.881  18.576  0.00  0.00    +0.000 NA
ATOM     16  H   UNL     1      -3.718  12.864  18.787  0.00  0.00    +0.000 HD
BRANCH  15  17
ATOM     17  C   UNL     1      -4.811  11.246  18.177  0.00  0.00    +0.000 C 
BRANCH  17  18
ATOM     18  C   UNL     1      -5.956  12.255  18.066  0.00  0.00    +0.000 C 
BRANCH  18  19
ATOM     19  O   UNL     1      -6.500  12.256  16.749  0.00  0.00    +0.000 OA
ATOM     20  H   UNL     1      -5.794  11.927  16.167  0.00  0.00    +0.000 HD
ENDBRANCH  18  19
ENDBRANCH  17  18
ENDBRANCH  15  17
ENDBRANCH  14  15
ENDBRANCH   3   6
BRANCH   1  23
ATOM     21  C   UNL     1       5.119   5.489  16.993  0.00  0.00    +0.000 A 
ATOM     22  C   UNL     1       4.427   6.576  17.543  0.00  0.00    +0.000 A 
ATOM     23  C   UNL     1       3.147   6.413  18.096  0.00  0.00    +0.000 A 
ATOM     24  C   UNL     1       2.571   5.134  18.097  0.00  0.00    +0.000 A 
ATOM     25  C   UNL     1       3.253   4.049  17.546  0.00  0.00    +0.000 A 
ATOM     26  C   UNL     1       4.520   4.226  16.996  0.00  0.00    +0.000 A 
BRANCH  21  28
ATOM     27  N   UNL     1       7.458   5.894  15.943  0.00  0.00    +0.000 NA
ATOM     28  C   UNL     1       6.423   5.698  16.434  0.00  0.00    +0.000 C 
ENDBRANCH  21  28
BRANCH  26  29
ATOM     29  O   UNL     1       5.182   3.164  16.453  0.00  0.00    +0.000 OA
ATOM     30  H   UNL     1       6.066   3.086  16.852  0.00  0.00    +0.000 HD
ENDBRANCH  26  29
ENDBRANCH   1  23
TORSDOF 8
ENDMDL
MODEL 3
REMARK VINA RESULT:      -8.1      2.551      2.787
REMARK  Name = 
REMARK  8 active torsions:
REMARK  status: ('A' for Active; 'I' for Inactive)
REMARK    1  A    between atoms: C_2  and  C_3
REMARK    2  A    between atoms: C_5  and  C_6
REMARK    3  A    between atoms: C_8  and  C_9
REMARK    4  A    between atoms: C_17  and  N_18
REMARK    5  A    between atoms: N_18  and  C_19
REMARK    6  A    between atoms: C_19  and  C_20
REMARK    7  A    between atoms: C_20  and  O_21
REMARK    8  A    between atoms: C_26  and  O_27
REMARK                            x       y       z     vdW  Elec       q    Type
REMARK                         _______ _______ _______ _____ _____    ______ ____
ROOT
ATOM      1  C   UNL     1       1.312   9.049  18.913  0.00  0.00    +0.000 A 
ATOM      2  N   UNL     1       1.561   8.133  18.009  0.00  0.00    +0.000 NA
ATOM      3  C   UNL     1       2.055   7.091  18.762  0.00  0.00    +0.000 A 
ATOM      4  N   UNL     1       2.093   7.341  20.080  0.00  0.00    +0.000 NA
ATOM      5  O   UNL     1       1.592   8.639  20.184  0.00  0.00    +0.000 OA
ENDROOT
BRANCH   3   6
ATOM      6  C   UNL     1       2.530   5.861  18.150  0.00  0.00    +0.000 A 
ATOM      7  C   UNL     1       1.755   4.688  18.213  0.00  0.00    +0.000 A 
ATOM      8  C   UNL     1       2.221   3.479  17.676  0.00  0.00    +0.000 A 
ATOM      9  C   UNL     1       3.465   3.417  17.054  0.00  0.00    +0.000 A 
ATOM     10  C   UNL     1       4.236   4.569  16.985  0.00  0.00    +0.000 A 
ATOM     11  C   UNL     1       3.769   5.783  17.517  0.00  0.00    +0.000 A 
ATOM     12  C   UNL     1       4.794   6.863  17.312  0.00  0.00    +0.000 C 
ATOM     13  C   UNL     1       5.655   6.246  16.202  0.00  0.00    +0.000 C 
ATOM     14  C   UNL     1       5.627   4.716  16.416  0.00  0.00    +0.000 C 
BRANCH  14  15
ATOM     15  N   UNL     1       6.679   4.308  17.359  0.00  0.00    +0.000 NA
ATOM     16  H   UNL     1       7.206   3.549  16.928  0.00  0.00    +0.000 HD
BRANCH  15  17
ATOM     17  C   UNL     1       7.599   5.416  17.666  0.00  0.00    +0.000 C 
BRANCH  17  18
ATOM     18  C   UNL     1       7.740   5.653  19.171  0.00  0.00    +0.000 C 
BRANCH  18  19
ATOM     19  O   UNL     1       6.575   5.209  19.862  0.00  0.00    +0.000 OA
ATOM     20  H   UNL     1       6.878   4.532  20.491  0.00  0.00    +0.000 HD
ENDBRANCH  18  19
ENDBRANCH  17  18
ENDBRANCH  15  17
ENDBRANCH  14  15
ENDBRANCH   3   6
BRANCH   1  23
ATOM     21  C   UNL     1       1.322  12.775  18.404  0.00  0.00    +0.000 A 
ATOM     22  C   UNL     1       1.748  11.449  18.547  0.00  0.00    +0.000 A 
ATOM     23  C   UNL     1       0.824  10.408  18.732  0.00  0.00    +0.000 A 
ATOM     24  C   UNL     1      -0.544  10.719  18.762  0.00  0.00    +0.000 A 
ATOM     25  C   UNL     1      -0.973  12.040  18.625  0.00  0.00    +0.000 A 
ATOM     26  C   UNL     1      -0.045  13.061  18.449  0.00  0.00    +0.000 A 
BRANCH  21  28
ATOM     27  N   UNL     1       3.115  14.630  18.113  0.00  0.00    +0.000 NA
ATOM     28  C   UNL     1       2.299  13.810  18.221  0.00  0.00    +0.000 C 
ENDBRANCH  21  28
BRANCH  26  29
ATOM     29  O   UNL     1      -0.469  14.353  18.320  0.00  0.00    +0.000 OA
ATOM     30  H   UNL     1       0.283  14.960  18.435  0.00  0.00    +0.000 HD
ENDBRANCH  26  29
ENDBRANCH   1  23
TORSDOF 8
ENDMDL
MODEL 4
REMARK VINA RESULT:      -8.0      3.523      9.675
REMARK  Name = 
REMARK  8 active torsions:
REMARK  status: ('A' for Active; 'I' for Inactive)
REMARK    1  A    between atoms: C_2  and  C_3
REMARK    2  A    between atoms: C_5  and  C_6
REMARK    3  A    between atoms: C_8  and  C_9
REMARK    4  A    between atoms: C_17  and  N_18
REMARK    5  A    between atoms: N_18  and  C_19
REMARK    6  A    between atoms: C_19  and  C_20
REMARK    7  A    between atoms: C_20  and  O_21
REMARK    8  A    between atoms: C_26  and  O_27
REMARK                            x       y       z     vdW  Elec       q    Type
REMARK                         _______ _______ _______ _____ _____    ______ ____
ROOT
ATOM      1  C   UNL     1       2.576   7.660  18.435  0.00  0.00    +0.000 A 
ATOM      2  N   UNL     1       2.204   8.802  17.908  0.00  0.00    +0.000 NA
ATOM      3  C   UNL     1       1.440   9.362  18.907  0.00  0.00    +0.000 A 
ATOM      4  N   UNL     1       1.357   8.610  20.016  0.00  0.00    +0.000 NA
ATOM      5  O   UNL     1       2.118   7.482  19.707  0.00  0.00    +0.000 OA
ENDROOT
BRANCH   3   6
ATOM      6  C   UNL     1       0.758  10.633  18.730  0.00  0.00    +0.000 A 
ATOM      7  C   UNL     1       1.350  11.828  19.177  0.00  0.00    +0.000 A 
ATOM      8  C   UNL     1       0.683  13.058  19.063  0.00  0.00    +0.000 A 
ATOM      9  C   UNL     1      -0.584  13.121  18.490  0.00  0.00    +0.000 A 
ATOM     10  C   UNL     1      -1.176  11.947  18.044  0.00  0.00    +0.000 A 
ATOM     11  C   UNL     1      -0.507  10.716  18.151  0.00  0.00    +0.000 A 
ATOM     12  C   UNL     1      -1.367   9.614  17.599  0.00  0.00    +0.000 C 
ATOM     13  C   UNL     1      -2.362  10.414  16.748  0.00  0.00    +0.000 C 
ATOM     14  C   UNL     1      -2.554  11.777  17.451  0.00  0.00    +0.000 C 
BRANCH  14  15
ATOM     15  N   UNL     1      -3.610  11.686  18.471  0.00  0.00    +0.000 NA
ATOM     16  H   UNL     1      -3.808  12.632  18.798  0.00  0.00    +0.000 HD
BRANCH  15  17
ATOM     17  C   UNL     1      -4.845  11.098  17.929  0.00  0.00    +0.000 C 
BRANCH  17  18
ATOM     18  C   UNL     1      -5.881  12.162  17.558  0.00  0.00    +0.000 C 
BRANCH  18  19
ATOM     19  O   UNL     1      -5.650  13.365  18.287  0.00  0.00    +0.000 OA
ATOM     20  H   UNL     1      -6.473  13.548  18.770  0.00  0.00    +0.000 HD
ENDBRANCH  18  19
ENDBRANCH  17  18
ENDBRANCH  15  17
ENDBRANCH  14  15
ENDBRANCH   3   6
BRANCH   1  23
ATOM     21  C   UNL     1       3.760   4.193  17.585  0.00  0.00    +0.000 A 
ATOM     22  C   UNL     1       3.011   5.254  18.109  0.00  0.00    +0.000 A 
ATOM     23  C   UNL     1       3.360   6.588  17.840  0.00  0.00    +0.000 A 
ATOM     24  C   UNL     1       4.474   6.842  17.025  0.00  0.00    +0.000 A 
ATOM     25  C   UNL     1       5.226   5.788  16.505  0.00  0.00    +0.000 A 
ATOM     26  C   UNL     1       4.871   4.472  16.785  0.00  0.00    +0.000 A 
BRANCH  21  28
ATOM     27  N   UNL     1       3.023   1.757  18.095  0.00  0.00    +0.000 NA
ATOM     28  C   UNL     1       3.372   2.845  17.887  0.00  0.00    +0.000 C 
ENDBRANCH  21  28
BRANCH  26  29
ATOM     29  O   UNL     1       5.613   3.444  16.279  0.00  0.00    +0.000 OA
ATOM     30  H   UNL     1       5.814   3.611  15.341  0.00  0.00    +0.000 HD
ENDBRANCH  26  29
ENDBRANCH   1  23
TORSDOF 8
ENDMDL
MODEL 5
REMARK VINA RESULT:      -8.0      3.677      9.375
REMARK  Name = 
REMARK  8 active torsions:
REMARK  status: ('A' for Active; 'I' for Inactive)
REMARK    1  A    between atoms: C_2  and  C_3
REMARK    2  A    between atoms: C_5  and  C_6
REMARK    3  A    between atoms: C_8  and  C_9
REMARK    4  A    between atoms: C_17  and  N_18
REMARK    5  A    between atoms: N_18  and  C_19
REMARK    6  A    between atoms: C_19  and  C_20
REMARK    7  A    between atoms: C_20  and  O_21
REMARK    8  A    between atoms: C_26  and  O_27
REMARK                            x       y       z     vdW  Elec       q    Type
REMARK                         _______ _______ _______ _____ _____    ______ ____
ROOT
ATOM      1  C   UNL     1       2.298   7.732  18.501  0.00  0.00    +0.000 A 
ATOM      2  N   UNL     1       1.297   8.270  19.155  0.00  0.00    +0.000 NA
ATOM      3  C   UNL     1       1.114   9.467  18.499  0.00  0.00    +0.000 A 
ATOM      4  N   UNL     1       1.954   9.657  17.469  0.00  0.00    +0.000 NA
ATOM      5  O   UNL     1       2.736   8.502  17.464  0.00  0.00    +0.000 OA
ENDROOT
BRANCH   3   6
ATOM      6  C   UNL     1       0.126  10.438  18.937  0.00  0.00    +0.000 A 
ATOM      7  C   UNL     1       0.333  11.185  20.110  0.00  0.00    +0.000 A 
ATOM      8  C   UNL     1      -0.634  12.088  20.578  0.00  0.00    +0.000 A 
ATOM      9  C   UNL     1      -1.823  12.273  19.877  0.00  0.00    +0.000 A 
ATOM     10  C   UNL     1      -2.035  11.542  18.716  0.00  0.00    +0.000 A 
ATOM     11  C   UNL     1      -1.065  10.642  18.243  0.00  0.00    +0.000 A 
ATOM     12  C   UNL     1      -1.547   9.985  16.980  0.00  0.00    +0.000 C 
ATOM     13  C   UNL     1      -2.654  10.954  16.547  0.00  0.00    +0.000 C 
ATOM     14  C   UNL     1      -3.265  11.539  17.840  0.00  0.00    +0.000 C 
BRANCH  14  15
ATOM     15  N   UNL     1      -4.330  10.663  18.350  0.00  0.00    +0.000 NA
ATOM     16  H   UNL     1      -3.954  10.146  19.145  0.00  0.00    +0.000 HD
BRANCH  15  17
ATOM     17  C   UNL     1      -5.506  11.430  18.791  0.00  0.00    +0.000 C 
BRANCH  17  18
ATOM     18  C   UNL     1      -6.815  10.674  18.554  0.00  0.00    +0.000 C 
BRANCH  18  19
ATOM     19  O   UNL     1      -7.565  10.575  19.762  0.00  0.00    +0.000 OA
ATOM     20  H   UNL     1      -7.462  11.430  20.212  0.00  0.00    +0.000 HD
ENDBRANCH  18  19
ENDBRANCH  17  18
ENDBRANCH  15  17
ENDBRANCH  14  15
ENDBRANCH   3   6
BRANCH   1  23
ATOM     21  C   UNL     1       3.159   4.413  20.045  0.00  0.00    +0.000 A 
ATOM     22  C   UNL     1       2.500   5.611  19.743  0.00  0.00    +0.000 A 
ATOM     23  C   UNL     1       2.994   6.480  18.758  0.00  0.00    +0.000 A 
ATOM     24  C   UNL     1       4.164   6.123  18.069  0.00  0.00    +0.000 A 
ATOM     25  C   UNL     1       4.827   4.933  18.370  0.00  0.00    +0.000 A 
ATOM     26  C   UNL     1       4.328   4.084  19.354  0.00  0.00    +0.000 A 
BRANCH  21  28
ATOM     27  N   UNL     1       2.228   2.828  21.879  0.00  0.00    +0.000 NA
ATOM     28  C   UNL     1       2.623   3.554  21.062  0.00  0.00    +0.000 C 
ENDBRANCH  21  28
BRANCH  26  29
ATOM     29  O   UNL     1       4.983   2.923  19.649  0.00  0.00    +0.000 OA
ATOM     30  H   UNL     1       5.083   2.836  20.613  0.00  0.00    +0.000 HD
ENDBRANCH  26  29
ENDBRANCH   1  23
TORSDOF 8
ENDMDL
MODEL 6
REMARK VINA RESULT:      -8.0      1.327      1.530
REMARK  Name = 
REMARK  8 active torsions:
REMARK  status: ('A' for Active; 'I' for Inactive)
REMARK    1  A    between atoms: C_2  and  C_3
REMARK    2  A    between atoms: C_5  and  C_6
REMARK    3  A    between atoms: C_8  and  C_9
REMARK    4  A    between atoms: C_17  and  N_18
REMARK    5  A    between atoms: N_18  and  C_19
REMARK    6  A    between atoms: C_19  and  C_20
REMARK    7  A    between atoms: C_20  and  O_21
REMARK    8  A    between atoms: C_26  and  O_27
REMARK                            x       y       z     vdW  Elec       q    Type
REMARK                         _______ _______ _______ _____ _____    ______ ____
ROOT
ATOM      1  C   UNL     1       1.433   8.673  19.663  0.00  0.00    +0.000 A 
ATOM      2  N   UNL     1       1.723   7.395  19.699  0.00  0.00    +0.000 NA
ATOM      3  C   UNL     1       2.329   7.186  18.480  0.00  0.00    +0.000 A 
ATOM      4  N   UNL     1       2.429   8.292  17.726  0.00  0.00    +0.000 NA
ATOM      5  O   UNL     1       1.842   9.283  18.514  0.00  0.00    +0.000 OA
ENDROOT
BRANCH   3   6
ATOM      6  C   UNL     1       2.765   5.866  18.056  0.00  0.00    +0.000 A 
ATOM      7  C   UNL     1       2.003   4.728  18.374  0.00  0.00    +0.000 A 
ATOM      8  C   UNL     1       2.435   3.441  18.021  0.00  0.00    +0.000 A 
ATOM      9  C   UNL     1       3.632   3.264  17.332  0.00  0.00    +0.000 A 
ATOM     10  C   UNL     1       4.391   4.382  17.011  0.00  0.00    +0.000 A 
ATOM     11  C   UNL     1       3.956   5.673  17.359  0.00  0.00    +0.000 A 
ATOM     12  C   UNL     1       4.959   6.693  16.900  0.00  0.00    +0.000 C 
ATOM     13  C   UNL     1       5.741   5.889  15.854  0.00  0.00    +0.000 C 
ATOM     14  C   UNL     1       5.736   4.418  16.328  0.00  0.00    +0.000 C 
BRANCH  14  15
ATOM     15  N   UNL     1       6.855   4.170  17.250  0.00  0.00    +0.000 NA
ATOM     16  H   UNL     1       7.498   3.524  16.792  0.00  0.00    +0.000 HD
BRANCH  15  17
ATOM     17  C   UNL     1       7.578   5.410  17.579  0.00  0.00    +0.000 C 
BRANCH  17  18
ATOM     18  C   UNL     1       7.804   5.567  19.085  0.00  0.00    +0.000 C 
BRANCH  18  19
ATOM     19  O   UNL     1       6.584   5.386  19.798  0.00  0.00    +0.000 OA
ATOM     20  H   UNL     1       6.392   6.240  20.222  0.00  0.00    +0.000 HD
ENDBRANCH  18  19
ENDBRANCH  17  18
ENDBRANCH  15  17
ENDBRANCH  14  15
ENDBRANCH   3   6
BRANCH   1  23
ATOM     21  C   UNL     1       0.024  11.691  21.410  0.00  0.00    +0.000 A 
ATOM     22  C   UNL     1       0.662  10.872  20.469  0.00  0.00    +0.000 A 
ATOM     23  C   UNL     1       0.728   9.481  20.646  0.00  0.00    +0.000 A 
ATOM     24  C   UNL     1       0.131   8.918  21.785  0.00  0.00    +0.000 A 
ATOM     25  C   UNL     1      -0.502   9.729  22.727  0.00  0.00    +0.000 A 
ATOM     26  C   UNL     1      -0.554  11.107  22.541  0.00  0.00    +0.000 A 
BRANCH  21  28
ATOM     27  N   UNL     1      -0.087  14.249  20.983  0.00  0.00    +0.000 NA
ATOM     28  C   UNL     1      -0.017  13.108  21.193  0.00  0.00    +0.000 C 
ENDBRANCH  21  28
BRANCH  26  29
ATOM     29  O   UNL     1      -1.170  11.898  23.468  0.00  0.00    +0.000 OA
ATOM     30  H   UNL     1      -1.819  11.375  23.969  0.00  0.00    +0.000 HD
ENDBRANCH  26  29
ENDBRANCH   1  23
TORSDOF 8
ENDMDL
MODEL 7
REMARK VINA RESULT:      -7.9      2.566      2.934
REMARK  Name = 
REMARK  8 active torsions:
REMARK  status: ('A' for Active; 'I' for Inactive)
REMARK    1  A    between atoms: C_2  and  C_3
REMARK    2  A    between atoms: C_5  and  C_6
REMARK    3  A    between atoms: C_8  and  C_9
REMARK    4  A    between atoms: C_17  and  N_18
REMARK    5  A    between atoms: N_18  and  C_19
REMARK    6  A    between atoms: C_19  and  C_20
REMARK    7  A    between atoms: C_20  and  O_21
REMARK    8  A    between atoms: C_26  and  O_27
REMARK                            x       y       z     vdW  Elec       q    Type
REMARK                         _______ _______ _______ _____ _____    ______ ____
ROOT
ATOM      1  C   UNL     1       1.391   8.934  18.964  0.00  0.00    +0.000 A 
ATOM      2  N   UNL     1       1.683   8.070  18.022  0.00  0.00    +0.000 NA
ATOM      3  C   UNL     1       2.177   7.000  18.733  0.00  0.00    +0.000 A 
ATOM      4  N   UNL     1       2.175   7.183  20.063  0.00  0.00    +0.000 NA
ATOM      5  O   UNL     1       1.645   8.464  20.219  0.00  0.00    +0.000 OA
ENDROOT
BRANCH   3   6
ATOM      6  C   UNL     1       2.694   5.813  18.073  0.00  0.00    +0.000 A 
ATOM      7  C   UNL     1       1.917   4.642  18.004  0.00  0.00    +0.000 A 
ATOM      8  C   UNL     1       2.419   3.469  17.419  0.00  0.00    +0.000 A 
ATOM      9  C   UNL     1       3.703   3.444  16.880  0.00  0.00    +0.000 A 
ATOM     10  C   UNL     1       4.476   4.596  16.942  0.00  0.00    +0.000 A 
ATOM     11  C   UNL     1       3.973   5.773  17.522  0.00  0.00    +0.000 A 
ATOM     12  C   UNL     1       5.009   6.860  17.461  0.00  0.00    +0.000 C 
ATOM     13  C   UNL     1       5.944   6.315  16.373  0.00  0.00    +0.000 C 
ATOM     14  C   UNL     1       5.902   4.774  16.480  0.00  0.00    +0.000 C 
BRANCH  14  15
ATOM     15  N   UNL     1       6.888   4.299  17.463  0.00  0.00    +0.000 NA
ATOM     16  H   UNL     1       7.517   3.654  16.985  0.00  0.00    +0.000 HD
BRANCH  15  17
ATOM     17  C   UNL     1       7.676   5.407  18.027  0.00  0.00    +0.000 C 
BRANCH  17  18
ATOM     18  C   UNL     1       7.483   5.546  19.538  0.00  0.00    +0.000 C 
BRANCH  18  19
ATOM     19  O   UNL     1       8.660   5.149  20.235  0.00  0.00    +0.000 OA
ATOM     20  H   UNL     1       8.537   5.435  21.156  0.00  0.00    +0.000 HD
ENDBRANCH  18  19
ENDBRANCH  17  18
ENDBRANCH  15  17
ENDBRANCH  14  15
ENDBRANCH   3   6
BRANCH   1  23
ATOM     21  C   UNL     1      -1.035  11.804  18.820  0.00  0.00    +0.000 A 
ATOM     22  C   UNL     1      -0.499  10.519  18.969  0.00  0.00    +0.000 A 
ATOM     23  C   UNL     1       0.881  10.291  18.838  0.00  0.00    +0.000 A 
ATOM     24  C   UNL     1       1.720  11.381  18.561  0.00  0.00    +0.000 A 
ATOM     25  C   UNL     1       1.190  12.662  18.407  0.00  0.00    +0.000 A 
ATOM     26  C   UNL     1      -0.180  12.871  18.534  0.00  0.00    +0.000 A 
BRANCH  21  28
ATOM     27  N   UNL     1      -3.604  12.109  19.035  0.00  0.00    +0.000 NA
ATOM     28  C   UNL     1      -2.450  11.993  18.958  0.00  0.00    +0.000 C 
ENDBRANCH  21  28
BRANCH  26  29
ATOM     29  O   UNL     1      -0.695  14.125  18.377  0.00  0.00    +0.000 OA
ATOM     30  H   UNL     1      -0.114  14.778  18.806  0.00  0.00    +0.000 HD
ENDBRANCH  26  29
ENDBRANCH   1  23
TORSDOF 8
ENDMDL
MODEL 8
REMARK VINA RESULT:      -7.9      2.064      2.230
REMARK  Name = 
REMARK  8 active torsions:
REMARK  status: ('A' for Active; 'I' for Inactive)
REMARK    1  A    between atoms: C_2  and  C_3
REMARK    2  A    between atoms: C_5  and  C_6
REMARK    3  A    between atoms: C_8  and  C_9
REMARK    4  A    between atoms: C_17  and  N_18
REMARK    5  A    between atoms: N_18  and  C_19
REMARK    6  A    between atoms: C_19  and  C_20
REMARK    7  A    between atoms: C_20  and  O_21
REMARK    8  A    between atoms: C_26  and  O_27
REMARK                            x       y       z     vdW  Elec       q    Type
REMARK                         _______ _______ _______ _____ _____    ______ ____
ROOT
ATOM      1  C   UNL     1       1.374   9.947  18.619  0.00  0.00    +0.000 A 
ATOM      2  N   UNL     1       1.427   8.903  19.409  0.00  0.00    +0.000 NA
ATOM      3  C   UNL     1       2.174   8.006  18.679  0.00  0.00    +0.000 A 
ATOM      4  N   UNL     1       2.585   8.479  17.492  0.00  0.00    +0.000 NA
ATOM      5  O   UNL     1       2.061   9.772  17.453  0.00  0.00    +0.000 OA
ENDROOT
BRANCH   3   6
ATOM      6  C   UNL     1       2.437   6.658  19.155  0.00  0.00    +0.000 A 
ATOM      7  C   UNL     1       1.742   6.149  20.267  0.00  0.00    +0.000 A 
ATOM      8  C   UNL     1       2.020   4.870  20.775  0.00  0.00    +0.000 A 
ATOM      9  C   UNL     1       2.989   4.070  20.176  0.00  0.00    +0.000 A 
ATOM     10  C   UNL     1       3.678   4.563  19.077  0.00  0.00    +0.000 A 
ATOM     11  C   UNL     1       3.397   5.841  18.563  0.00  0.00    +0.000 A 
ATOM     12  C   UNL     1       4.282   6.126  17.382  0.00  0.00    +0.000 C 
ATOM     13  C   UNL     1       4.734   4.710  17.003  0.00  0.00    +0.000 C 
ATOM     14  C   UNL     1       4.800   3.898  18.316  0.00  0.00    +0.000 C 
BRANCH  14  15
ATOM     15  N   UNL     1       6.110   4.066  18.962  0.00  0.00    +0.000 NA
ATOM     16  H   UNL     1       6.498   3.137  19.125  0.00  0.00    +0.000 HD
BRANCH  15  17
ATOM     17  C   UNL     1       7.042   4.832  18.118  0.00  0.00    +0.000 C 
BRANCH  17  18
ATOM     18  C   UNL     1       7.792   5.905  18.909  0.00  0.00    +0.000 C 
BRANCH  18  19
ATOM     19  O   UNL     1       7.918   5.527  20.277  0.00  0.00    +0.000 OA
ATOM     20  H   UNL     1       8.849   5.680  20.513  0.00  0.00    +0.000 HD
ENDBRANCH  18  19
ENDBRANCH  17  18
ENDBRANCH  15  17
ENDBRANCH  14  15
ENDBRANCH   3   6
BRANCH   1  23
ATOM     21  C   UNL     1       0.757  13.645  18.919  0.00  0.00    +0.000 A 
ATOM     22  C   UNL     1       1.387  12.412  18.707  0.00  0.00    +0.000 A 
ATOM     23  C   UNL     1       0.672  11.207  18.809  0.00  0.00    +0.000 A 
ATOM     24  C   UNL     1      -0.696  11.259  19.120  0.00  0.00    +0.000 A 
ATOM     25  C   UNL     1      -1.327  12.485  19.336  0.00  0.00    +0.000 A 
ATOM     26  C   UNL     1      -0.604  13.670  19.238  0.00  0.00    +0.000 A 
BRANCH  21  28
ATOM     27  N   UNL     1       2.172  15.808  18.683  0.00  0.00    +0.000 NA
ATOM     28  C   UNL     1       1.524  14.852  18.809  0.00  0.00    +0.000 C 
ENDBRANCH  21  28
BRANCH  26  29
ATOM     29  O   UNL     1      -1.224  14.866  19.456  0.00  0.00    +0.000 OA
ATOM     30  H   UNL     1      -0.559  15.573  19.537  0.00  0.00    +0.000 HD
ENDBRANCH  26  29
ENDBRANCH   1  23
TORSDOF 8
ENDMDL
MODEL 9
REMARK VINA RESULT:      -7.9      1.252      1.707
REMARK  Name = 
REMARK  8 active torsions:
REMARK  status: ('A' for Active; 'I' for Inactive)
REMARK    1  A    between atoms: C_2  and  C_3
REMARK    2  A    between atoms: C_5  and  C_6
REMARK    3  A    between atoms: C_8  and  C_9
REMARK    4  A    between atoms: C_17  and  N_18
REMARK    5  A    between atoms: N_18  and  C_19
REMARK    6  A    between atoms: C_19  and  C_20
REMARK    7  A    between atoms: C_20  and  O_21
REMARK    8  A    between atoms: C_26  and  O_27
REMARK                            x       y       z     vdW  Elec       q    Type
REMARK                         _______ _______ _______ _____ _____    ______ ____
ROOT
ATOM      1  C   UNL     1       1.227   9.666  20.183  0.00  0.00    +0.000 A 
ATOM      2  N   UNL     1       1.509   8.509  20.730  0.00  0.00    +0.000 NA
ATOM      3  C   UNL     1       1.890   7.747  19.649  0.00  0.00    +0.000 A 
ATOM      4  N   UNL     1       1.864   8.408  18.480  0.00  0.00    +0.000 NA
ATOM      5  O   UNL     1       1.431   9.686  18.835  0.00  0.00    +0.000 OA
ENDROOT
BRANCH   3   6
ATOM      6  C   UNL     1       2.236   6.341  19.784  0.00  0.00    +0.000 A 
ATOM      7  C   UNL     1       1.588   5.538  20.740  0.00  0.00    +0.000 A 
ATOM      8  C   UNL     1       1.946   4.193  20.922  0.00  0.00    +0.000 A 
ATOM      9  C   UNL     1       2.950   3.620  20.146  0.00  0.00    +0.000 A 
ATOM     10  C   UNL     1       3.593   4.405  19.199  0.00  0.00    +0.000 A 
ATOM     11  C   UNL     1       3.232   5.750  19.010  0.00  0.00    +0.000 A 
ATOM     12  C   UNL     1       4.081   6.364  17.933  0.00  0.00    +0.000 C 
ATOM     13  C   UNL     1       4.608   5.111  17.222  0.00  0.00    +0.000 C 
ATOM     14  C   UNL     1       4.739   4.010  18.299  0.00  0.00    +0.000 C 
BRANCH  14  15
ATOM     15  N   UNL     1       6.047   4.094  18.965  0.00  0.00    +0.000 NA
ATOM     16  H   UNL     1       6.388   3.142  19.102  0.00  0.00    +0.000 HD
BRANCH  15  17
ATOM     17  C   UNL     1       7.026   4.841  18.158  0.00  0.00    +0.000 C 
BRANCH  17  18
ATOM     18  C   UNL     1       7.736   5.929  18.967  0.00  0.00    +0.000 C 
BRANCH  18  19
ATOM     19  O   UNL     1       7.974   5.489  20.301  0.00  0.00    +0.000 OA
ATOM     20  H   UNL     1       7.163   5.032  20.582  0.00  0.00    +0.000 HD
ENDBRANCH  18  19
ENDBRANCH  17  18
ENDBRANCH  15  17
ENDBRANCH  14  15
ENDBRANCH   3   6
BRANCH   1  23
ATOM     21  C   UNL     1      -0.996  11.941  22.190  0.00  0.00    +0.000 A 
ATOM     22  C   UNL     1      -0.446  10.796  21.600  0.00  0.00    +0.000 A 
ATOM     23  C   UNL     1       0.711  10.875  20.809  0.00  0.00    +0.000 A 
ATOM     24  C   UNL     1       1.318  12.127  20.625  0.00  0.00    +0.000 A 
ATOM     25  C   UNL     1       0.772  13.271  21.207  0.00  0.00    +0.000 A 
ATOM     26  C   UNL     1      -0.379  13.178  21.984  0.00  0.00    +0.000 A 
BRANCH  21  28
ATOM     27  N   UNL     1      -3.128  11.761  23.660  0.00  0.00    +0.000 NA
ATOM     28  C   UNL     1      -2.182  11.818  22.988  0.00  0.00    +0.000 C 
ENDBRANCH  21  28
BRANCH  26  29
ATOM     29  O   UNL     1      -0.914  14.301  22.547  0.00  0.00    +0.000 OA
ATOM     30  H   UNL     1      -1.584  14.053  23.208  0.00  0.00    +0.000 HD
ENDBRANCH  26  29
ENDBRANCH   1  23
TORSDOF 8
ENDMDL
