MODEL 1
REMARK VINA RESULT:      -7.7      0.000      0.000
REMARK  Name = 
REMARK  3 active torsions:
REMARK  status: ('A' for Active; 'I' for Inactive)
REMARK    1  A    between atoms: C_2  and  C_3
REMARK    2  A    between atoms: N_10  and  C_11
REMARK    3  A    between atoms: C_11  and  C_12
REMARK                            x       y       z     vdW  Elec       q    Type
REMARK                         _______ _______ _______ _____ _____    ______ ____
ROOT
ATOM      1  C   UNL     1       0.802  10.602  19.978  0.00  0.00    +0.000 A 
ATOM      2  C   UNL     1       1.747  11.567  20.313  0.00  0.00    +0.000 A 
ATOM      3  C   UNL     1       1.297  12.791  19.771  0.00  0.00    +0.000 A 
ATOM      4  S   UNL     1       1.878  14.404  19.560  0.00  0.00    +0.000 S 
ATOM      5  C   UNL     1       0.352  14.853  18.914  0.00  0.00    +0.000 A 
ATOM      6  C   UNL     1      -0.566  13.825  18.862  0.00  0.00    +0.000 A 
ATOM      7  C   UNL     1       0.024  12.616  19.328  0.00  0.00    +0.000 A 
ATOM      8  N   UNL     1      -0.331  11.289  19.521  0.00  0.00    +0.000 N 
ENDROOT
BRANCH   1  10
ATOM      9  O   UNL     1       0.396   8.718  21.265  0.00  0.00    +0.000 OA
ATOM     10  C   UNL     1       0.905   9.156  20.236  0.00  0.00    +0.000 C 
ATOM     11  N   UNL     1       1.645   8.347  19.316  0.00  0.00    +0.000 N 
ATOM     12  C   UNL     1       1.842   8.705  17.894  0.00  0.00    +0.000 C 
ATOM     13  C   UNL     1       3.268   8.469  17.423  0.00  0.00    +0.000 C 
ATOM     14  C   UNL     1       3.681   7.022  17.617  0.00  0.00    +0.000 C 
ATOM     15  C   UNL     1       3.054   6.365  18.819  0.00  0.00    +0.000 A 
ATOM     16  C   UNL     1       3.502   5.062  19.127  0.00  0.00    +0.000 A 
ATOM     17  C   UNL     1       3.021   4.385  20.239  0.00  0.00    +0.000 A 
ATOM     18  C   UNL     1       2.062   4.991  21.036  0.00  0.00    +0.000 A 
ATOM     19  C   UNL     1       1.593   6.272  20.726  0.00  0.00    +0.000 A 
ATOM     20  C   UNL     1       2.080   6.997  19.630  0.00  0.00    +0.000 A 
ENDBRANCH   1  10
BRANCH   8  21
ATOM     21  C   UNL     1      -1.732  10.853  19.477  0.00  0.00    +0.000 C 
BRANCH  21  22
ATOM     22  C   UNL     1      -2.396  10.762  18.111  0.00  0.00    +0.000 A 
ATOM     23  C   UNL     1      -3.547  11.463  17.740  0.00  0.00    +0.000 A 
ATOM     24  C   UNL     1      -4.103  11.307  16.463  0.00  0.00    +0.000 A 
ATOM     25  C   UNL     1      -3.504  10.451  15.541  0.00  0.00    +0.000 A 
ATOM     26  F   UNL     1      -4.046  10.304  14.326  0.00  0.00    +0.000 F 
ATOM     27  C   UNL     1      -2.354   9.753  15.871  0.00  0.00    +0.000 A 
ATOM     28  C   UNL     1      -1.799   9.908  17.148  0.00  0.00    +0.000 A 
ENDBRANCH  21  22
ENDBRANCH   8  21
TORSDOF 3
ENDMDL
MODEL 2
REMARK VINA RESULT:      -7.5      2.823      4.764
REMARK  Name = 
REMARK  3 active torsions:
REMARK  status: ('A' for Active; 'I' for Inactive)
REMARK    1  A    between atoms: C_2  and  C_3
REMARK    2  A    between atoms: N_10  and  C_11
REMARK    3  A    between atoms: C_11  and  C_12
REMARK                            x       y       z     vdW  Elec       q    Type
REMARK                         _______ _______ _______ _____ _____    ______ ____
ROOT
ATOM      1  C   UNL     1       0.363  10.082  18.541  0.00  0.00    +0.000 A 
ATOM      2  C   UNL     1      -0.826  10.085  17.819  0.00  0.00    +0.000 A 
ATOM      3  C   UNL     1      -1.739  10.895  18.531  0.00  0.00    +0.000 A 
ATOM      4  S   UNL     1      -3.414  11.315  18.474  0.00  0.00    +0.000 S 
ATOM      5  C   UNL     1      -3.166  12.415  19.769  0.00  0.00    +0.000 A 
ATOM      6  C   UNL     1      -1.866  12.468  20.227  0.00  0.00    +0.000 A 
ATOM      7  C   UNL     1      -1.057  11.537  19.517  0.00  0.00    +0.000 A 
ATOM      8  N   UNL     1       0.263  11.109  19.489  0.00  0.00    +0.000 N 
ENDROOT
BRANCH   1  10
ATOM      9  O   UNL     1       2.201   9.566  17.228  0.00  0.00    +0.000 OA
ATOM     10  C   UNL     1       1.562   9.284  18.239  0.00  0.00    +0.000 C 
ATOM     11  N   UNL     1       1.887   8.182  19.094  0.00  0.00    +0.000 N 
ATOM     12  C   UNL     1       1.471   8.105  20.512  0.00  0.00    +0.000 C 
ATOM     13  C   UNL     1       0.957   6.727  20.897  0.00  0.00    +0.000 C 
ATOM     14  C   UNL     1       2.001   5.656  20.641  0.00  0.00    +0.000 C 
ATOM     15  C   UNL     1       2.890   5.941  19.459  0.00  0.00    +0.000 A 
ATOM     16  C   UNL     1       3.792   4.920  19.092  0.00  0.00    +0.000 A 
ATOM     17  C   UNL     1       4.624   5.064  17.989  0.00  0.00    +0.000 A 
ATOM     18  C   UNL     1       4.586   6.244  17.264  0.00  0.00    +0.000 A 
ATOM     19  C   UNL     1       3.712   7.273  17.634  0.00  0.00    +0.000 A 
ATOM     20  C   UNL     1       2.836   7.149  18.720  0.00  0.00    +0.000 A 
ENDBRANCH   1  10
BRANCH   8  21
ATOM     21  C   UNL     1       1.326  11.851  20.178  0.00  0.00    +0.000 C 
BRANCH  21  22
ATOM     22  C   UNL     1       1.807  13.144  19.535  0.00  0.00    +0.000 A 
ATOM     23  C   UNL     1       2.653  13.209  18.422  0.00  0.00    +0.000 A 
ATOM     24  C   UNL     1       3.062  14.446  17.904  0.00  0.00    +0.000 A 
ATOM     25  C   UNL     1       2.621  15.630  18.492  0.00  0.00    +0.000 A 
ATOM     26  F   UNL     1       3.022  16.805  17.993  0.00  0.00    +0.000 F 
ATOM     27  C   UNL     1       1.771  15.600  19.585  0.00  0.00    +0.000 A 
ATOM     28  C   UNL     1       1.363  14.365  20.104  0.00  0.00    +0.000 A 
ENDBRANCH  21  22
ENDBRANCH   8  21
TORSDOF 3
ENDMDL
MODEL 3
REMARK VINA RESULT:      -7.5      3.783      7.683
REMARK  Name = 
REMARK  3 active torsions:
REMARK  status: ('A' for Active; 'I' for Inactive)
REMARK    1  A    between atoms: C_2  and  C_3
REMARK    2  A    between atoms: N_10  and  C_11
REMARK    3  A    between atoms: C_11  and  C_12
REMARK                            x       y       z     vdW  Elec       q    Type
REMARK                         _______ _______ _______ _____ _____    ______ ____
ROOT
ATOM      1  C   UNL     1       3.025   7.639  17.936  0.00  0.00    +0.000 A 
ATOM      2  C   UNL     1       4.292   8.018  17.502  0.00  0.00    +0.000 A 
ATOM      3  C   UNL     1       5.122   6.880  17.609  0.00  0.00    +0.000 A 
ATOM      4  S   UNL     1       6.796   6.480  17.457  0.00  0.00    +0.000 S 
ATOM      5  C   UNL     1       6.408   4.827  17.708  0.00  0.00    +0.000 A 
ATOM      6  C   UNL     1       5.063   4.582  17.895  0.00  0.00    +0.000 A 
ATOM      7  C   UNL     1       4.335   5.805  17.878  0.00  0.00    +0.000 A 
ATOM      8  N   UNL     1       3.023   6.240  18.004  0.00  0.00    +0.000 N 
ENDROOT
BRANCH   1  10
ATOM      9  O   UNL     1       1.413   9.082  17.106  0.00  0.00    +0.000 OA
ATOM     10  C   UNL     1       1.862   8.526  18.105  0.00  0.00    +0.000 C 
ATOM     11  N   UNL     1       1.356   8.749  19.425  0.00  0.00    +0.000 N 
ATOM     12  C   UNL     1       1.525   7.785  20.534  0.00  0.00    +0.000 C 
ATOM     13  C   UNL     1       1.912   8.457  21.842  0.00  0.00    +0.000 C 
ATOM     14  C   UNL     1       0.882   9.493  22.256  0.00  0.00    +0.000 C 
ATOM     15  C   UNL     1       0.216  10.187  21.097  0.00  0.00    +0.000 A 
ATOM     16  C   UNL     1      -0.653  11.252  21.420  0.00  0.00    +0.000 A 
ATOM     17  C   UNL     1      -1.282  11.988  20.424  0.00  0.00    +0.000 A 
ATOM     18  C   UNL     1      -1.075  11.643  19.098  0.00  0.00    +0.000 A 
ATOM     19  C   UNL     1      -0.235  10.574  18.768  0.00  0.00    +0.000 A 
ATOM     20  C   UNL     1       0.441   9.831  19.745  0.00  0.00    +0.000 A 
ENDBRANCH   1  10
BRANCH   8  21
ATOM     21  C   UNL     1       1.893   5.304  17.946  0.00  0.00    +0.000 C 
BRANCH  21  22
ATOM     22  C   UNL     1       1.747   4.310  19.089  0.00  0.00    +0.000 A 
ATOM     23  C   UNL     1       1.198   3.030  18.961  0.00  0.00    +0.000 A 
ATOM     24  C   UNL     1       1.086   2.183  20.072  0.00  0.00    +0.000 A 
ATOM     25  C   UNL     1       1.529   2.610  21.323  0.00  0.00    +0.000 A 
ATOM     26  F   UNL     1       1.411   1.796  22.379  0.00  0.00    +0.000 F 
ATOM     27  C   UNL     1       2.091   3.865  21.480  0.00  0.00    +0.000 A 
ATOM     28  C   UNL     1       2.203   4.712  20.371  0.00  0.00    +0.000 A 
ENDBRANCH  21  22
ENDBRANCH   8  21
TORSDOF 3
ENDMDL
MODEL 4
REMARK VINA RESULT:      -7.3      4.266      8.312
REMARK  Name = 
REMARK  3 active torsions:
REMARK  status: ('A' for Active; 'I' for Inactive)
REMARK    1  A    between atoms: C_2  and  C_3
REMARK    2  A    between atoms: N_10  and  C_11
REMARK    3  A    between atoms: C_11  and  C_12
REMARK                            x       y       z     vdW  Elec       q    Type
REMARK                         _______ _______ _______ _____ _____    ______ ____
ROOT
ATOM      1  C   UNL     1       2.341   6.549  19.611  0.00  0.00    +0.000 A 
ATOM      2  C   UNL     1       1.568   5.787  20.483  0.00  0.00    +0.000 A 
ATOM      3  C   UNL     1       2.156   4.504  20.542  0.00  0.00    +0.000 A 
ATOM      4  S   UNL     1       1.803   2.948  21.203  0.00  0.00    +0.000 S 
ATOM      5  C   UNL     1       3.334   2.388  20.665  0.00  0.00    +0.000 A 
ATOM      6  C   UNL     1       4.088   3.341  20.012  0.00  0.00    +0.000 A 
ATOM      7  C   UNL     1       3.360   4.560  19.913  0.00  0.00    +0.000 A 
ATOM      8  N   UNL     1       3.530   5.838  19.400  0.00  0.00    +0.000 N 
ENDROOT
BRANCH   1  10
ATOM      9  O   UNL     1       2.517   8.279  18.081  0.00  0.00    +0.000 OA
ATOM     10  C   UNL     1       2.046   7.917  19.156  0.00  0.00    +0.000 C 
ATOM     11  N   UNL     1       1.286   8.776  20.012  0.00  0.00    +0.000 N 
ATOM     12  C   UNL     1       0.330   8.275  21.025  0.00  0.00    +0.000 C 
ATOM     13  C   UNL     1       0.444   9.009  22.352  0.00  0.00    +0.000 C 
ATOM     14  C   UNL     1       0.225  10.501  22.178  0.00  0.00    +0.000 C 
ATOM     15  C   UNL     1       0.706  11.038  20.855  0.00  0.00    +0.000 A 
ATOM     16  C   UNL     1       0.650  12.438  20.689  0.00  0.00    +0.000 A 
ATOM     17  C   UNL     1       1.111  13.039  19.526  0.00  0.00    +0.000 A 
ATOM     18  C   UNL     1       1.600  12.242  18.503  0.00  0.00    +0.000 A 
ATOM     19  C   UNL     1       1.638  10.851  18.647  0.00  0.00    +0.000 A 
ATOM     20  C   UNL     1       1.212  10.213  19.820  0.00  0.00    +0.000 A 
ENDBRANCH   1  10
BRANCH   8  21
ATOM     21  C   UNL     1       4.847   6.328  18.977  0.00  0.00    +0.000 C 
BRANCH  21  22
ATOM     22  C   UNL     1       5.388   5.825  17.647  0.00  0.00    +0.000 A 
ATOM     23  C   UNL     1       4.851   6.152  16.397  0.00  0.00    +0.000 A 
ATOM     24  C   UNL     1       5.403   5.630  15.220  0.00  0.00    +0.000 A 
ATOM     25  C   UNL     1       6.504   4.779  15.282  0.00  0.00    +0.000 A 
ATOM     26  F   UNL     1       7.021   4.280  14.152  0.00  0.00    +0.000 F 
ATOM     27  C   UNL     1       7.070   4.448  16.502  0.00  0.00    +0.000 A 
ATOM     28  C   UNL     1       6.519   4.969  17.679  0.00  0.00    +0.000 A 
ENDBRANCH  21  22
ENDBRANCH   8  21
TORSDOF 3
ENDMDL
MODEL 5
REMARK VINA RESULT:      -7.3      2.623      4.090
REMARK  Name = 
REMARK  3 active torsions:
REMARK  status: ('A' for Active; 'I' for Inactive)
REMARK    1  A    between atoms: C_2  and  C_3
REMARK    2  A    between atoms: N_10  and  C_11
REMARK    3  A    between atoms: C_11  and  C_12
REMARK                            x       y       z     vdW  Elec       q    Type
REMARK                         _______ _______ _______ _____ _____    ______ ____
ROOT
ATOM      1  C   UNL     1      -2.104  12.822  20.003  0.00  0.00    +0.000 A 
ATOM      2  C   UNL     1      -2.049  13.795  20.996  0.00  0.00    +0.000 A 
ATOM      3  C   UNL     1      -3.359  14.299  21.152  0.00  0.00    +0.000 A 
ATOM      4  S   UNL     1      -4.164  15.575  21.994  0.00  0.00    +0.000 S 
ATOM      5  C   UNL     1      -5.670  14.983  21.422  0.00  0.00    +0.000 A 
ATOM      6  C   UNL     1      -5.573  13.860  20.627  0.00  0.00    +0.000 A 
ATOM      7  C   UNL     1      -4.207  13.503  20.447  0.00  0.00    +0.000 A 
ATOM      8  N   UNL     1      -3.459  12.534  19.793  0.00  0.00    +0.000 N 
ENDROOT
BRANCH   1  10
ATOM      9  O   UNL     1      -0.638  12.362  18.268  0.00  0.00    +0.000 OA
ATOM     10  C   UNL     1      -0.956  12.102  19.426  0.00  0.00    +0.000 C 
ATOM     11  N   UNL     1      -0.312  11.095  20.213  0.00  0.00    +0.000 N 
ATOM     12  C   UNL     1      -0.327  11.086  21.692  0.00  0.00    +0.000 C 
ATOM     13  C   UNL     1      -0.586   9.703  22.268  0.00  0.00    +0.000 C 
ATOM     14  C   UNL     1       0.452   8.704  21.790  0.00  0.00    +0.000 C 
ATOM     15  C   UNL     1       0.963   8.974  20.399  0.00  0.00    +0.000 A 
ATOM     16  C   UNL     1       1.830   8.004  19.851  0.00  0.00    +0.000 A 
ATOM     17  C   UNL     1       2.322   8.134  18.559  0.00  0.00    +0.000 A 
ATOM     18  C   UNL     1       1.979   9.253  17.816  0.00  0.00    +0.000 A 
ATOM     19  C   UNL     1       1.140  10.232  18.359  0.00  0.00    +0.000 A 
ATOM     20  C   UNL     1       0.599  10.117  19.646  0.00  0.00    +0.000 A 
ENDBRANCH   1  10
BRANCH   8  21
ATOM     21  C   UNL     1      -4.081  11.326  19.240  0.00  0.00    +0.000 C 
BRANCH  21  22
ATOM     22  C   UNL     1      -3.750  10.963  17.799  0.00  0.00    +0.000 A 
ATOM     23  C   UNL     1      -4.316  11.576  16.677  0.00  0.00    +0.000 A 
ATOM     24  C   UNL     1      -3.965  11.167  15.383  0.00  0.00    +0.000 A 
ATOM     25  C   UNL     1      -3.037  10.144  15.201  0.00  0.00    +0.000 A 
ATOM     26  F   UNL     1      -2.712   9.758  13.961  0.00  0.00    +0.000 F 
ATOM     27  C   UNL     1      -2.446   9.528  16.291  0.00  0.00    +0.000 A 
ATOM     28  C   UNL     1      -2.797   9.934  17.584  0.00  0.00    +0.000 A 
ENDBRANCH  21  22
ENDBRANCH   8  21
TORSDOF 3
ENDMDL
MODEL 6
REMARK VINA RESULT:      -7.1      1.038      1.283
REMARK  Name = 
REMARK  3 active torsions:
REMARK  status: ('A' for Active; 'I' for Inactive)
REMARK    1  A    between atoms: C_2  and  C_3
REMARK    2  A    between atoms: N_10  and  C_11
REMARK    3  A    between atoms: C_11  and  C_12
REMARK                            x       y       z     vdW  Elec       q    Type
REMARK                         _______ _______ _______ _____ _____    ______ ____
ROOT
ATOM      1  C   UNL     1       0.847  10.018  19.991  0.00  0.00    +0.000 A 
ATOM      2  C   UNL     1       1.085  11.028  20.918  0.00  0.00    +0.000 A 
ATOM      3  C   UNL     1       0.957  12.256  20.233  0.00  0.00    +0.000 A 
ATOM      4  S   UNL     1       1.227  13.937  20.526  0.00  0.00    +0.000 S 
ATOM      5  C   UNL     1       0.574  14.296  18.979  0.00  0.00    +0.000 A 
ATOM      6  C   UNL     1       0.162  13.189  18.266  0.00  0.00    +0.000 A 
ATOM      7  C   UNL     1       0.437  12.002  19.002  0.00  0.00    +0.000 A 
ATOM      8  N   UNL     1       0.286  10.630  18.863  0.00  0.00    +0.000 N 
ENDROOT
BRANCH   1  10
ATOM      9  O   UNL     1       0.415   8.094  21.209  0.00  0.00    +0.000 OA
ATOM     10  C   UNL     1       0.980   8.571  20.228  0.00  0.00    +0.000 C 
ATOM     11  N   UNL     1       1.810   7.806  19.348  0.00  0.00    +0.000 N 
ATOM     12  C   UNL     1       2.095   8.201  17.951  0.00  0.00    +0.000 C 
ATOM     13  C   UNL     1       3.559   8.021  17.578  0.00  0.00    +0.000 C 
ATOM     14  C   UNL     1       4.005   6.584  17.774  0.00  0.00    +0.000 C 
ATOM     15  C   UNL     1       3.317   5.881  18.915  0.00  0.00    +0.000 A 
ATOM     16  C   UNL     1       3.786   4.587  19.228  0.00  0.00    +0.000 A 
ATOM     17  C   UNL     1       3.251   3.871  20.291  0.00  0.00    +0.000 A 
ATOM     18  C   UNL     1       2.218   4.428  21.028  0.00  0.00    +0.000 A 
ATOM     19  C   UNL     1       1.729   5.701  20.710  0.00  0.00    +0.000 A 
ATOM     20  C   UNL     1       2.267   6.465  19.666  0.00  0.00    +0.000 A 
ENDBRANCH   1  10
BRANCH   8  21
ATOM     21  C   UNL     1      -0.561  10.052  17.812  0.00  0.00    +0.000 C 
BRANCH  21  22
ATOM     22  C   UNL     1      -1.965  10.618  17.653  0.00  0.00    +0.000 A 
ATOM     23  C   UNL     1      -2.727  11.153  18.696  0.00  0.00    +0.000 A 
ATOM     24  C   UNL     1      -4.021  11.639  18.464  0.00  0.00    +0.000 A 
ATOM     25  C   UNL     1      -4.562  11.600  17.180  0.00  0.00    +0.000 A 
ATOM     26  F   UNL     1      -5.801  12.061  16.969  0.00  0.00    +0.000 F 
ATOM     27  C   UNL     1      -3.827  11.090  16.122  0.00  0.00    +0.000 A 
ATOM     28  C   UNL     1      -2.535  10.604  16.354  0.00  0.00    +0.000 A 
ENDBRANCH  21  22
ENDBRANCH   8  21
TORSDOF 3
ENDMDL
MODEL 7
REMARK VINA RESULT:      -7.1      2.312      3.654
REMARK  Name = 
REMARK  3 active torsions:
REMARK  status: ('A' for Active; 'I' for Inactive)
REMARK    1  A    between atoms: C_2  and  C_3
REMARK    2  A    between atoms: N_10  and  C_11
REMARK    3  A    between atoms: C_11  and  C_12
REMARK                            x       y       z     vdW  Elec       q    Type
REMARK                         _______ _______ _______ _____ _____    ______ ____
ROOT
ATOM      1  C   UNL     1      -0.981  13.263  20.049  0.00  0.00    +0.000 A 
ATOM      2  C   UNL     1      -0.701  14.381  20.828  0.00  0.00    +0.000 A 
ATOM      3  C   UNL     1      -1.930  15.034  21.070  0.00  0.00    +0.000 A 
ATOM      4  S   UNL     1      -2.497  16.510  21.766  0.00  0.00    +0.000 S 
ATOM      5  C   UNL     1      -4.114  15.984  21.528  0.00  0.00    +0.000 A 
ATOM      6  C   UNL     1      -4.225  14.737  20.948  0.00  0.00    +0.000 A 
ATOM      7  C   UNL     1      -2.933  14.219  20.648  0.00  0.00    +0.000 A 
ATOM      8  N   UNL     1      -2.370  13.082  20.086  0.00  0.00    +0.000 N 
ENDROOT
BRANCH   1  10
ATOM      9  O   UNL     1       0.420  12.591  18.330  0.00  0.00    +0.000 OA
ATOM     10  C   UNL     1       0.006  12.343  19.460  0.00  0.00    +0.000 C 
ATOM     11  N   UNL     1       0.384  11.178  20.200  0.00  0.00    +0.000 N 
ATOM     12  C   UNL     1       0.306  11.091  21.675  0.00  0.00    +0.000 C 
ATOM     13  C   UNL     1      -0.269   9.767  22.154  0.00  0.00    +0.000 C 
ATOM     14  C   UNL     1       0.547   8.594  21.644  0.00  0.00    +0.000 C 
ATOM     15  C   UNL     1       1.162   8.822  20.288  0.00  0.00    +0.000 A 
ATOM     16  C   UNL     1       1.821   7.718  19.704  0.00  0.00    +0.000 A 
ATOM     17  C   UNL     1       2.382   7.810  18.438  0.00  0.00    +0.000 A 
ATOM     18  C   UNL     1       2.320   9.015  17.757  0.00  0.00    +0.000 A 
ATOM     19  C   UNL     1       1.690  10.123  18.337  0.00  0.00    +0.000 A 
ATOM     20  C   UNL     1       1.085  10.057  19.599  0.00  0.00    +0.000 A 
ENDBRANCH   1  10
BRANCH   8  21
ATOM     21  C   UNL     1      -3.159  11.866  19.857  0.00  0.00    +0.000 C 
BRANCH  21  22
ATOM     22  C   UNL     1      -3.245  11.345  18.430  0.00  0.00    +0.000 A 
ATOM     23  C   UNL     1      -4.196  11.759  17.491  0.00  0.00    +0.000 A 
ATOM     24  C   UNL     1      -4.213  11.213  16.200  0.00  0.00    +0.000 A 
ATOM     25  C   UNL     1      -3.273  10.252  15.835  0.00  0.00    +0.000 A 
ATOM     26  F   UNL     1      -3.302   9.733  14.601  0.00  0.00    +0.000 F 
ATOM     27  C   UNL     1      -2.309   9.832  16.736  0.00  0.00    +0.000 A 
ATOM     28  C   UNL     1      -2.291  10.376  18.026  0.00  0.00    +0.000 A 
ENDBRANCH  21  22
ENDBRANCH   8  21
TORSDOF 3
ENDMDL
MODEL 8
REMARK VINA RESULT:      -7.1      2.240      3.515
REMARK  Name = 
REMARK  3 active torsions:
REMARK  status: ('A' for Active; 'I' for Inactive)
REMARK    1  A    between atoms: C_2  and  C_3
REMARK    2  A    between atoms: N_10  and  C_11
REMARK    3  A    between atoms: C_11  and  C_12
REMARK                            x       y       z     vdW  Elec       q    Type
REMARK                         _______ _______ _______ _____ _____    ______ ____
ROOT
ATOM      1  C   UNL     1       1.529   8.339  20.158  0.00  0.00    +0.000 A 
ATOM      2  C   UNL     1       0.981   7.979  21.385  0.00  0.00    +0.000 A 
ATOM      3  C   UNL     1       0.329   9.122  21.897  0.00  0.00    +0.000 A 
ATOM      4  S   UNL     1      -0.444   9.627  23.358  0.00  0.00    +0.000 S 
ATOM      5  C   UNL     1      -0.869  11.109  22.603  0.00  0.00    +0.000 A 
ATOM      6  C   UNL     1      -0.448  11.220  21.294  0.00  0.00    +0.000 A 
ATOM      7  C   UNL     1       0.290  10.063  20.916  0.00  0.00    +0.000 A 
ATOM      8  N   UNL     1       0.956   9.568  19.805  0.00  0.00    +0.000 N 
ENDROOT
BRANCH   1  10
ATOM      9  O   UNL     1       3.072   8.059  18.452  0.00  0.00    +0.000 OA
ATOM     10  C   UNL     1       2.394   7.501  19.312  0.00  0.00    +0.000 C 
ATOM     11  N   UNL     1       2.355   6.080  19.486  0.00  0.00    +0.000 N 
ATOM     12  C   UNL     1       1.963   5.427  20.754  0.00  0.00    +0.000 C 
ATOM     13  C   UNL     1       1.032   4.244  20.540  0.00  0.00    +0.000 C 
ATOM     14  C   UNL     1       1.663   3.202  19.636  0.00  0.00    +0.000 C 
ATOM     15  C   UNL     1       2.574   3.778  18.584  0.00  0.00    +0.000 A 
ATOM     16  C   UNL     1       3.084   2.870  17.631  0.00  0.00    +0.000 A 
ATOM     17  C   UNL     1       3.897   3.306  16.593  0.00  0.00    +0.000 A 
ATOM     18  C   UNL     1       4.235   4.648  16.518  0.00  0.00    +0.000 A 
ATOM     19  C   UNL     1       3.754   5.552  17.472  0.00  0.00    +0.000 A 
ATOM     20  C   UNL     1       2.906   5.154  18.513  0.00  0.00    +0.000 A 
ENDBRANCH   1  10
BRANCH   8  21
ATOM     21  C   UNL     1       0.798  10.177  18.478  0.00  0.00    +0.000 C 
BRANCH  21  22
ATOM     22  C   UNL     1      -0.619  10.483  18.013  0.00  0.00    +0.000 A 
ATOM     23  C   UNL     1      -1.278  11.698  18.226  0.00  0.00    +0.000 A 
ATOM     24  C   UNL     1      -2.592  11.889  17.776  0.00  0.00    +0.000 A 
ATOM     25  C   UNL     1      -3.255  10.866  17.102  0.00  0.00    +0.000 A 
ATOM     26  F   UNL     1      -4.512  11.057  16.681  0.00  0.00    +0.000 F 
ATOM     27  C   UNL     1      -2.625   9.657  16.860  0.00  0.00    +0.000 A 
ATOM     28  C   UNL     1      -1.313   9.465  17.310  0.00  0.00    +0.000 A 
ENDBRANCH  21  22
ENDBRANCH   8  21
TORSDOF 3
ENDMDL
MODEL 9
REMARK VINA RESULT:      -7.1      4.415      8.430
REMARK  Name = 
REMARK  3 active torsions:
REMARK  status: ('A' for Active; 'I' for Inactive)
REMARK    1  A    between atoms: C_2  and  C_3
REMARK    2  A    between atoms: N_10  and  C_11
REMARK    3  A    between atoms: C_11  and  C_12
REMARK                            x       y       z     vdW  Elec       q    Type
REMARK                         _______ _______ _______ _____ _____    ______ ____
ROOT
ATOM      1  C   UNL     1       1.924   6.958  19.614  0.00  0.00    +0.000 A 
ATOM      2  C   UNL     1       1.777   6.333  20.849  0.00  0.00    +0.000 A 
ATOM      3  C   UNL     1       1.976   4.951  20.639  0.00  0.00    +0.000 A 
ATOM      4  S   UNL     1       1.832   3.473  21.522  0.00  0.00    +0.000 S 
ATOM      5  C   UNL     1       2.474   2.624  20.176  0.00  0.00    +0.000 A 
ATOM      6  C   UNL     1       2.791   3.425  19.098  0.00  0.00    +0.000 A 
ATOM      7  C   UNL     1       2.450   4.778  19.376  0.00  0.00    +0.000 A 
ATOM      8  N   UNL     1       2.502   6.017  18.752  0.00  0.00    +0.000 N 
ENDROOT
BRANCH   1  10
ATOM      9  O   UNL     1       2.279   8.877  18.366  0.00  0.00    +0.000 OA
ATOM     10  C   UNL     1       1.695   8.383  19.328  0.00  0.00    +0.000 C 
ATOM     11  N   UNL     1       0.861   9.136  20.215  0.00  0.00    +0.000 N 
ATOM     12  C   UNL     1      -0.199   8.527  21.047  0.00  0.00    +0.000 C 
ATOM     13  C   UNL     1      -0.213   9.068  22.468  0.00  0.00    +0.000 C 
ATOM     14  C   UNL     1      -0.394  10.574  22.483  0.00  0.00    +0.000 C 
ATOM     15  C   UNL     1       0.227  11.275  21.303  0.00  0.00    +0.000 A 
ATOM     16  C   UNL     1       0.206  12.686  21.330  0.00  0.00    +0.000 A 
ATOM     17  C   UNL     1       0.792  13.429  20.314  0.00  0.00    +0.000 A 
ATOM     18  C   UNL     1       1.374  12.768  19.244  0.00  0.00    +0.000 A 
ATOM     19  C   UNL     1       1.378  11.369  19.196  0.00  0.00    +0.000 A 
ATOM     20  C   UNL     1       0.826  10.588  20.219  0.00  0.00    +0.000 A 
ENDBRANCH   1  10
BRANCH   8  21
ATOM     21  C   UNL     1       3.282   6.229  17.527  0.00  0.00    +0.000 C 
BRANCH  21  22
ATOM     22  C   UNL     1       4.688   5.646  17.482  0.00  0.00    +0.000 A 
ATOM     23  C   UNL     1       5.212   4.923  16.406  0.00  0.00    +0.000 A 
ATOM     24  C   UNL     1       6.515   4.407  16.455  0.00  0.00    +0.000 A 
ATOM     25  C   UNL     1       7.307   4.617  17.582  0.00  0.00    +0.000 A 
ATOM     26  F   UNL     1       8.547   4.115  17.622  0.00  0.00    +0.000 F 
ATOM     27  C   UNL     1       6.823   5.342  18.658  0.00  0.00    +0.000 A 
ATOM     28  C   UNL     1       5.522   5.857  18.610  0.00  0.00    +0.000 A 
ENDBRANCH  21  22
ENDBRANCH   8  21
TORSDOF 3
ENDMDL
