MODEL 1
REMARK VINA RESULT:      -5.4      0.000      0.000
REMARK  Name = 
REMARK  10 active torsions:
REMARK  status: ('A' for Active; 'I' for Inactive)
REMARK    1  A    between atoms: C_1  and  C_2
REMARK    2  A    between atoms: C_2  and  C_3
REMARK    3  A    between atoms: C_3  and  C_4
REMARK    4  A    between atoms: C_4  and  C_5
REMARK    5  A    between atoms: C_6  and  C_7
REMARK    6  A    between atoms: C_7  and  O_8
REMARK    7  A    between atoms: C_7  and  CA_9
REMARK    8  A    between atoms: CA_9  and  N_10
REMARK    9  A    between atoms: CA_9  and  C_11
REMARK   10  A    between atoms: C_11  and  O_12
REMARK                            x       y       z     vdW  Elec       q    Type
REMARK                         _______ _______ _______ _____ _____    ______ ____
ROOT
ATOM      1  C   UNL     1       6.787   6.036  16.919  0.00  0.00    +0.000 C 
ENDROOT
BRANCH   1   3
ATOM      2  C   UNL     1       7.855   8.372  17.650  0.00  0.00    +0.000 C 
ATOM      3  C   UNL     1       7.370   7.315  17.361  0.00  0.00    +0.000 C 
BRANCH   2   4
ATOM      4  C   UNL     1       8.453   9.692  17.907  0.00  0.00    +0.000 C 
BRANCH   4   5
ATOM      5  C   UNL     1       9.182   9.725  19.257  0.00  0.00    +0.000 C 
BRANCH   5   7
ATOM      6  C   UNL     1      10.544  11.565  18.197  0.00  0.00    +0.000 C 
ATOM      7  C   UNL     1       9.961  11.024  19.493  0.00  0.00    +0.000 C 
ENDBRANCH   5   7
ENDBRANCH   4   5
ENDBRANCH   2   4
ENDBRANCH   1   3
BRANCH   1   8
ATOM      8  O   UNL     1       7.379   5.672  15.672  0.00  0.00    +0.000 OA
ATOM      9  H   UNL     1       8.342   5.635  15.811  0.00  0.00    +0.000 HD
ENDBRANCH   1   8
BRANCH   1  10
ATOM     10  CA  UNL     1       6.992   4.899  17.963  0.00  0.00    +0.000 C 
BRANCH  10  11
ATOM     11  N   UNL     1       8.302   4.210  17.889  0.00  0.00    +0.000 NA
ATOM     12  H1  UNL     1       8.677   4.294  16.941  0.00  0.00    +0.000 HD
ATOM     13  H2  UNL     1       8.168   3.210  18.042  0.00  0.00    +0.000 HD
ENDBRANCH  10  11
BRANCH  10  14
ATOM     14  C   UNL     1       6.775   5.462  19.391  0.00  0.00    +0.000 C 
BRANCH  14  15
ATOM     15  O   UNL     1       7.964   5.409  20.180  0.00  0.00    +0.000 OA
ATOM     16  H   UNL     1       8.653   4.993  19.632  0.00  0.00    +0.000 HD
ENDBRANCH  14  15
ENDBRANCH  10  14
ENDBRANCH   1  10
TORSDOF 9
ENDMDL
MODEL 2
REMARK VINA RESULT:      -5.4      4.475      7.307
REMARK  Name = 
REMARK  10 active torsions:
REMARK  status: ('A' for Active; 'I' for Inactive)
REMARK    1  A    between atoms: C_1  and  C_2
REMARK    2  A    between atoms: C_2  and  C_3
REMARK    3  A    between atoms: C_3  and  C_4
REMARK    4  A    between atoms: C_4  and  C_5
REMARK    5  A    between atoms: C_6  and  C_7
REMARK    6  A    between atoms: C_7  and  O_8
REMARK    7  A    between atoms: C_7  and  CA_9
REMARK    8  A    between atoms: CA_9  and  N_10
REMARK    9  A    between atoms: CA_9  and  C_11
REMARK   10  A    between atoms: C_11  and  O_12
REMARK                            x       y       z     vdW  Elec       q    Type
REMARK                         _______ _______ _______ _____ _____    ______ ____
ROOT
ATOM      1  C   UNL     1       5.624   5.235  15.655  0.00  0.00    +0.000 C 
ENDROOT
BRANCH   1   3
ATOM      2  C   UNL     1       6.071   3.898  13.388  0.00  0.00    +0.000 C 
ATOM      3  C   UNL     1       5.837   4.475  14.411  0.00  0.00    +0.000 C 
BRANCH   2   4
ATOM      4  C   UNL     1       6.445   3.239  12.126  0.00  0.00    +0.000 C 
BRANCH   4   5
ATOM      5  C   UNL     1       5.245   2.530  11.485  0.00  0.00    +0.000 C 
BRANCH   5   7
ATOM      6  C   UNL     1       3.409   3.655  10.171  0.00  0.00    +0.000 C 
ATOM      7  C   UNL     1       3.950   3.347  11.558  0.00  0.00    +0.000 C 
ENDBRANCH   5   7
ENDBRANCH   4   5
ENDBRANCH   2   4
ENDBRANCH   1   3
BRANCH   1   8
ATOM      8  O   UNL     1       4.755   4.485  16.504  0.00  0.00    +0.000 OA
ATOM      9  H   UNL     1       5.306   4.095  17.207  0.00  0.00    +0.000 HD
ENDBRANCH   1   8
BRANCH   1  10
ATOM     10  CA  UNL     1       6.958   5.547  16.396  0.00  0.00    +0.000 C 
BRANCH  10  11
ATOM     11  N   UNL     1       7.136   6.962  16.795  0.00  0.00    +0.000 NA
ATOM     12  H1  UNL     1       6.824   7.571  16.036  0.00  0.00    +0.000 HD
ATOM     13  H2  UNL     1       8.131   7.159  16.913  0.00  0.00    +0.000 HD
ENDBRANCH  10  11
BRANCH  10  14
ATOM     14  C   UNL     1       7.086   4.630  17.639  0.00  0.00    +0.000 C 
BRANCH  14  15
ATOM     15  O   UNL     1       8.374   4.017  17.729  0.00  0.00    +0.000 OA
ATOM     16  H   UNL     1       8.971   4.519  17.146  0.00  0.00    +0.000 HD
ENDBRANCH  14  15
ENDBRANCH  10  14
ENDBRANCH   1  10
TORSDOF 9
ENDMDL
MODEL 3
REMARK VINA RESULT:      -5.3      4.275      7.255
REMARK  Name = 
REMARK  10 active torsions:
REMARK  status: ('A' for Active; 'I' for Inactive)
REMARK    1  A    between atoms: C_1  and  C_2
REMARK    2  A    between atoms: C_2  and  C_3
REMARK    3  A    between atoms: C_3  and  C_4
REMARK    4  A    between atoms: C_4  and  C_5
REMARK    5  A    between atoms: C_6  and  C_7
REMARK    6  A    between atoms: C_7  and  O_8
REMARK    7  A    between atoms: C_7  and  CA_9
REMARK    8  A    between atoms: CA_9  and  N_10
REMARK    9  A    between atoms: CA_9  and  C_11
REMARK   10  A    between atoms: C_11  and  O_12
REMARK                            x       y       z     vdW  Elec       q    Type
REMARK                         _______ _______ _______ _____ _____    ______ ____
ROOT
ATOM      1  C   UNL     1       5.160   4.693  18.211  0.00  0.00    +0.000 C 
ENDROOT
BRANCH   1   3
ATOM      2  C   UNL     1       2.580   4.031  18.031  0.00  0.00    +0.000 C 
ATOM      3  C   UNL     1       3.738   4.333  18.072  0.00  0.00    +0.000 C 
BRANCH   2   4
ATOM      4  C   UNL     1       1.156   3.657  18.081  0.00  0.00    +0.000 C 
BRANCH   4   5
ATOM      5  C   UNL     1       0.833   2.846  19.344  0.00  0.00    +0.000 C 
BRANCH   5   7
ATOM      6  C   UNL     1       1.924   2.798  21.617  0.00  0.00    +0.000 C 
ATOM      7  C   UNL     1       1.095   3.618  20.642  0.00  0.00    +0.000 C 
ENDBRANCH   5   7
ENDBRANCH   4   5
ENDBRANCH   2   4
ENDBRANCH   1   3
BRANCH   1   8
ATOM      8  O   UNL     1       5.829   3.645  18.912  0.00  0.00    +0.000 OA
ATOM      9  H   UNL     1       6.222   3.056  18.243  0.00  0.00    +0.000 HD
ENDBRANCH   1   8
BRANCH   1  10
ATOM     10  CA  UNL     1       5.847   4.941  16.835  0.00  0.00    +0.000 C 
BRANCH  10  11
ATOM     11  N   UNL     1       5.212   5.985  15.999  0.00  0.00    +0.000 NA
ATOM     12  H1  UNL     1       4.964   6.786  16.585  0.00  0.00    +0.000 HD
ATOM     13  H2  UNL     1       4.328   5.633  15.629  0.00  0.00    +0.000 HD
ENDBRANCH  10  11
BRANCH  10  14
ATOM     14  C   UNL     1       7.342   5.282  17.058  0.00  0.00    +0.000 C 
BRANCH  14  15
ATOM     15  O   UNL     1       8.135   4.117  17.292  0.00  0.00    +0.000 OA
ATOM     16  H   UNL     1       7.640   3.555  17.914  0.00  0.00    +0.000 HD
ENDBRANCH  14  15
ENDBRANCH  10  14
ENDBRANCH   1  10
TORSDOF 9
ENDMDL
MODEL 4
REMARK VINA RESULT:      -5.2      3.542      6.385
REMARK  Name = 
REMARK  10 active torsions:
REMARK  status: ('A' for Active; 'I' for Inactive)
REMARK    1  A    between atoms: C_1  and  C_2
REMARK    2  A    between atoms: C_2  and  C_3
REMARK    3  A    between atoms: C_3  and  C_4
REMARK    4  A    between atoms: C_4  and  C_5
REMARK    5  A    between atoms: C_6  and  C_7
REMARK    6  A    between atoms: C_7  and  O_8
REMARK    7  A    between atoms: C_7  and  CA_9
REMARK    8  A    between atoms: CA_9  and  N_10
REMARK    9  A    between atoms: CA_9  and  C_11
REMARK   10  A    between atoms: C_11  and  O_12
REMARK                            x       y       z     vdW  Elec       q    Type
REMARK                         _______ _______ _______ _____ _____    ______ ____
ROOT
ATOM      1  C   UNL     1       6.066   5.785  16.956  0.00  0.00    +0.000 C 
ENDROOT
BRANCH   1   3
ATOM      2  C   UNL     1       3.520   5.518  17.717  0.00  0.00    +0.000 C 
ATOM      3  C   UNL     1       4.649   5.650  17.339  0.00  0.00    +0.000 C 
BRANCH   2   4
ATOM      4  C   UNL     1       2.169   5.337  18.272  0.00  0.00    +0.000 C 
BRANCH   4   5
ATOM      5  C   UNL     1       1.570   3.985  17.862  0.00  0.00    +0.000 C 
BRANCH   5   7
ATOM      6  C   UNL     1       1.069   3.986  20.334  0.00  0.00    +0.000 C 
ATOM      7  C   UNL     1       1.025   3.179  19.046  0.00  0.00    +0.000 C 
ENDBRANCH   5   7
ENDBRANCH   4   5
ENDBRANCH   2   4
ENDBRANCH   1   3
BRANCH   1   8
ATOM      8  O   UNL     1       6.403   7.172  16.937  0.00  0.00    +0.000 OA
ATOM      9  H   UNL     1       6.330   7.472  16.013  0.00  0.00    +0.000 HD
ENDBRANCH   1   8
BRANCH   1  10
ATOM     10  CA  UNL     1       7.016   5.015  17.920  0.00  0.00    +0.000 C 
BRANCH  10  11
ATOM     11  N   UNL     1       8.038   4.175  17.252  0.00  0.00    +0.000 NA
ATOM     12  H1  UNL     1       8.746   3.895  17.935  0.00  0.00    +0.000 HD
ATOM     13  H2  UNL     1       8.535   4.734  16.557  0.00  0.00    +0.000 HD
ENDBRANCH  10  11
BRANCH  10  14
ATOM     14  C   UNL     1       7.707   6.020  18.877  0.00  0.00    +0.000 C 
BRANCH  14  15
ATOM     15  O   UNL     1       7.776   5.531  20.217  0.00  0.00    +0.000 OA
ATOM     16  H   UNL     1       8.397   6.104  20.700  0.00  0.00    +0.000 HD
ENDBRANCH  14  15
ENDBRANCH  10  14
ENDBRANCH   1  10
TORSDOF 9
ENDMDL
MODEL 5
REMARK VINA RESULT:      -5.2      3.883      6.973
REMARK  Name = 
REMARK  10 active torsions:
REMARK  status: ('A' for Active; 'I' for Inactive)
REMARK    1  A    between atoms: C_1  and  C_2
REMARK    2  A    between atoms: C_2  and  C_3
REMARK    3  A    between atoms: C_3  and  C_4
REMARK    4  A    between atoms: C_4  and  C_5
REMARK    5  A    between atoms: C_6  and  C_7
REMARK    6  A    between atoms: C_7  and  O_8
REMARK    7  A    between atoms: C_7  and  CA_9
REMARK    8  A    between atoms: CA_9  and  N_10
REMARK    9  A    between atoms: CA_9  and  C_11
REMARK   10  A    between atoms: C_11  and  O_12
REMARK                            x       y       z     vdW  Elec       q    Type
REMARK                         _______ _______ _______ _____ _____    ______ ____
ROOT
ATOM      1  C   UNL     1       5.437   3.959  16.721  0.00  0.00    +0.000 C 
ENDROOT
BRANCH   1   3
ATOM      2  C   UNL     1       2.888   4.127  17.498  0.00  0.00    +0.000 C 
ATOM      3  C   UNL     1       4.038   4.088  17.165  0.00  0.00    +0.000 C 
BRANCH   2   4
ATOM      4  C   UNL     1       1.466   4.078  17.879  0.00  0.00    +0.000 C 
BRANCH   4   5
ATOM      5  C   UNL     1       1.216   3.041  18.983  0.00  0.00    +0.000 C 
BRANCH   5   7
ATOM      6  C   UNL     1       1.771   3.006  21.443  0.00  0.00    +0.000 C 
ATOM      7  C   UNL     1       0.945   3.670  20.354  0.00  0.00    +0.000 C 
ENDBRANCH   5   7
ENDBRANCH   4   5
ENDBRANCH   2   4
ENDBRANCH   1   3
BRANCH   1   8
ATOM      8  O   UNL     1       5.538   4.445  15.383  0.00  0.00    +0.000 OA
ATOM      9  H   UNL     1       4.695   4.887  15.174  0.00  0.00    +0.000 HD
ENDBRANCH   1   8
BRANCH   1  10
ATOM     10  CA  UNL     1       6.426   4.728  17.647  0.00  0.00    +0.000 C 
BRANCH  10  11
ATOM     11  N   UNL     1       7.791   4.157  17.716  0.00  0.00    +0.000 NA
ATOM     12  H1  UNL     1       8.370   4.735  18.329  0.00  0.00    +0.000 HD
ATOM     13  H2  UNL     1       8.228   4.212  16.795  0.00  0.00    +0.000 HD
ENDBRANCH  10  11
BRANCH  10  14
ATOM     14  C   UNL     1       6.499   6.213  17.207  0.00  0.00    +0.000 C 
BRANCH  14  15
ATOM     15  O   UNL     1       7.550   6.448  16.269  0.00  0.00    +0.000 OA
ATOM     16  H   UNL     1       7.401   7.332  15.889  0.00  0.00    +0.000 HD
ENDBRANCH  14  15
ENDBRANCH  10  14
ENDBRANCH   1  10
TORSDOF 9
ENDMDL
MODEL 6
REMARK VINA RESULT:      -5.2      4.458      7.234
REMARK  Name = 
REMARK  10 active torsions:
REMARK  status: ('A' for Active; 'I' for Inactive)
REMARK    1  A    between atoms: C_1  and  C_2
REMARK    2  A    between atoms: C_2  and  C_3
REMARK    3  A    between atoms: C_3  and  C_4
REMARK    4  A    between atoms: C_4  and  C_5
REMARK    5  A    between atoms: C_6  and  C_7
REMARK    6  A    between atoms: C_7  and  O_8
REMARK    7  A    between atoms: C_7  and  CA_9
REMARK    8  A    between atoms: CA_9  and  N_10
REMARK    9  A    between atoms: CA_9  and  C_11
REMARK   10  A    between atoms: C_11  and  O_12
REMARK                            x       y       z     vdW  Elec       q    Type
REMARK                         _______ _______ _______ _____ _____    ______ ____
ROOT
ATOM      1  C   UNL     1       5.588   4.688  16.159  0.00  0.00    +0.000 C 
ENDROOT
BRANCH   1   3
ATOM      2  C   UNL     1       5.577   3.902  13.607  0.00  0.00    +0.000 C 
ATOM      3  C   UNL     1       5.560   4.287  14.741  0.00  0.00    +0.000 C 
BRANCH   2   4
ATOM      4  C   UNL     1       5.643   3.346  12.246  0.00  0.00    +0.000 C 
BRANCH   4   5
ATOM      5  C   UNL     1       7.095   3.209  11.766  0.00  0.00    +0.000 C 
BRANCH   5   7
ATOM      6  C   UNL     1       6.201   0.941  11.118  0.00  0.00    +0.000 C 
ATOM      7  C   UNL     1       7.349   1.925  10.968  0.00  0.00    +0.000 C 
ENDBRANCH   5   7
ENDBRANCH   4   5
ENDBRANCH   2   4
ENDBRANCH   1   3
BRANCH   1   8
ATOM      8  O   UNL     1       5.566   3.511  16.967  0.00  0.00    +0.000 OA
ATOM      9  H   UNL     1       4.643   3.371  17.245  0.00  0.00    +0.000 HD
ENDBRANCH   1   8
BRANCH   1  10
ATOM     10  CA  UNL     1       6.836   5.553  16.505  0.00  0.00    +0.000 C 
BRANCH  10  11
ATOM     11  N   UNL     1       6.596   7.014  16.534  0.00  0.00    +0.000 NA
ATOM     12  H1  UNL     1       5.807   7.217  17.152  0.00  0.00    +0.000 HD
ATOM     13  H2  UNL     1       6.305   7.328  15.607  0.00  0.00    +0.000 HD
ENDBRANCH  10  11
BRANCH  10  14
ATOM     14  C   UNL     1       7.425   5.091  17.863  0.00  0.00    +0.000 C 
BRANCH  14  15
ATOM     15  O   UNL     1       8.334   3.999  17.714  0.00  0.00    +0.000 OA
ATOM     16  H   UNL     1       8.450   3.850  16.759  0.00  0.00    +0.000 HD
ENDBRANCH  14  15
ENDBRANCH  10  14
ENDBRANCH   1  10
TORSDOF 9
ENDMDL
MODEL 7
REMARK VINA RESULT:      -5.2      3.757      7.019
REMARK  Name = 
REMARK  10 active torsions:
REMARK  status: ('A' for Active; 'I' for Inactive)
REMARK    1  A    between atoms: C_1  and  C_2
REMARK    2  A    between atoms: C_2  and  C_3
REMARK    3  A    between atoms: C_3  and  C_4
REMARK    4  A    between atoms: C_4  and  C_5
REMARK    5  A    between atoms: C_6  and  C_7
REMARK    6  A    between atoms: C_7  and  O_8
REMARK    7  A    between atoms: C_7  and  CA_9
REMARK    8  A    between atoms: CA_9  and  N_10
REMARK    9  A    between atoms: CA_9  and  C_11
REMARK   10  A    between atoms: C_11  and  O_12
REMARK                            x       y       z     vdW  Elec       q    Type
REMARK                         _______ _______ _______ _____ _____    ______ ____
ROOT
ATOM      1  C   UNL     1       5.463   5.140  18.254  0.00  0.00    +0.000 C 
ENDROOT
BRANCH   1   3
ATOM      2  C   UNL     1       3.803   3.073  17.934  0.00  0.00    +0.000 C 
ATOM      3  C   UNL     1       4.578   3.976  18.065  0.00  0.00    +0.000 C 
BRANCH   2   4
ATOM      4  C   UNL     1       2.777   2.027  17.793  0.00  0.00    +0.000 C 
BRANCH   4   5
ATOM      5  C   UNL     1       1.459   2.439  18.464  0.00  0.00    +0.000 C 
BRANCH   5   7
ATOM      6  C   UNL     1       1.051   3.923  20.463  0.00  0.00    +0.000 C 
ATOM      7  C   UNL     1       1.572   2.577  19.986  0.00  0.00    +0.000 C 
ENDBRANCH   5   7
ENDBRANCH   4   5
ENDBRANCH   2   4
ENDBRANCH   1   3
BRANCH   1   8
ATOM      8  O   UNL     1       5.143   5.759  19.500  0.00  0.00    +0.000 OA
ATOM      9  H   UNL     1       4.193   5.608  19.660  0.00  0.00    +0.000 HD
ENDBRANCH   1   8
BRANCH   1  10
ATOM     10  CA  UNL     1       6.970   4.750  18.221  0.00  0.00    +0.000 C 
BRANCH  10  11
ATOM     11  N   UNL     1       7.548   4.598  16.865  0.00  0.00    +0.000 NA
ATOM     12  H1  UNL     1       6.929   4.016  16.296  0.00  0.00    +0.000 HD
ATOM     13  H2  UNL     1       8.427   4.083  16.927  0.00  0.00    +0.000 HD
ENDBRANCH  10  11
BRANCH  10  14
ATOM     14  C   UNL     1       7.791   5.788  19.029  0.00  0.00    +0.000 C 
BRANCH  14  15
ATOM     15  O   UNL     1       7.902   5.435  20.408  0.00  0.00    +0.000 OA
ATOM     16  H   UNL     1       8.147   4.493  20.444  0.00  0.00    +0.000 HD
ENDBRANCH  14  15
ENDBRANCH  10  14
ENDBRANCH   1  10
TORSDOF 9
ENDMDL
MODEL 8
REMARK VINA RESULT:      -5.1      3.632      6.751
REMARK  Name = 
REMARK  10 active torsions:
REMARK  status: ('A' for Active; 'I' for Inactive)
REMARK    1  A    between atoms: C_1  and  C_2
REMARK    2  A    between atoms: C_2  and  C_3
REMARK    3  A    between atoms: C_3  and  C_4
REMARK    4  A    between atoms: C_4  and  C_5
REMARK    5  A    between atoms: C_6  and  C_7
REMARK    6  A    between atoms: C_7  and  O_8
REMARK    7  A    between atoms: C_7  and  CA_9
REMARK    8  A    between atoms: CA_9  and  N_10
REMARK    9  A    between atoms: CA_9  and  C_11
REMARK   10  A    between atoms: C_11  and  O_12
REMARK                            x       y       z     vdW  Elec       q    Type
REMARK                         _______ _______ _______ _____ _____    ______ ____
ROOT
ATOM      1  C   UNL     1       6.134   5.566  18.467  0.00  0.00    +0.000 C 
ENDROOT
BRANCH   1   3
ATOM      2  C   UNL     1       3.989   4.090  17.880  0.00  0.00    +0.000 C 
ATOM      3  C   UNL     1       4.955   4.732  18.178  0.00  0.00    +0.000 C 
BRANCH   2   4
ATOM      4  C   UNL     1       2.802   3.348  17.424  0.00  0.00    +0.000 C 
BRANCH   4   5
ATOM      5  C   UNL     1       1.509   3.954  17.987  0.00  0.00    +0.000 C 
BRANCH   5   7
ATOM      6  C   UNL     1       1.008   3.455  20.408  0.00  0.00    +0.000 C 
ATOM      7  C   UNL     1       1.647   4.434  19.436  0.00  0.00    +0.000 C 
ENDBRANCH   5   7
ENDBRANCH   4   5
ENDBRANCH   2   4
ENDBRANCH   1   3
BRANCH   1   8
ATOM      8  O   UNL     1       6.610   5.246  19.775  0.00  0.00    +0.000 OA
ATOM      9  H   UNL     1       6.313   5.958  20.370  0.00  0.00    +0.000 HD
ENDBRANCH   1   8
BRANCH   1  10
ATOM     10  CA  UNL     1       7.270   5.370  17.420  0.00  0.00    +0.000 C 
BRANCH  10  11
ATOM     11  N   UNL     1       8.077   4.140  17.595  0.00  0.00    +0.000 NA
ATOM     12  H1  UNL     1       7.454   3.344  17.747  0.00  0.00    +0.000 HD
ATOM     13  H2  UNL     1       8.634   4.218  18.448  0.00  0.00    +0.000 HD
ENDBRANCH  10  11
BRANCH  10  14
ATOM     14  C   UNL     1       6.669   5.406  15.992  0.00  0.00    +0.000 C 
BRANCH  14  15
ATOM     15  O   UNL     1       7.677   5.417  14.980  0.00  0.00    +0.000 OA
ATOM     16  H   UNL     1       7.435   6.110  14.342  0.00  0.00    +0.000 HD
ENDBRANCH  14  15
ENDBRANCH  10  14
ENDBRANCH   1  10
TORSDOF 9
ENDMDL
MODEL 9
REMARK VINA RESULT:      -5.1      3.771      7.009
REMARK  Name = 
REMARK  10 active torsions:
REMARK  status: ('A' for Active; 'I' for Inactive)
REMARK    1  A    between atoms: C_1  and  C_2
REMARK    2  A    between atoms: C_2  and  C_3
REMARK    3  A    between atoms: C_3  and  C_4
REMARK    4  A    between atoms: C_4  and  C_5
REMARK    5  A    between atoms: C_6  and  C_7
REMARK    6  A    between atoms: C_7  and  O_8
REMARK    7  A    between atoms: C_7  and  CA_9
REMARK    8  A    between atoms: CA_9  and  N_10
REMARK    9  A    between atoms: CA_9  and  C_11
REMARK   10  A    between atoms: C_11  and  O_12
REMARK                            x       y       z     vdW  Elec       q    Type
REMARK                         _______ _______ _______ _____ _____    ______ ____
ROOT
ATOM      1  C   UNL     1       5.848   5.383  18.915  0.00  0.00    +0.000 C 
ENDROOT
BRANCH   1   3
ATOM      2  C   UNL     1       4.228   3.268  18.731  0.00  0.00    +0.000 C 
ATOM      3  C   UNL     1       4.986   4.191  18.816  0.00  0.00    +0.000 C 
BRANCH   2   4
ATOM      4  C   UNL     1       3.223   2.199  18.610  0.00  0.00    +0.000 C 
BRANCH   4   5
ATOM      5  C   UNL     1       1.799   2.770  18.558  0.00  0.00    +0.000 C 
BRANCH   5   7
ATOM      6  C   UNL     1       1.261   2.860  21.021  0.00  0.00    +0.000 C 
ATOM      7  C   UNL     1       1.465   3.671  19.751  0.00  0.00    +0.000 C 
ENDBRANCH   5   7
ENDBRANCH   4   5
ENDBRANCH   2   4
ENDBRANCH   1   3
BRANCH   1   8
ATOM      8  O   UNL     1       6.870   5.128  19.877  0.00  0.00    +0.000 OA
ATOM      9  H   UNL     1       6.726   5.744  20.619  0.00  0.00    +0.000 HD
ENDBRANCH   1   8
BRANCH   1  10
ATOM     10  CA  UNL     1       6.484   5.769  17.547  0.00  0.00    +0.000 C 
BRANCH  10  11
ATOM     11  N   UNL     1       7.463   6.880  17.603  0.00  0.00    +0.000 NA
ATOM     12  H1  UNL     1       7.991   6.911  16.728  0.00  0.00    +0.000 HD
ATOM     13  H2  UNL     1       8.152   6.687  18.331  0.00  0.00    +0.000 HD
ENDBRANCH  10  11
BRANCH  10  14
ATOM     14  C   UNL     1       7.144   4.519  16.911  0.00  0.00    +0.000 C 
BRANCH  14  15
ATOM     15  O   UNL     1       8.263   4.055  17.667  0.00  0.00    +0.000 OA
ATOM     16  H   UNL     1       9.034   4.581  17.389  0.00  0.00    +0.000 HD
ENDBRANCH  14  15
ENDBRANCH  10  14
ENDBRANCH   1  10
TORSDOF 9
ENDMDL
