MODEL 1
REMARK VINA RESULT:      -9.9      0.000      0.000
REMARK  Name = 
REMARK  3 active torsions:
REMARK  status: ('A' for Active; 'I' for Inactive)
REMARK    1  A    between atoms: C_4  and  C_6
REMARK    2  A    between atoms: N_14  and  C_15
REMARK    3  A    between atoms: C_19  and  C_20
REMARK                            x       y       z     vdW  Elec       q    Type
REMARK                         _______ _______ _______ _____ _____    ______ ____
ROOT
ATOM      1  O   UNL     1       8.323   6.103  19.335  0.00  0.00    +0.000 OA
ATOM      2  C   UNL     1       8.134   7.116  18.668  0.00  0.00    +0.000 C 
ATOM      3  N   UNL     1       8.825   8.259  19.020  0.00  0.00    +0.000 N 
ATOM      4  C   UNL     1       8.719   9.515  18.459  0.00  0.00    +0.000 C 
ATOM      5  O   UNL     1       7.997   9.765  17.494  0.00  0.00    +0.000 OA
ATOM      6  N   UNL     1       7.273   7.261  17.610  0.00  0.00    +0.000 N 
ATOM      7  H   UNL     1       9.370   8.111  19.857  0.00  0.00    +0.000 HD
ATOM      8  H   UNL     1       7.179   8.211  17.257  0.00  0.00    +0.000 HD
ENDROOT
BRANCH   4   9
ATOM      9  C   UNL     1       9.497  10.617  19.079  0.00  0.00    +0.000 A 
ATOM     10  C   UNL     1       9.324  11.029  20.404  0.00  0.00    +0.000 A 
ATOM     11  C   UNL     1      10.111  12.067  20.901  0.00  0.00    +0.000 A 
ATOM     12  F   UNL     1       9.947  12.459  22.170  0.00  0.00    +0.000 F 
ATOM     13  C   UNL     1      11.064  12.700  20.112  0.00  0.00    +0.000 A 
ATOM     14  C   UNL     1      11.232  12.275  18.804  0.00  0.00    +0.000 A 
ATOM     15  F   UNL     1      12.149  12.869  18.030  0.00  0.00    +0.000 F 
ATOM     16  C   UNL     1      10.463  11.244  18.281  0.00  0.00    +0.000 A 
ENDBRANCH   4   9
BRANCH   6  17
ATOM     17  C   UNL     1       6.422   6.291  17.047  0.00  0.00    +0.000 A 
ATOM     18  C   UNL     1       6.825   5.417  16.037  0.00  0.00    +0.000 A 
ATOM     19  C   UNL     1       5.939   4.468  15.541  0.00  0.00    +0.000 A 
ATOM     20  C   UNL     1       4.645   4.380  16.052  0.00  0.00    +0.000 A 
ATOM     21  C   UNL     1       4.206   5.259  17.053  0.00  0.00    +0.000 A 
ATOM     22  C   UNL     1       5.108   6.219  17.539  0.00  0.00    +0.000 A 
BRANCH  21  23
ATOM     23  C   UNL     1       2.800   5.153  17.616  0.00  0.00    +0.000 C 
ATOM     24  C   UNL     1       2.725   5.636  19.103  0.00  0.00    +0.000 C 
ATOM     25  N   UNL     1       1.928   4.588  19.707  0.00  0.00    +0.000 N 
ATOM     26  C   UNL     1       2.084   4.180  21.088  0.00  0.00    +0.000 C 
ATOM     27  C   UNL     1       1.459   2.778  21.211  0.00  0.00    +0.000 C 
ATOM     28  S   UNL     1       1.473   2.043  19.535  0.00  0.00    +0.000 S 
ATOM     29  C   UNL     1       1.907   3.555  18.823  0.00  0.00    +0.000 C 
ATOM     30  N   UNL     1       2.303   3.729  17.604  0.00  0.00    +0.000 NA
ENDBRANCH  21  23
ENDBRANCH   6  17
TORSDOF 3
ENDMDL
MODEL 2
REMARK VINA RESULT:      -9.9      0.194      1.561
REMARK  Name = 
REMARK  3 active torsions:
REMARK  status: ('A' for Active; 'I' for Inactive)
REMARK    1  A    between atoms: C_4  and  C_6
REMARK    2  A    between atoms: N_14  and  C_15
REMARK    3  A    between atoms: C_19  and  C_20
REMARK                            x       y       z     vdW  Elec       q    Type
REMARK                         _______ _______ _______ _____ _____    ______ ____
ROOT
ATOM      1  O   UNL     1       8.323   6.124  19.272  0.00  0.00    +0.000 OA
ATOM      2  C   UNL     1       8.104   7.146  18.627  0.00  0.00    +0.000 C 
ATOM      3  N   UNL     1       8.828   8.278  18.947  0.00  0.00    +0.000 N 
ATOM      4  C   UNL     1       8.701   9.540  18.405  0.00  0.00    +0.000 C 
ATOM      5  O   UNL     1       7.923   9.808  17.489  0.00  0.00    +0.000 OA
ATOM      6  N   UNL     1       7.180   7.310  17.627  0.00  0.00    +0.000 N 
ATOM      7  H   UNL     1       9.423   8.116  19.746  0.00  0.00    +0.000 HD
ATOM      8  H   UNL     1       7.075   8.265  17.289  0.00  0.00    +0.000 HD
ENDROOT
BRANCH   4   9
ATOM      9  C   UNL     1       9.528  10.628  18.984  0.00  0.00    +0.000 A 
ATOM     10  C   UNL     1      10.485  11.339  18.252  0.00  0.00    +0.000 A 
ATOM     11  C   UNL     1      11.205  12.354  18.882  0.00  0.00    +0.000 A 
ATOM     12  F   UNL     1      12.118  13.036  18.181  0.00  0.00    +0.000 F 
ATOM     13  C   UNL     1      10.994  12.676  20.217  0.00  0.00    +0.000 A 
ATOM     14  C   UNL     1      10.036  11.970  20.928  0.00  0.00    +0.000 A 
ATOM     15  F   UNL     1       9.814  12.270  22.214  0.00  0.00    +0.000 F 
ATOM     16  C   UNL     1       9.303  10.955  20.328  0.00  0.00    +0.000 A 
ENDBRANCH   4   9
BRANCH   6  17
ATOM     17  C   UNL     1       6.285   6.355  17.110  0.00  0.00    +0.000 A 
ATOM     18  C   UNL     1       6.624   5.465  16.090  0.00  0.00    +0.000 A 
ATOM     19  C   UNL     1       5.698   4.532  15.640  0.00  0.00    +0.000 A 
ATOM     20  C   UNL     1       4.427   4.475  16.209  0.00  0.00    +0.000 A 
ATOM     21  C   UNL     1       4.050   5.370  17.221  0.00  0.00    +0.000 A 
ATOM     22  C   UNL     1       4.993   6.314  17.660  0.00  0.00    +0.000 A 
BRANCH  21  23
ATOM     23  C   UNL     1       2.668   5.298  17.847  0.00  0.00    +0.000 C 
ATOM     24  C   UNL     1       2.690   5.680  19.364  0.00  0.00    +0.000 C 
ATOM     25  N   UNL     1       1.867   4.634  19.936  0.00  0.00    +0.000 N 
ATOM     26  C   UNL     1       2.064   4.124  21.277  0.00  0.00    +0.000 C 
ATOM     27  C   UNL     1       1.370   2.751  21.338  0.00  0.00    +0.000 C 
ATOM     28  S   UNL     1       1.265   2.134  19.618  0.00  0.00    +0.000 S 
ATOM     29  C   UNL     1       1.748   3.667  18.988  0.00  0.00    +0.000 C 
ATOM     30  N   UNL     1       2.094   3.906  17.764  0.00  0.00    +0.000 NA
ENDBRANCH  21  23
ENDBRANCH   6  17
TORSDOF 3
ENDMDL
MODEL 3
REMARK VINA RESULT:      -9.2      1.246      1.463
REMARK  Name = 
REMARK  3 active torsions:
REMARK  status: ('A' for Active; 'I' for Inactive)
REMARK    1  A    between atoms: C_4  and  C_6
REMARK    2  A    between atoms: N_14  and  C_15
REMARK    3  A    between atoms: C_19  and  C_20
REMARK                            x       y       z     vdW  Elec       q    Type
REMARK                         _______ _______ _______ _____ _____    ______ ____
ROOT
ATOM      1  O   UNL     1       8.253   5.887  19.317  0.00  0.00    +0.000 OA
ATOM      2  C   UNL     1       8.059   6.883  18.625  0.00  0.00    +0.000 C 
ATOM      3  N   UNL     1       8.702   8.052  18.983  0.00  0.00    +0.000 N 
ATOM      4  C   UNL     1       8.580   9.295  18.396  0.00  0.00    +0.000 C 
ATOM      5  O   UNL     1       7.887   9.507  17.401  0.00  0.00    +0.000 OA
ATOM      6  N   UNL     1       7.233   6.984  17.535  0.00  0.00    +0.000 N 
ATOM      7  H   UNL     1       9.221   7.935  19.841  0.00  0.00    +0.000 HD
ATOM      8  H   UNL     1       7.124   7.925  17.162  0.00  0.00    +0.000 HD
ENDROOT
BRANCH   4   9
ATOM      9  C   UNL     1       9.302  10.430  19.024  0.00  0.00    +0.000 A 
ATOM     10  C   UNL     1       9.210  10.740  20.384  0.00  0.00    +0.000 A 
ATOM     11  C   UNL     1       9.936  11.820  20.885  0.00  0.00    +0.000 A 
ATOM     12  F   UNL     1       9.851  12.115  22.188  0.00  0.00    +0.000 F 
ATOM     13  C   UNL     1      10.749  12.593  20.065  0.00  0.00    +0.000 A 
ATOM     14  C   UNL     1      10.839  12.269  18.721  0.00  0.00    +0.000 A 
ATOM     15  F   UNL     1      11.622  12.998  17.916  0.00  0.00    +0.000 F 
ATOM     16  C   UNL     1      10.129  11.199  18.194  0.00  0.00    +0.000 A 
ENDBRANCH   4   9
BRANCH   6  17
ATOM     17  C   UNL     1       6.433   5.980  16.959  0.00  0.00    +0.000 A 
ATOM     18  C   UNL     1       6.178   5.899  15.590  0.00  0.00    +0.000 A 
ATOM     19  C   UNL     1       5.395   4.867  15.085  0.00  0.00    +0.000 A 
ATOM     20  C   UNL     1       4.865   3.905  15.942  0.00  0.00    +0.000 A 
ATOM     21  C   UNL     1       5.087   3.972  17.325  0.00  0.00    +0.000 A 
ATOM     22  C   UNL     1       5.872   5.025  17.823  0.00  0.00    +0.000 A 
BRANCH  21  23
ATOM     23  C   UNL     1       4.517   2.915  18.255  0.00  0.00    +0.000 C 
ATOM     24  C   UNL     1       3.095   2.441  17.804  0.00  0.00    +0.000 C 
ATOM     25  N   UNL     1       2.377   2.449  19.062  0.00  0.00    +0.000 N 
ATOM     26  C   UNL     1       0.959   2.725  19.155  0.00  0.00    +0.000 C 
ATOM     27  C   UNL     1       0.678   3.124  20.615  0.00  0.00    +0.000 C 
ATOM     28  S   UNL     1       2.259   3.724  21.314  0.00  0.00    +0.000 S 
ATOM     29  C   UNL     1       3.138   3.153  19.942  0.00  0.00    +0.000 C 
ATOM     30  N   UNL     1       4.369   3.436  19.662  0.00  0.00    +0.000 NA
ENDBRANCH  21  23
ENDBRANCH   6  17
TORSDOF 3
ENDMDL
MODEL 4
REMARK VINA RESULT:      -8.9      1.261      2.129
REMARK  Name = 
REMARK  3 active torsions:
REMARK  status: ('A' for Active; 'I' for Inactive)
REMARK    1  A    between atoms: C_4  and  C_6
REMARK    2  A    between atoms: N_14  and  C_15
REMARK    3  A    between atoms: C_19  and  C_20
REMARK                            x       y       z     vdW  Elec       q    Type
REMARK                         _______ _______ _______ _____ _____    ______ ____
ROOT
ATOM      1  O   UNL     1       8.188   5.965  19.285  0.00  0.00    +0.000 OA
ATOM      2  C   UNL     1       8.019   6.937  18.553  0.00  0.00    +0.000 C 
ATOM      3  N   UNL     1       8.662   8.113  18.884  0.00  0.00    +0.000 N 
ATOM      4  C   UNL     1       8.565   9.334  18.249  0.00  0.00    +0.000 C 
ATOM      5  O   UNL     1       7.900   9.514  17.229  0.00  0.00    +0.000 OA
ATOM      6  N   UNL     1       7.223   7.003  17.438  0.00  0.00    +0.000 N 
ATOM      7  H   UNL     1       9.157   8.024  19.759  0.00  0.00    +0.000 HD
ATOM      8  H   UNL     1       7.131   7.930  17.028  0.00  0.00    +0.000 HD
ENDROOT
BRANCH   4   9
ATOM      9  C   UNL     1       9.279  10.487  18.853  0.00  0.00    +0.000 A 
ATOM     10  C   UNL     1      10.052  11.386  18.111  0.00  0.00    +0.000 A 
ATOM     11  C   UNL     1      10.675  12.447  18.767  0.00  0.00    +0.000 A 
ATOM     12  F   UNL     1      11.413  13.309  18.057  0.00  0.00    +0.000 F 
ATOM     13  C   UNL     1      10.546  12.632  20.138  0.00  0.00    +0.000 A 
ATOM     14  C   UNL     1       9.769  11.740  20.859  0.00  0.00    +0.000 A 
ATOM     15  F   UNL     1       9.627  11.906  22.180  0.00  0.00    +0.000 F 
ATOM     16  C   UNL     1       9.135  10.675  20.234  0.00  0.00    +0.000 A 
ENDBRANCH   4   9
BRANCH   6  17
ATOM     17  C   UNL     1       6.430   5.983  16.879  0.00  0.00    +0.000 A 
ATOM     18  C   UNL     1       6.179   5.876  15.510  0.00  0.00    +0.000 A 
ATOM     19  C   UNL     1       5.403   4.831  15.023  0.00  0.00    +0.000 A 
ATOM     20  C   UNL     1       4.878   3.880  15.896  0.00  0.00    +0.000 A 
ATOM     21  C   UNL     1       5.097   3.973  17.278  0.00  0.00    +0.000 A 
ATOM     22  C   UNL     1       5.874   5.040  17.758  0.00  0.00    +0.000 A 
BRANCH  21  23
ATOM     23  C   UNL     1       4.532   2.929  18.225  0.00  0.00    +0.000 C 
ATOM     24  C   UNL     1       3.104   2.456  17.793  0.00  0.00    +0.000 C 
ATOM     25  N   UNL     1       2.398   2.480  19.057  0.00  0.00    +0.000 N 
ATOM     26  C   UNL     1       0.981   2.763  19.161  0.00  0.00    +0.000 C 
ATOM     27  C   UNL     1       0.716   3.179  20.619  0.00  0.00    +0.000 C 
ATOM     28  S   UNL     1       2.306   3.782  21.296  0.00  0.00    +0.000 S 
ATOM     29  C   UNL     1       3.169   3.191  19.922  0.00  0.00    +0.000 C 
ATOM     30  N   UNL     1       4.398   3.467  19.627  0.00  0.00    +0.000 NA
ENDBRANCH  21  23
ENDBRANCH   6  17
TORSDOF 3
ENDMDL
MODEL 5
REMARK VINA RESULT:      -8.7      7.397      9.418
REMARK  Name = 
REMARK  3 active torsions:
REMARK  status: ('A' for Active; 'I' for Inactive)
REMARK    1  A    between atoms: C_4  and  C_6
REMARK    2  A    between atoms: N_14  and  C_15
REMARK    3  A    between atoms: C_19  and  C_20
REMARK                            x       y       z     vdW  Elec       q    Type
REMARK                         _______ _______ _______ _____ _____    ______ ____
ROOT
ATOM      1  O   UNL     1      -1.336  10.740  18.897  0.00  0.00    +0.000 OA
ATOM      2  C   UNL     1      -0.849  10.720  20.024  0.00  0.00    +0.000 C 
ATOM      3  N   UNL     1      -1.456  11.481  21.003  0.00  0.00    +0.000 N 
ATOM      4  C   UNL     1      -1.045  11.659  22.308  0.00  0.00    +0.000 C 
ATOM      5  O   UNL     1      -0.068  11.089  22.793  0.00  0.00    +0.000 OA
ATOM      6  N   UNL     1       0.273  10.041  20.428  0.00  0.00    +0.000 N 
ATOM      7  H   UNL     1      -2.218  12.023  20.623  0.00  0.00    +0.000 HD
ATOM      8  H   UNL     1       0.578  10.239  21.378  0.00  0.00    +0.000 HD
ENDROOT
BRANCH   4   9
ATOM      9  C   UNL     1      -1.811  12.612  23.151  0.00  0.00    +0.000 A 
ATOM     10  C   UNL     1      -1.303  13.845  23.572  0.00  0.00    +0.000 A 
ATOM     11  C   UNL     1      -2.104  14.678  24.352  0.00  0.00    +0.000 A 
ATOM     12  F   UNL     1      -1.619  15.860  24.752  0.00  0.00    +0.000 F 
ATOM     13  C   UNL     1      -3.394  14.314  24.719  0.00  0.00    +0.000 A 
ATOM     14  C   UNL     1      -3.889  13.094  24.286  0.00  0.00    +0.000 A 
ATOM     15  F   UNL     1      -5.131  12.728  24.625  0.00  0.00    +0.000 F 
ATOM     16  C   UNL     1      -3.115  12.243  23.508  0.00  0.00    +0.000 A 
ENDBRANCH   4   9
BRANCH   6  17
ATOM     17  C   UNL     1       1.110   9.216  19.654  0.00  0.00    +0.000 A 
ATOM     18  C   UNL     1       1.565   9.567  18.383  0.00  0.00    +0.000 A 
ATOM     19  C   UNL     1       2.408   8.713  17.682  0.00  0.00    +0.000 A 
ATOM     20  C   UNL     1       2.809   7.503  18.247  0.00  0.00    +0.000 A 
ATOM     21  C   UNL     1       2.351   7.114  19.514  0.00  0.00    +0.000 A 
ATOM     22  C   UNL     1       1.492   7.982  20.208  0.00  0.00    +0.000 A 
BRANCH  21  23
ATOM     23  C   UNL     1       2.799   5.801  20.132  0.00  0.00    +0.000 C 
ATOM     24  C   UNL     1       4.066   5.220  19.421  0.00  0.00    +0.000 C 
ATOM     25  N   UNL     1       3.699   3.827  19.269  0.00  0.00    +0.000 N 
ATOM     26  C   UNL     1       4.160   3.007  18.168  0.00  0.00    +0.000 C 
ATOM     27  C   UNL     1       3.204   1.804  18.078  0.00  0.00    +0.000 C 
ATOM     28  S   UNL     1       1.634   2.314  18.867  0.00  0.00    +0.000 S 
ATOM     29  C   UNL     1       2.360   3.749  19.494  0.00  0.00    +0.000 C 
ATOM     30  N   UNL     1       1.728   4.745  20.027  0.00  0.00    +0.000 NA
ENDBRANCH  21  23
ENDBRANCH   6  17
TORSDOF 3
ENDMDL
MODEL 6
REMARK VINA RESULT:      -8.7      6.207      8.500
REMARK  Name = 
REMARK  3 active torsions:
REMARK  status: ('A' for Active; 'I' for Inactive)
REMARK    1  A    between atoms: C_4  and  C_6
REMARK    2  A    between atoms: N_14  and  C_15
REMARK    3  A    between atoms: C_19  and  C_20
REMARK                            x       y       z     vdW  Elec       q    Type
REMARK                         _______ _______ _______ _____ _____    ______ ____
ROOT
ATOM      1  O   UNL     1       1.946   5.780  20.756  0.00  0.00    +0.000 OA
ATOM      2  C   UNL     1       2.399   6.472  19.848  0.00  0.00    +0.000 C 
ATOM      3  N   UNL     1       3.310   5.891  18.988  0.00  0.00    +0.000 N 
ATOM      4  C   UNL     1       3.990   6.493  17.949  0.00  0.00    +0.000 C 
ATOM      5  O   UNL     1       3.817   7.666  17.618  0.00  0.00    +0.000 OA
ATOM      6  N   UNL     1       2.127   7.793  19.602  0.00  0.00    +0.000 N 
ATOM      7  H   UNL     1       3.534   4.950  19.275  0.00  0.00    +0.000 HD
ATOM      8  H   UNL     1       2.687   8.219  18.866  0.00  0.00    +0.000 HD
ENDROOT
BRANCH   4   9
ATOM      9  C   UNL     1       5.000   5.683  17.223  0.00  0.00    +0.000 A 
ATOM     10  C   UNL     1       4.843   5.271  15.895  0.00  0.00    +0.000 A 
ATOM     11  C   UNL     1       5.854   4.522  15.293  0.00  0.00    +0.000 A 
ATOM     12  F   UNL     1       5.706   4.130  14.022  0.00  0.00    +0.000 F 
ATOM     13  C   UNL     1       7.012   4.178  15.979  0.00  0.00    +0.000 A 
ATOM     14  C   UNL     1       7.159   4.601  17.291  0.00  0.00    +0.000 A 
ATOM     15  F   UNL     1       8.271   4.285  17.966  0.00  0.00    +0.000 F 
ATOM     16  C   UNL     1       6.170   5.349  17.916  0.00  0.00    +0.000 A 
ENDBRANCH   4   9
BRANCH   6  17
ATOM     17  C   UNL     1       1.272   8.649  20.320  0.00  0.00    +0.000 A 
ATOM     18  C   UNL     1       1.065   8.544  21.696  0.00  0.00    +0.000 A 
ATOM     19  C   UNL     1       0.221   9.437  22.345  0.00  0.00    +0.000 A 
ATOM     20  C   UNL     1      -0.418  10.447  21.628  0.00  0.00    +0.000 A 
ATOM     21  C   UNL     1      -0.246  10.565  20.242  0.00  0.00    +0.000 A 
ATOM     22  C   UNL     1       0.602   9.650  19.596  0.00  0.00    +0.000 A 
BRANCH  21  23
ATOM     23  C   UNL     1      -0.935  11.673  19.465  0.00  0.00    +0.000 C 
ATOM     24  C   UNL     1      -2.387  11.938  19.985  0.00  0.00    +0.000 C 
ATOM     25  N   UNL     1      -3.126  12.026  18.742  0.00  0.00    +0.000 N 
ATOM     26  C   UNL     1      -4.513  11.623  18.622  0.00  0.00    +0.000 C 
ATOM     27  C   UNL     1      -4.782  11.395  17.124  0.00  0.00    +0.000 C 
ATOM     28  S   UNL     1      -3.164  11.053  16.340  0.00  0.00    +0.000 S 
ATOM     29  C   UNL     1      -2.318  11.524  17.771  0.00  0.00    +0.000 C 
ATOM     30  N   UNL     1      -1.060  11.331  18.002  0.00  0.00    +0.000 NA
ENDBRANCH  21  23
ENDBRANCH   6  17
TORSDOF 3
ENDMDL
MODEL 7
REMARK VINA RESULT:      -8.6      6.370      8.540
REMARK  Name = 
REMARK  3 active torsions:
REMARK  status: ('A' for Active; 'I' for Inactive)
REMARK    1  A    between atoms: C_4  and  C_6
REMARK    2  A    between atoms: N_14  and  C_15
REMARK    3  A    between atoms: C_19  and  C_20
REMARK                            x       y       z     vdW  Elec       q    Type
REMARK                         _______ _______ _______ _____ _____    ______ ____
ROOT
ATOM      1  O   UNL     1       1.880   5.715  20.721  0.00  0.00    +0.000 OA
ATOM      2  C   UNL     1       2.377   6.445  19.867  0.00  0.00    +0.000 C 
ATOM      3  N   UNL     1       3.318   5.897  19.018  0.00  0.00    +0.000 N 
ATOM      4  C   UNL     1       4.047   6.541  18.039  0.00  0.00    +0.000 C 
ATOM      5  O   UNL     1       3.898   7.730  17.758  0.00  0.00    +0.000 OA
ATOM      6  N   UNL     1       2.127   7.780  19.674  0.00  0.00    +0.000 N 
ATOM      7  H   UNL     1       3.522   4.941  19.269  0.00  0.00    +0.000 HD
ATOM      8  H   UNL     1       2.721   8.234  18.983  0.00  0.00    +0.000 HD
ENDROOT
BRANCH   4   9
ATOM      9  C   UNL     1       5.079   5.756  17.317  0.00  0.00    +0.000 A 
ATOM     10  C   UNL     1       6.260   5.306  17.916  0.00  0.00    +0.000 A 
ATOM     11  C   UNL     1       7.166   4.564  17.158  0.00  0.00    +0.000 A 
ATOM     12  F   UNL     1       8.295   4.130  17.732  0.00  0.00    +0.000 F 
ATOM     13  C   UNL     1       6.922   4.261  15.824  0.00  0.00    +0.000 A 
ATOM     14  C   UNL     1       5.744   4.705  15.246  0.00  0.00    +0.000 A 
ATOM     15  F   UNL     1       5.489   4.417  13.963  0.00  0.00    +0.000 F 
ATOM     16  C   UNL     1       4.823   5.444  15.975  0.00  0.00    +0.000 A 
ENDBRANCH   4   9
BRANCH   6  17
ATOM     17  C   UNL     1       1.249   8.609  20.396  0.00  0.00    +0.000 A 
ATOM     18  C   UNL     1       1.030   8.479  21.768  0.00  0.00    +0.000 A 
ATOM     19  C   UNL     1       0.164   9.347  22.423  0.00  0.00    +0.000 A 
ATOM     20  C   UNL     1      -0.485  10.356  21.715  0.00  0.00    +0.000 A 
ATOM     21  C   UNL     1      -0.301  10.499  20.332  0.00  0.00    +0.000 A 
ATOM     22  C   UNL     1       0.569   9.609  19.681  0.00  0.00    +0.000 A 
BRANCH  21  23
ATOM     23  C   UNL     1      -1.001  11.607  19.566  0.00  0.00    +0.000 C 
ATOM     24  C   UNL     1      -1.971  12.430  20.479  0.00  0.00    +0.000 C 
ATOM     25  N   UNL     1      -3.148  12.523  19.639  0.00  0.00    +0.000 N 
ATOM     26  C   UNL     1      -4.492  12.586  20.174  0.00  0.00    +0.000 C 
ATOM     27  C   UNL     1      -5.444  12.185  19.033  0.00  0.00    +0.000 C 
ATOM     28  S   UNL     1      -4.465  11.188  17.852  0.00  0.00    +0.000 S 
ATOM     29  C   UNL     1      -2.990  11.610  18.643  0.00  0.00    +0.000 C 
ATOM     30  N   UNL     1      -1.838  11.059  18.438  0.00  0.00    +0.000 NA
ENDBRANCH  21  23
ENDBRANCH   6  17
TORSDOF 3
ENDMDL
MODEL 8
REMARK VINA RESULT:      -8.6      7.333      9.328
REMARK  Name = 
REMARK  3 active torsions:
REMARK  status: ('A' for Active; 'I' for Inactive)
REMARK    1  A    between atoms: C_4  and  C_6
REMARK    2  A    between atoms: N_14  and  C_15
REMARK    3  A    between atoms: C_19  and  C_20
REMARK                            x       y       z     vdW  Elec       q    Type
REMARK                         _______ _______ _______ _____ _____    ______ ____
ROOT
ATOM      1  O   UNL     1      -0.756   8.269  21.948  0.00  0.00    +0.000 OA
ATOM      2  C   UNL     1      -0.428   9.430  21.720  0.00  0.00    +0.000 C 
ATOM      3  N   UNL     1      -1.028  10.428  22.463  0.00  0.00    +0.000 N 
ATOM      4  C   UNL     1      -0.862  11.791  22.333  0.00  0.00    +0.000 C 
ATOM      5  O   UNL     1      -0.079  12.304  21.533  0.00  0.00    +0.000 OA
ATOM      6  N   UNL     1       0.461   9.867  20.771  0.00  0.00    +0.000 N 
ATOM      7  H   UNL     1      -1.733  10.050  23.078  0.00  0.00    +0.000 HD
ATOM      8  H   UNL     1       0.517  10.878  20.666  0.00  0.00    +0.000 HD
ENDROOT
BRANCH   4   9
ATOM      9  C   UNL     1      -1.698  12.674  23.185  0.00  0.00    +0.000 A 
ATOM     10  C   UNL     1      -1.306  13.959  23.576  0.00  0.00    +0.000 A 
ATOM     11  C   UNL     1      -2.166  14.719  24.369  0.00  0.00    +0.000 A 
ATOM     12  F   UNL     1      -1.793  15.950  24.740  0.00  0.00    +0.000 F 
ATOM     13  C   UNL     1      -3.401  14.231  24.778  0.00  0.00    +0.000 A 
ATOM     14  C   UNL     1      -3.781  12.960  24.375  0.00  0.00    +0.000 A 
ATOM     15  F   UNL     1      -4.970  12.476  24.754  0.00  0.00    +0.000 F 
ATOM     16  C   UNL     1      -2.946  12.181  23.585  0.00  0.00    +0.000 A 
ENDBRANCH   4   9
BRANCH   6  17
ATOM     17  C   UNL     1       1.198   9.094  19.855  0.00  0.00    +0.000 A 
ATOM     18  C   UNL     1       1.403   9.474  18.528  0.00  0.00    +0.000 A 
ATOM     19  C   UNL     1       2.160   8.673  17.681  0.00  0.00    +0.000 A 
ATOM     20  C   UNL     1       2.723   7.489  18.153  0.00  0.00    +0.000 A 
ATOM     21  C   UNL     1       2.516   7.071  19.476  0.00  0.00    +0.000 A 
ATOM     22  C   UNL     1       1.742   7.885  20.318  0.00  0.00    +0.000 A 
BRANCH  21  23
ATOM     23  C   UNL     1       3.141   5.786  19.990  0.00  0.00    +0.000 C 
ATOM     24  C   UNL     1       4.194   5.203  18.990  0.00  0.00    +0.000 C 
ATOM     25  N   UNL     1       3.833   3.800  18.976  0.00  0.00    +0.000 N 
ATOM     26  C   UNL     1       4.012   2.953  17.815  0.00  0.00    +0.000 C 
ATOM     27  C   UNL     1       3.095   1.732  18.009  0.00  0.00    +0.000 C 
ATOM     28  S   UNL     1       1.772   2.241  19.165  0.00  0.00    +0.000 S 
ATOM     29  C   UNL     1       2.601   3.708  19.544  0.00  0.00    +0.000 C 
ATOM     30  N   UNL     1       2.105   4.709  20.196  0.00  0.00    +0.000 NA
ENDBRANCH  21  23
ENDBRANCH   6  17
TORSDOF 3
ENDMDL
MODEL 9
REMARK VINA RESULT:      -8.6      7.350      9.288
REMARK  Name = 
REMARK  3 active torsions:
REMARK  status: ('A' for Active; 'I' for Inactive)
REMARK    1  A    between atoms: C_4  and  C_6
REMARK    2  A    between atoms: N_14  and  C_15
REMARK    3  A    between atoms: C_19  and  C_20
REMARK                            x       y       z     vdW  Elec       q    Type
REMARK                         _______ _______ _______ _____ _____    ______ ____
ROOT
ATOM      1  O   UNL     1      -1.250  10.807  18.803  0.00  0.00    +0.000 OA
ATOM      2  C   UNL     1      -0.801  10.749  19.945  0.00  0.00    +0.000 C 
ATOM      3  N   UNL     1      -1.425  11.500  20.922  0.00  0.00    +0.000 N 
ATOM      4  C   UNL     1      -1.056  11.637  22.244  0.00  0.00    +0.000 C 
ATOM      5  O   UNL     1      -0.108  11.034  22.747  0.00  0.00    +0.000 OA
ATOM      6  N   UNL     1       0.291  10.036  20.369  0.00  0.00    +0.000 N 
ATOM      7  H   UNL     1      -2.162  12.068  20.530  0.00  0.00    +0.000 HD
ATOM      8  H   UNL     1       0.568  10.204  21.334  0.00  0.00    +0.000 HD
ENDROOT
BRANCH   4   9
ATOM      9  C   UNL     1      -1.829  12.585  23.084  0.00  0.00    +0.000 A 
ATOM     10  C   UNL     1      -3.142  12.345  23.503  0.00  0.00    +0.000 A 
ATOM     11  C   UNL     1      -3.784  13.292  24.301  0.00  0.00    +0.000 A 
ATOM     12  F   UNL     1      -5.039  13.061  24.705  0.00  0.00    +0.000 F 
ATOM     13  C   UNL     1      -3.150  14.465  24.691  0.00  0.00    +0.000 A 
ATOM     14  C   UNL     1      -1.846  14.686  24.278  0.00  0.00    +0.000 A 
ATOM     15  F   UNL     1      -1.216  15.808  24.648  0.00  0.00    +0.000 F 
ATOM     16  C   UNL     1      -1.181  13.762  23.483  0.00  0.00    +0.000 A 
ENDBRANCH   4   9
BRANCH   6  17
ATOM     17  C   UNL     1       1.137   9.211  19.604  0.00  0.00    +0.000 A 
ATOM     18  C   UNL     1       1.603   9.563  18.337  0.00  0.00    +0.000 A 
ATOM     19  C   UNL     1       2.454   8.709  17.644  0.00  0.00    +0.000 A 
ATOM     20  C   UNL     1       2.850   7.500  18.213  0.00  0.00    +0.000 A 
ATOM     21  C   UNL     1       2.382   7.111  19.476  0.00  0.00    +0.000 A 
ATOM     22  C   UNL     1       1.515   7.979  20.161  0.00  0.00    +0.000 A 
BRANCH  21  23
ATOM     23  C   UNL     1       2.825   5.799  20.098  0.00  0.00    +0.000 C 
ATOM     24  C   UNL     1       4.061   5.186  19.359  0.00  0.00    +0.000 C 
ATOM     25  N   UNL     1       3.666   3.798  19.237  0.00  0.00    +0.000 N 
ATOM     26  C   UNL     1       4.081   2.957  18.134  0.00  0.00    +0.000 C 
ATOM     27  C   UNL     1       3.103   1.769  18.087  0.00  0.00    +0.000 C 
ATOM     28  S   UNL     1       1.565   2.316  18.914  0.00  0.00    +0.000 S 
ATOM     29  C   UNL     1       2.333   3.747  19.501  0.00  0.00    +0.000 C 
ATOM     30  N   UNL     1       1.734   4.760  20.038  0.00  0.00    +0.000 NA
ENDBRANCH  21  23
ENDBRANCH   6  17
TORSDOF 3
ENDMDL
