MODEL 1
REMARK VINA RESULT:      -8.0      0.000      0.000
REMARK  Name = 
REMARK  6 active torsions:
REMARK  status: ('A' for Active; 'I' for Inactive)
REMARK    1  A    between atoms: C_1  and  N_2
REMARK    2  A    between atoms: C_7  and  S_8
REMARK    3  A    between atoms: S_8  and  C_9
REMARK    4  A    between atoms: C_9  and  C_10
REMARK    5  A    between atoms: C_10  and  C_12
REMARK    6  A    between atoms: N_21  and  C_22
REMARK                            x       y       z     vdW  Elec       q    Type
REMARK                         _______ _______ _______ _____ _____    ______ ____
ROOT
ATOM      1  C   UNL     1       8.176   7.009  18.234  0.00  0.00    +0.000 C 
ATOM      2  N   UNL     1       7.210   5.964  17.954  0.00  0.00    +0.000 N 
ATOM      3  C   UNL     1       6.640   5.282  19.047  0.00  0.00    +0.000 A 
ATOM      4  O   UNL     1       6.910   5.516  20.222  0.00  0.00    +0.000 OA
ATOM      5  C   UNL     1       5.690   4.258  18.652  0.00  0.00    +0.000 A 
ATOM      6  N   UNL     1       4.946   3.396  19.440  0.00  0.00    +0.000 NA
ATOM      7  C   UNL     1       4.256   2.686  18.577  0.00  0.00    +0.000 A 
ATOM      8  N   UNL     1       4.517   3.044  17.281  0.00  0.00    +0.000 N 
ATOM      9  C   UNL     1       5.435   4.049  17.322  0.00  0.00    +0.000 A 
ATOM     10  N   UNL     1       6.008   4.733  16.273  0.00  0.00    +0.000 N 
ATOM     11  C   UNL     1       5.725   4.498  14.869  0.00  0.00    +0.000 C 
ATOM     12  C   UNL     1       6.938   5.737  16.589  0.00  0.00    +0.000 A 
ATOM     13  O   UNL     1       7.490   6.393  15.702  0.00  0.00    +0.000 OA
ATOM     14  H   UNL     1       4.089   2.619  16.472  0.00  0.00    +0.000 HD
ENDROOT
BRANCH   7  15
ATOM     15  S   UNL     1       3.122   1.423  18.861  0.00  0.00    +0.000 S 
BRANCH  15  16
ATOM     16  C   UNL     1       1.529   2.293  18.784  0.00  0.00    +0.000 C 
BRANCH  16  17
ATOM     17  C   UNL     1       1.428   3.360  19.873  0.00  0.00    +0.000 C 
ATOM     18  O   UNL     1       1.116   3.124  21.040  0.00  0.00    +0.000 OA
BRANCH  17  19
ATOM     19  C   UNL     1       1.722   4.785  19.504  0.00  0.00    +0.000 A 
ATOM     20  C   UNL     1       1.941   5.185  18.179  0.00  0.00    +0.000 A 
ATOM     21  C   UNL     1       2.220   6.525  17.886  0.00  0.00    +0.000 A 
ATOM     22  C   UNL     1       2.278   7.461  18.912  0.00  0.00    +0.000 A 
ATOM     23  F   UNL     1       2.549   8.740  18.624  0.00  0.00    +0.000 F 
ATOM     24  C   UNL     1       2.059   7.087  20.230  0.00  0.00    +0.000 A 
ATOM     25  C   UNL     1       1.779   5.750  20.528  0.00  0.00    +0.000 A 
ENDBRANCH  17  19
ENDBRANCH  16  17
ENDBRANCH  15  16
ENDBRANCH   7  15
TORSDOF 4
ENDMDL
MODEL 2
REMARK VINA RESULT:      -7.8      1.061      1.439
REMARK  Name = 
REMARK  6 active torsions:
REMARK  status: ('A' for Active; 'I' for Inactive)
REMARK    1  A    between atoms: C_1  and  N_2
REMARK    2  A    between atoms: C_7  and  S_8
REMARK    3  A    between atoms: S_8  and  C_9
REMARK    4  A    between atoms: C_9  and  C_10
REMARK    5  A    between atoms: C_10  and  C_12
REMARK    6  A    between atoms: N_21  and  C_22
REMARK                            x       y       z     vdW  Elec       q    Type
REMARK                         _______ _______ _______ _____ _____    ______ ____
ROOT
ATOM      1  C   UNL     1       8.151   7.048  18.131  0.00  0.00    +0.000 C 
ATOM      2  N   UNL     1       7.228   5.958  17.884  0.00  0.00    +0.000 N 
ATOM      3  C   UNL     1       6.659   5.308  18.998  0.00  0.00    +0.000 A 
ATOM      4  O   UNL     1       6.897   5.607  20.165  0.00  0.00    +0.000 OA
ATOM      5  C   UNL     1       5.752   4.235  18.634  0.00  0.00    +0.000 A 
ATOM      6  N   UNL     1       5.022   3.386  19.448  0.00  0.00    +0.000 NA
ATOM      7  C   UNL     1       4.374   2.612  18.608  0.00  0.00    +0.000 A 
ATOM      8  N   UNL     1       4.648   2.917  17.302  0.00  0.00    +0.000 N 
ATOM      9  C   UNL     1       5.531   3.954  17.312  0.00  0.00    +0.000 A 
ATOM     10  N   UNL     1       6.101   4.607  16.242  0.00  0.00    +0.000 N 
ATOM     11  C   UNL     1       5.855   4.297  14.846  0.00  0.00    +0.000 C 
ATOM     12  C   UNL     1       6.990   5.657  16.527  0.00  0.00    +0.000 A 
ATOM     13  O   UNL     1       7.538   6.289  15.619  0.00  0.00    +0.000 OA
ATOM     14  H   UNL     1       4.251   2.440  16.506  0.00  0.00    +0.000 HD
ENDROOT
BRANCH   7  15
ATOM     15  S   UNL     1       3.277   1.325  18.932  0.00  0.00    +0.000 S 
BRANCH  15  16
ATOM     16  C   UNL     1       1.673   2.175  18.994  0.00  0.00    +0.000 C 
BRANCH  16  17
ATOM     17  C   UNL     1       1.700   3.470  18.182  0.00  0.00    +0.000 C 
ATOM     18  O   UNL     1       1.655   3.511  16.953  0.00  0.00    +0.000 OA
BRANCH  17  19
ATOM     19  C   UNL     1       1.793   4.773  18.920  0.00  0.00    +0.000 A 
ATOM     20  C   UNL     1       1.379   4.909  20.252  0.00  0.00    +0.000 A 
ATOM     21  C   UNL     1       1.477   6.148  20.896  0.00  0.00    +0.000 A 
ATOM     22  C   UNL     1       1.988   7.245  20.212  0.00  0.00    +0.000 A 
ATOM     23  F   UNL     1       2.074   8.428  20.834  0.00  0.00    +0.000 F 
ATOM     24  C   UNL     1       2.408   7.130  18.895  0.00  0.00    +0.000 A 
ATOM     25  C   UNL     1       2.313   5.895  18.248  0.00  0.00    +0.000 A 
ENDBRANCH  17  19
ENDBRANCH  16  17
ENDBRANCH  15  16
ENDBRANCH   7  15
TORSDOF 4
ENDMDL
MODEL 3
REMARK VINA RESULT:      -7.5      1.099      1.209
REMARK  Name = 
REMARK  6 active torsions:
REMARK  status: ('A' for Active; 'I' for Inactive)
REMARK    1  A    between atoms: C_1  and  N_2
REMARK    2  A    between atoms: C_7  and  S_8
REMARK    3  A    between atoms: S_8  and  C_9
REMARK    4  A    between atoms: C_9  and  C_10
REMARK    5  A    between atoms: C_10  and  C_12
REMARK    6  A    between atoms: N_21  and  C_22
REMARK                            x       y       z     vdW  Elec       q    Type
REMARK                         _______ _______ _______ _____ _____    ______ ____
ROOT
ATOM      1  C   UNL     1       7.997   7.156  17.659  0.00  0.00    +0.000 C 
ATOM      2  N   UNL     1       7.130   6.000  17.530  0.00  0.00    +0.000 N 
ATOM      3  C   UNL     1       6.558   5.470  18.703  0.00  0.00    +0.000 A 
ATOM      4  O   UNL     1       6.747   5.925  19.828  0.00  0.00    +0.000 OA
ATOM      5  C   UNL     1       5.711   4.318  18.457  0.00  0.00    +0.000 A 
ATOM      6  N   UNL     1       4.994   3.543  19.354  0.00  0.00    +0.000 NA
ATOM      7  C   UNL     1       4.406   2.641  18.603  0.00  0.00    +0.000 A 
ATOM      8  N   UNL     1       4.706   2.792  17.276  0.00  0.00    +0.000 N 
ATOM      9  C   UNL     1       5.542   3.863  17.176  0.00  0.00    +0.000 A 
ATOM     10  N   UNL     1       6.114   4.402  16.046  0.00  0.00    +0.000 N 
ATOM     11  C   UNL     1       5.924   3.908  14.695  0.00  0.00    +0.000 C 
ATOM     12  C   UNL     1       6.947   5.521  16.216  0.00  0.00    +0.000 A 
ATOM     13  O   UNL     1       7.494   6.059  15.249  0.00  0.00    +0.000 OA
ATOM     14  H   UNL     1       4.355   2.200  16.538  0.00  0.00    +0.000 HD
ENDROOT
BRANCH   7  15
ATOM     15  S   UNL     1       3.359   1.354  19.061  0.00  0.00    +0.000 S 
BRANCH  15  16
ATOM     16  C   UNL     1       1.741   2.174  19.164  0.00  0.00    +0.000 C 
BRANCH  16  17
ATOM     17  C   UNL     1       1.703   3.433  18.297  0.00  0.00    +0.000 C 
ATOM     18  O   UNL     1       1.608   3.420  17.071  0.00  0.00    +0.000 OA
BRANCH  17  19
ATOM     19  C   UNL     1       1.791   4.769  18.976  0.00  0.00    +0.000 A 
ATOM     20  C   UNL     1       2.332   5.895  18.343  0.00  0.00    +0.000 A 
ATOM     21  C   UNL     1       2.400   7.118  19.021  0.00  0.00    +0.000 A 
ATOM     22  C   UNL     1       1.927   7.215  20.324  0.00  0.00    +0.000 A 
ATOM     23  F   UNL     1       1.999   8.387  20.967  0.00  0.00    +0.000 F 
ATOM     24  C   UNL     1       1.382   6.112  20.967  0.00  0.00    +0.000 A 
ATOM     25  C   UNL     1       1.312   4.889  20.294  0.00  0.00    +0.000 A 
ENDBRANCH  17  19
ENDBRANCH  16  17
ENDBRANCH  15  16
ENDBRANCH   7  15
TORSDOF 4
ENDMDL
MODEL 4
REMARK VINA RESULT:      -7.4      4.224      6.629
REMARK  Name = 
REMARK  6 active torsions:
REMARK  status: ('A' for Active; 'I' for Inactive)
REMARK    1  A    between atoms: C_1  and  N_2
REMARK    2  A    between atoms: C_7  and  S_8
REMARK    3  A    between atoms: S_8  and  C_9
REMARK    4  A    between atoms: C_9  and  C_10
REMARK    5  A    between atoms: C_10  and  C_12
REMARK    6  A    between atoms: N_21  and  C_22
REMARK                            x       y       z     vdW  Elec       q    Type
REMARK                         _______ _______ _______ _____ _____    ______ ____
ROOT
ATOM      1  C   UNL     1       1.124  11.941  18.691  0.00  0.00    +0.000 C 
ATOM      2  N   UNL     1       1.269  10.661  19.357  0.00  0.00    +0.000 N 
ATOM      3  C   UNL     1       1.738   9.570  18.598  0.00  0.00    +0.000 A 
ATOM      4  O   UNL     1       2.031   9.636  17.407  0.00  0.00    +0.000 OA
ATOM      5  C   UNL     1       1.843   8.342  19.363  0.00  0.00    +0.000 A 
ATOM      6  N   UNL     1       2.258   7.084  18.957  0.00  0.00    +0.000 NA
ATOM      7  C   UNL     1       2.161   6.348  20.040  0.00  0.00    +0.000 A 
ATOM      8  N   UNL     1       1.706   7.062  21.116  0.00  0.00    +0.000 N 
ATOM      9  C   UNL     1       1.499   8.339  20.689  0.00  0.00    +0.000 A 
ATOM     10  N   UNL     1       1.044   9.422  21.407  0.00  0.00    +0.000 N 
ATOM     11  C   UNL     1       0.684   9.401  22.813  0.00  0.00    +0.000 C 
ATOM     12  C   UNL     1       0.919  10.642  20.723  0.00  0.00    +0.000 A 
ATOM     13  O   UNL     1       0.518  11.656  21.301  0.00  0.00    +0.000 OA
ATOM     14  H   UNL     1       1.563   6.679  22.039  0.00  0.00    +0.000 HD
ENDROOT
BRANCH   7  15
ATOM     15  S   UNL     1       2.516   4.678  20.261  0.00  0.00    +0.000 S 
BRANCH  15  16
ATOM     16  C   UNL     1       3.056   4.164  18.604  0.00  0.00    +0.000 C 
BRANCH  16  17
ATOM     17  C   UNL     1       4.538   3.791  18.596  0.00  0.00    +0.000 C 
ATOM     18  O   UNL     1       5.107   3.217  19.524  0.00  0.00    +0.000 OA
BRANCH  17  19
ATOM     19  C   UNL     1       5.356   4.146  17.389  0.00  0.00    +0.000 A 
ATOM     20  C   UNL     1       6.635   4.710  17.491  0.00  0.00    +0.000 A 
ATOM     21  C   UNL     1       7.355   5.032  16.335  0.00  0.00    +0.000 A 
ATOM     22  C   UNL     1       6.802   4.790  15.084  0.00  0.00    +0.000 A 
ATOM     23  F   UNL     1       7.496   5.104  13.983  0.00  0.00    +0.000 F 
ATOM     24  C   UNL     1       5.539   4.227  14.960  0.00  0.00    +0.000 A 
ATOM     25  C   UNL     1       4.816   3.903  16.112  0.00  0.00    +0.000 A 
ENDBRANCH  17  19
ENDBRANCH  16  17
ENDBRANCH  15  16
ENDBRANCH   7  15
TORSDOF 4
ENDMDL
MODEL 5
REMARK VINA RESULT:      -7.4      3.969      6.421
REMARK  Name = 
REMARK  6 active torsions:
REMARK  status: ('A' for Active; 'I' for Inactive)
REMARK    1  A    between atoms: C_1  and  N_2
REMARK    2  A    between atoms: C_7  and  S_8
REMARK    3  A    between atoms: S_8  and  C_9
REMARK    4  A    between atoms: C_9  and  C_10
REMARK    5  A    between atoms: C_10  and  C_12
REMARK    6  A    between atoms: N_21  and  C_22
REMARK                            x       y       z     vdW  Elec       q    Type
REMARK                         _______ _______ _______ _____ _____    ______ ____
ROOT
ATOM      1  C   UNL     1       1.246  11.475  18.377  0.00  0.00    +0.000 C 
ATOM      2  N   UNL     1       1.388  10.219  19.087  0.00  0.00    +0.000 N 
ATOM      3  C   UNL     1       1.904   9.115  18.381  0.00  0.00    +0.000 A 
ATOM      4  O   UNL     1       2.242   9.150  17.200  0.00  0.00    +0.000 OA
ATOM      5  C   UNL     1       2.002   7.912  19.187  0.00  0.00    +0.000 A 
ATOM      6  N   UNL     1       2.455   6.651  18.837  0.00  0.00    +0.000 NA
ATOM      7  C   UNL     1       2.330   5.947  19.938  0.00  0.00    +0.000 A 
ATOM      8  N   UNL     1       1.822   6.684  20.973  0.00  0.00    +0.000 N 
ATOM      9  C   UNL     1       1.609   7.943  20.499  0.00  0.00    +0.000 A 
ATOM     10  N   UNL     1       1.107   9.039  21.166  0.00  0.00    +0.000 N 
ATOM     11  C   UNL     1       0.695   9.054  22.557  0.00  0.00    +0.000 C 
ATOM     12  C   UNL     1       0.986  10.236  20.439  0.00  0.00    +0.000 A 
ATOM     13  O   UNL     1       0.546  11.259  20.971  0.00  0.00    +0.000 OA
ATOM     14  H   UNL     1       1.650   6.327  21.902  0.00  0.00    +0.000 HD
ENDROOT
BRANCH   7  15
ATOM     15  S   UNL     1       2.706   4.291  20.223  0.00  0.00    +0.000 S 
BRANCH  15  16
ATOM     16  C   UNL     1       3.396   3.759  18.629  0.00  0.00    +0.000 C 
BRANCH  16  17
ATOM     17  C   UNL     1       4.898   4.031  18.558  0.00  0.00    +0.000 C 
ATOM     18  O   UNL     1       5.639   4.053  19.540  0.00  0.00    +0.000 OA
BRANCH  17  19
ATOM     19  C   UNL     1       5.513   4.290  17.214  0.00  0.00    +0.000 A 
ATOM     20  C   UNL     1       4.765   4.255  16.030  0.00  0.00    +0.000 A 
ATOM     21  C   UNL     1       5.386   4.495  14.799  0.00  0.00    +0.000 A 
ATOM     22  C   UNL     1       6.747   4.771  14.751  0.00  0.00    +0.000 A 
ATOM     23  F   UNL     1       7.334   4.996  13.569  0.00  0.00    +0.000 F 
ATOM     24  C   UNL     1       7.505   4.816  15.913  0.00  0.00    +0.000 A 
ATOM     25  C   UNL     1       6.890   4.577  17.145  0.00  0.00    +0.000 A 
ENDBRANCH  17  19
ENDBRANCH  16  17
ENDBRANCH  15  16
ENDBRANCH   7  15
TORSDOF 4
ENDMDL
MODEL 6
REMARK VINA RESULT:      -7.4      4.181      6.307
REMARK  Name = 
REMARK  6 active torsions:
REMARK  status: ('A' for Active; 'I' for Inactive)
REMARK    1  A    between atoms: C_1  and  N_2
REMARK    2  A    between atoms: C_7  and  S_8
REMARK    3  A    between atoms: S_8  and  C_9
REMARK    4  A    between atoms: C_9  and  C_10
REMARK    5  A    between atoms: C_10  and  C_12
REMARK    6  A    between atoms: N_21  and  C_22
REMARK                            x       y       z     vdW  Elec       q    Type
REMARK                         _______ _______ _______ _____ _____    ______ ____
ROOT
ATOM      1  C   UNL     1       0.936  11.958  18.621  0.00  0.00    +0.000 C 
ATOM      2  N   UNL     1       1.122  10.683  19.285  0.00  0.00    +0.000 N 
ATOM      3  C   UNL     1       1.679   9.625  18.539  0.00  0.00    +0.000 A 
ATOM      4  O   UNL     1       2.016   9.715  17.362  0.00  0.00    +0.000 OA
ATOM      5  C   UNL     1       1.818   8.398  19.302  0.00  0.00    +0.000 A 
ATOM      6  N   UNL     1       2.316   7.168  18.907  0.00  0.00    +0.000 NA
ATOM      7  C   UNL     1       2.215   6.419  19.981  0.00  0.00    +0.000 A 
ATOM      8  N   UNL     1       1.680   7.100  21.042  0.00  0.00    +0.000 N 
ATOM      9  C   UNL     1       1.422   8.366  20.613  0.00  0.00    +0.000 A 
ATOM     10  N   UNL     1       0.881   9.418  21.318  0.00  0.00    +0.000 N 
ATOM     11  C   UNL     1       0.466   9.368  22.707  0.00  0.00    +0.000 C 
ATOM     12  C   UNL     1       0.718  10.636  20.635  0.00  0.00    +0.000 A 
ATOM     13  O   UNL     1       0.241  11.623  21.203  0.00  0.00    +0.000 OA
ATOM     14  H   UNL     1       1.520   6.703  21.956  0.00  0.00    +0.000 HD
ENDROOT
BRANCH   7  15
ATOM     15  S   UNL     1       2.650   4.769  20.207  0.00  0.00    +0.000 S 
BRANCH  15  16
ATOM     16  C   UNL     1       2.443   4.071  18.542  0.00  0.00    +0.000 C 
BRANCH  16  17
ATOM     17  C   UNL     1       3.789   3.669  17.940  0.00  0.00    +0.000 C 
ATOM     18  O   UNL     1       4.079   2.519  17.613  0.00  0.00    +0.000 OA
BRANCH  17  19
ATOM     19  C   UNL     1       4.826   4.736  17.735  0.00  0.00    +0.000 A 
ATOM     20  C   UNL     1       4.718   5.699  16.722  0.00  0.00    +0.000 A 
ATOM     21  C   UNL     1       5.715   6.668  16.565  0.00  0.00    +0.000 A 
ATOM     22  C   UNL     1       6.813   6.676  17.417  0.00  0.00    +0.000 A 
ATOM     23  F   UNL     1       7.765   7.604  17.258  0.00  0.00    +0.000 F 
ATOM     24  C   UNL     1       6.937   5.735  18.430  0.00  0.00    +0.000 A 
ATOM     25  C   UNL     1       5.943   4.765  18.590  0.00  0.00    +0.000 A 
ENDBRANCH  17  19
ENDBRANCH  16  17
ENDBRANCH  15  16
ENDBRANCH   7  15
TORSDOF 4
ENDMDL
MODEL 7
REMARK VINA RESULT:      -7.1      4.229      6.416
REMARK  Name = 
REMARK  6 active torsions:
REMARK  status: ('A' for Active; 'I' for Inactive)
REMARK    1  A    between atoms: C_1  and  N_2
REMARK    2  A    between atoms: C_7  and  S_8
REMARK    3  A    between atoms: S_8  and  C_9
REMARK    4  A    between atoms: C_9  and  C_10
REMARK    5  A    between atoms: C_10  and  C_12
REMARK    6  A    between atoms: N_21  and  C_22
REMARK                            x       y       z     vdW  Elec       q    Type
REMARK                         _______ _______ _______ _____ _____    ______ ____
ROOT
ATOM      1  C   UNL     1       1.052  12.135  18.844  0.00  0.00    +0.000 C 
ATOM      2  N   UNL     1       1.247  10.830  19.446  0.00  0.00    +0.000 N 
ATOM      3  C   UNL     1       1.686   9.779  18.617  0.00  0.00    +0.000 A 
ATOM      4  O   UNL     1       1.914   9.898  17.416  0.00  0.00    +0.000 OA
ATOM      5  C   UNL     1       1.846   8.520  19.323  0.00  0.00    +0.000 A 
ATOM      6  N   UNL     1       2.252   7.287  18.842  0.00  0.00    +0.000 NA
ATOM      7  C   UNL     1       2.222   6.505  19.897  0.00  0.00    +0.000 A 
ATOM      8  N   UNL     1       1.818   7.167  21.025  0.00  0.00    +0.000 N 
ATOM      9  C   UNL     1       1.575   8.457  20.664  0.00  0.00    +0.000 A 
ATOM     10  N   UNL     1       1.147   9.503  21.451  0.00  0.00    +0.000 N 
ATOM     11  C   UNL     1       0.865   9.418  22.872  0.00  0.00    +0.000 C 
ATOM     12  C   UNL     1       0.972  10.750  20.827  0.00  0.00    +0.000 A 
ATOM     13  O   UNL     1       0.592  11.733  21.469  0.00  0.00    +0.000 OA
ATOM     14  H   UNL     1       1.730   6.744  21.937  0.00  0.00    +0.000 HD
ENDROOT
BRANCH   7  15
ATOM     15  S   UNL     1       2.607   4.832  20.026  0.00  0.00    +0.000 S 
BRANCH  15  16
ATOM     16  C   UNL     1       2.499   4.264  18.304  0.00  0.00    +0.000 C 
BRANCH  16  17
ATOM     17  C   UNL     1       3.857   3.784  17.794  0.00  0.00    +0.000 C 
ATOM     18  O   UNL     1       4.116   2.611  17.527  0.00  0.00    +0.000 OA
BRANCH  17  19
ATOM     19  C   UNL     1       4.948   4.798  17.607  0.00  0.00    +0.000 A 
ATOM     20  C   UNL     1       6.002   4.939  18.520  0.00  0.00    +0.000 A 
ATOM     21  C   UNL     1       6.991   5.906  18.307  0.00  0.00    +0.000 A 
ATOM     22  C   UNL     1       6.929   6.726  17.187  0.00  0.00    +0.000 A 
ATOM     23  F   UNL     1       7.877   7.651  16.992  0.00  0.00    +0.000 F 
ATOM     24  C   UNL     1       5.896   6.599  16.268  0.00  0.00    +0.000 A 
ATOM     25  C   UNL     1       4.906   5.634  16.476  0.00  0.00    +0.000 A 
ENDBRANCH  17  19
ENDBRANCH  16  17
ENDBRANCH  15  16
ENDBRANCH   7  15
TORSDOF 4
ENDMDL
MODEL 8
REMARK VINA RESULT:      -7.1      2.893      6.242
REMARK  Name = 
REMARK  6 active torsions:
REMARK  status: ('A' for Active; 'I' for Inactive)
REMARK    1  A    between atoms: C_1  and  N_2
REMARK    2  A    between atoms: C_7  and  S_8
REMARK    3  A    between atoms: S_8  and  C_9
REMARK    4  A    between atoms: C_9  and  C_10
REMARK    5  A    between atoms: C_10  and  C_12
REMARK    6  A    between atoms: N_21  and  C_22
REMARK                            x       y       z     vdW  Elec       q    Type
REMARK                         _______ _______ _______ _____ _____    ______ ____
ROOT
ATOM      1  C   UNL     1       1.028   1.725  19.006  0.00  0.00    +0.000 C 
ATOM      2  N   UNL     1       2.020   2.769  19.177  0.00  0.00    +0.000 N 
ATOM      3  C   UNL     1       3.329   2.516  18.721  0.00  0.00    +0.000 A 
ATOM      4  O   UNL     1       3.683   1.467  18.189  0.00  0.00    +0.000 OA
ATOM      5  C   UNL     1       4.237   3.626  18.943  0.00  0.00    +0.000 A 
ATOM      6  N   UNL     1       5.583   3.738  18.634  0.00  0.00    +0.000 NA
ATOM      7  C   UNL     1       5.909   4.942  19.047  0.00  0.00    +0.000 A 
ATOM      8  N   UNL     1       4.849   5.606  19.604  0.00  0.00    +0.000 N 
ATOM      9  C   UNL     1       3.777   4.769  19.542  0.00  0.00    +0.000 A 
ATOM     10  N   UNL     1       2.489   4.989  19.977  0.00  0.00    +0.000 N 
ATOM     11  C   UNL     1       2.017   6.207  20.609  0.00  0.00    +0.000 C 
ATOM     12  C   UNL     1       1.560   3.951  19.792  0.00  0.00    +0.000 A 
ATOM     13  O   UNL     1       0.387   4.077  20.155  0.00  0.00    +0.000 OA
ATOM     14  H   UNL     1       4.893   6.541  19.981  0.00  0.00    +0.000 HD
ENDROOT
BRANCH   7  15
ATOM     15  S   UNL     1       7.430   5.744  18.979  0.00  0.00    +0.000 S 
BRANCH  15  16
ATOM     16  C   UNL     1       7.200   6.917  17.610  0.00  0.00    +0.000 C 
BRANCH  16  17
ATOM     17  C   UNL     1       5.941   6.591  16.808  0.00  0.00    +0.000 C 
ATOM     18  O   UNL     1       4.827   7.049  17.061  0.00  0.00    +0.000 OA
BRANCH  17  19
ATOM     19  C   UNL     1       6.061   5.653  15.642  0.00  0.00    +0.000 A 
ATOM     20  C   UNL     1       5.022   4.792  15.264  0.00  0.00    +0.000 A 
ATOM     21  C   UNL     1       5.185   3.929  14.175  0.00  0.00    +0.000 A 
ATOM     22  C   UNL     1       6.380   3.929  13.464  0.00  0.00    +0.000 A 
ATOM     23  F   UNL     1       6.529   3.097  12.425  0.00  0.00    +0.000 F 
ATOM     24  C   UNL     1       7.419   4.778  13.818  0.00  0.00    +0.000 A 
ATOM     25  C   UNL     1       7.261   5.641  14.906  0.00  0.00    +0.000 A 
ENDBRANCH  17  19
ENDBRANCH  16  17
ENDBRANCH  15  16
ENDBRANCH   7  15
TORSDOF 4
ENDMDL
MODEL 9
REMARK VINA RESULT:      -7.0      4.702      6.263
REMARK  Name = 
REMARK  6 active torsions:
REMARK  status: ('A' for Active; 'I' for Inactive)
REMARK    1  A    between atoms: C_1  and  N_2
REMARK    2  A    between atoms: C_7  and  S_8
REMARK    3  A    between atoms: S_8  and  C_9
REMARK    4  A    between atoms: C_9  and  C_10
REMARK    5  A    between atoms: C_10  and  C_12
REMARK    6  A    between atoms: N_21  and  C_22
REMARK                            x       y       z     vdW  Elec       q    Type
REMARK                         _______ _______ _______ _____ _____    ______ ____
ROOT
ATOM      1  C   UNL     1       4.268   3.887  16.798  0.00  0.00    +0.000 C 
ATOM      2  N   UNL     1       3.564   4.529  17.891  0.00  0.00    +0.000 N 
ATOM      3  C   UNL     1       3.506   5.936  17.903  0.00  0.00    +0.000 A 
ATOM      4  O   UNL     1       4.015   6.654  17.046  0.00  0.00    +0.000 OA
ATOM      5  C   UNL     1       2.778   6.470  19.039  0.00  0.00    +0.000 A 
ATOM      6  N   UNL     1       2.522   7.788  19.380  0.00  0.00    +0.000 NA
ATOM      7  C   UNL     1       1.829   7.703  20.493  0.00  0.00    +0.000 A 
ATOM      8  N   UNL     1       1.628   6.407  20.884  0.00  0.00    +0.000 N 
ATOM      9  C   UNL     1       2.234   5.613  19.959  0.00  0.00    +0.000 A 
ATOM     10  N   UNL     1       2.306   4.238  19.922  0.00  0.00    +0.000 N 
ATOM     11  C   UNL     1       1.724   3.344  20.905  0.00  0.00    +0.000 C 
ATOM     12  C   UNL     1       2.998   3.658  18.845  0.00  0.00    +0.000 A 
ATOM     13  O   UNL     1       3.103   2.432  18.745  0.00  0.00    +0.000 OA
ATOM     14  H   UNL     1       1.120   6.130  21.711  0.00  0.00    +0.000 HD
ENDROOT
BRANCH   7  15
ATOM     15  S   UNL     1       1.176   8.961  21.471  0.00  0.00    +0.000 S 
BRANCH  15  16
ATOM     16  C   UNL     1      -0.407   9.320  20.655  0.00  0.00    +0.000 C 
BRANCH  16  17
ATOM     17  C   UNL     1      -0.221  10.291  19.490  0.00  0.00    +0.000 C 
ATOM     18  O   UNL     1       0.826  10.896  19.260  0.00  0.00    +0.000 OA
BRANCH  17  19
ATOM     19  C   UNL     1      -1.382  10.530  18.568  0.00  0.00    +0.000 A 
ATOM     20  C   UNL     1      -2.381  11.471  18.853  0.00  0.00    +0.000 A 
ATOM     21  C   UNL     1      -3.449  11.651  17.966  0.00  0.00    +0.000 A 
ATOM     22  C   UNL     1      -3.517  10.897  16.800  0.00  0.00    +0.000 A 
ATOM     23  F   UNL     1      -4.544  11.074  15.960  0.00  0.00    +0.000 F 
ATOM     24  C   UNL     1      -2.535   9.965  16.498  0.00  0.00    +0.000 A 
ATOM     25  C   UNL     1      -1.466   9.781  17.380  0.00  0.00    +0.000 A 
ENDBRANCH  17  19
ENDBRANCH  16  17
ENDBRANCH  15  16
ENDBRANCH   7  15
TORSDOF 4
ENDMDL
