MODEL 1
REMARK VINA RESULT:      -8.2      0.000      0.000
REMARK  Name = 
REMARK  3 active torsions:
REMARK  status: ('A' for Active; 'I' for Inactive)
REMARK    1  A    between atoms: C_2  and  C_21
REMARK    2  A    between atoms: N_3  and  C_4
REMARK    3  A    between atoms: C_4  and  C_5
REMARK                            x       y       z     vdW  Elec       q    Type
REMARK                         _______ _______ _______ _____ _____    ______ ____
ROOT
ATOM      1  C   UNL     1       5.637   4.767  16.748  0.00  0.00    +0.000 A 
ATOM      2  C   UNL     1       5.028   6.036  16.597  0.00  0.00    +0.000 A 
ATOM      3  C   UNL     1       4.125   6.125  17.628  0.00  0.00    +0.000 A 
ATOM      4  N   UNL     1       4.219   4.958  18.317  0.00  0.00    +0.000 N 
ATOM      5  N   UNL     1       5.104   4.089  17.780  0.00  0.00    +0.000 NA
ATOM      6  C   UNL     1       3.523   4.647  19.539  0.00  0.00    +0.000 C 
ATOM      7  C   UNL     1       2.540   5.725  20.010  0.00  0.00    +0.000 C 
ATOM      8  N   UNL     1       2.714   7.050  19.414  0.00  0.00    +0.000 N 
ATOM      9  C   UNL     1       1.743   7.981  19.780  0.00  0.00    +0.000 A 
ATOM     10  N   UNL     1       1.162   7.850  20.988  0.00  0.00    +0.000 NA
ATOM     11  C   UNL     1       0.298   8.813  21.374  0.00  0.00    +0.000 A 
ATOM     12  C   UNL     1      -0.040   9.879  20.592  0.00  0.00    +0.000 A 
ATOM     13  F   UNL     1      -0.883  10.831  21.009  0.00  0.00    +0.000 F 
ATOM     14  C   UNL     1       0.552   9.919  19.361  0.00  0.00    +0.000 A 
ATOM     15  N   UNL     1       1.445   8.992  18.940  0.00  0.00    +0.000 NA
ATOM     16  C   UNL     1       3.195   7.194  18.052  0.00  0.00    +0.000 C 
ENDROOT
BRANCH   1  17
ATOM     17  C   UNL     1       6.772   4.226  15.941  0.00  0.00    +0.000 C 
BRANCH  17  20
ATOM     18  O   UNL     1       7.571   5.345  13.597  0.00  0.00    +0.000 OA
ATOM     19  C   UNL     1       6.796   4.385  13.511  0.00  0.00    +0.000 C 
ATOM     20  N   UNL     1       6.327   3.755  14.648  0.00  0.00    +0.000 N 
ATOM     21  H   UNL     1       5.828   2.876  14.589  0.00  0.00    +0.000 HD
BRANCH  19  22
ATOM     22  C   UNL     1       6.272   3.824  12.160  0.00  0.00    +0.000 C 
ATOM     23  C   UNL     1       6.691   2.363  11.820  0.00  0.00    +0.000 C 
ATOM     24  C   UNL     1       5.287   2.153  11.231  0.00  0.00    +0.000 C 
ATOM     25  C   UNL     1       4.804   3.309  12.134  0.00  0.00    +0.000 C 
ENDBRANCH  19  22
ENDBRANCH  17  20
ENDBRANCH   1  17
TORSDOF 3
ENDMDL
MODEL 2
REMARK VINA RESULT:      -7.6      2.364      3.953
REMARK  Name = 
REMARK  3 active torsions:
REMARK  status: ('A' for Active; 'I' for Inactive)
REMARK    1  A    between atoms: C_2  and  C_21
REMARK    2  A    between atoms: N_3  and  C_4
REMARK    3  A    between atoms: C_4  and  C_5
REMARK                            x       y       z     vdW  Elec       q    Type
REMARK                         _______ _______ _______ _____ _____    ______ ____
ROOT
ATOM      1  C   UNL     1       2.988   5.351  19.105  0.00  0.00    +0.000 A 
ATOM      2  C   UNL     1       2.349   5.707  20.316  0.00  0.00    +0.000 A 
ATOM      3  C   UNL     1       1.914   6.995  20.127  0.00  0.00    +0.000 A 
ATOM      4  N   UNL     1       2.298   7.346  18.872  0.00  0.00    +0.000 N 
ATOM      5  N   UNL     1       2.995   6.377  18.236  0.00  0.00    +0.000 NA
ATOM      6  C   UNL     1       1.972   8.581  18.208  0.00  0.00    +0.000 C 
ATOM      7  C   UNL     1       1.195   9.586  19.069  0.00  0.00    +0.000 C 
ATOM      8  N   UNL     1       0.557   9.038  20.266  0.00  0.00    +0.000 N 
ATOM      9  C   UNL     1      -0.052   9.991  21.083  0.00  0.00    +0.000 A 
ATOM     10  N   UNL     1      -0.536  11.107  20.505  0.00  0.00    +0.000 NA
ATOM     11  C   UNL     1      -1.212  11.974  21.287  0.00  0.00    +0.000 A 
ATOM     12  C   UNL     1      -1.394  11.795  22.628  0.00  0.00    +0.000 A 
ATOM     13  F   UNL     1      -2.087  12.661  23.376  0.00  0.00    +0.000 F 
ATOM     14  C   UNL     1      -0.833  10.665  23.154  0.00  0.00    +0.000 A 
ATOM     15  N   UNL     1      -0.169   9.752  22.404  0.00  0.00    +0.000 NA
ATOM     16  C   UNL     1       1.157   7.931  20.987  0.00  0.00    +0.000 C 
ENDROOT
BRANCH   1  17
ATOM     17  C   UNL     1       3.541   4.008  18.754  0.00  0.00    +0.000 C 
BRANCH  17  20
ATOM     18  O   UNL     1       6.238   4.233  19.003  0.00  0.00    +0.000 OA
ATOM     19  C   UNL     1       5.796   4.187  17.850  0.00  0.00    +0.000 C 
ATOM     20  N   UNL     1       4.436   4.082  17.620  0.00  0.00    +0.000 N 
ATOM     21  H   UNL     1       4.078   3.882  16.695  0.00  0.00    +0.000 HD
BRANCH  19  22
ATOM     22  C   UNL     1       6.692   4.264  16.583  0.00  0.00    +0.000 C 
ATOM     23  C   UNL     1       6.024   3.822  15.247  0.00  0.00    +0.000 C 
ATOM     24  C   UNL     1       6.783   4.964  14.550  0.00  0.00    +0.000 C 
ATOM     25  C   UNL     1       6.863   5.664  15.925  0.00  0.00    +0.000 C 
ENDBRANCH  19  22
ENDBRANCH  17  20
ENDBRANCH   1  17
TORSDOF 3
ENDMDL
MODEL 3
REMARK VINA RESULT:      -7.5      1.124      1.373
REMARK  Name = 
REMARK  3 active torsions:
REMARK  status: ('A' for Active; 'I' for Inactive)
REMARK    1  A    between atoms: C_2  and  C_21
REMARK    2  A    between atoms: N_3  and  C_4
REMARK    3  A    between atoms: C_4  and  C_5
REMARK                            x       y       z     vdW  Elec       q    Type
REMARK                         _______ _______ _______ _____ _____    ______ ____
ROOT
ATOM      1  C   UNL     1       5.351   5.330  17.584  0.00  0.00    +0.000 A 
ATOM      2  C   UNL     1       4.772   6.533  17.114  0.00  0.00    +0.000 A 
ATOM      3  C   UNL     1       3.755   6.809  17.994  0.00  0.00    +0.000 A 
ATOM      4  N   UNL     1       3.760   5.804  18.908  0.00  0.00    +0.000 N 
ATOM      5  N   UNL     1       4.697   4.860  18.660  0.00  0.00    +0.000 NA
ATOM      6  C   UNL     1       2.924   5.728  20.078  0.00  0.00    +0.000 C 
ATOM      7  C   UNL     1       1.899   6.861  20.207  0.00  0.00    +0.000 C 
ATOM      8  N   UNL     1       2.151   8.045  19.385  0.00  0.00    +0.000 N 
ATOM      9  C   UNL     1       1.149   9.013  19.443  0.00  0.00    +0.000 A 
ATOM     10  N   UNL     1       0.429   9.114  20.578  0.00  0.00    +0.000 NA
ATOM     11  C   UNL     1      -0.467  10.119  20.661  0.00  0.00    +0.000 A 
ATOM     12  C   UNL     1      -0.705  11.004  19.650  0.00  0.00    +0.000 A 
ATOM     13  F   UNL     1      -1.585  12.005  19.768  0.00  0.00    +0.000 F 
ATOM     14  C   UNL     1       0.028  10.810  18.512  0.00  0.00    +0.000 A 
ATOM     15  N   UNL     1       0.958   9.833  18.390  0.00  0.00    +0.000 NA
ATOM     16  C   UNL     1       2.789   7.924  18.087  0.00  0.00    +0.000 C 
ENDROOT
BRANCH   1  17
ATOM     17  C   UNL     1       6.569   4.659  17.038  0.00  0.00    +0.000 C 
BRANCH  17  20
ATOM     18  O   UNL     1       7.325   5.346  14.519  0.00  0.00    +0.000 OA
ATOM     19  C   UNL     1       6.694   4.290  14.634  0.00  0.00    +0.000 C 
ATOM     20  N   UNL     1       6.259   3.859  15.874  0.00  0.00    +0.000 N 
ATOM     21  H   UNL     1       5.889   2.926  16.001  0.00  0.00    +0.000 HD
BRANCH  19  22
ATOM     22  C   UNL     1       6.320   3.379  13.432  0.00  0.00    +0.000 C 
ATOM     23  C   UNL     1       4.898   3.591  12.833  0.00  0.00    +0.000 C 
ATOM     24  C   UNL     1       5.508   3.367  11.439  0.00  0.00    +0.000 C 
ATOM     25  C   UNL     1       6.867   3.797  12.036  0.00  0.00    +0.000 C 
ENDBRANCH  19  22
ENDBRANCH  17  20
ENDBRANCH   1  17
TORSDOF 3
ENDMDL
MODEL 4
REMARK VINA RESULT:      -7.4      1.983      3.525
REMARK  Name = 
REMARK  3 active torsions:
REMARK  status: ('A' for Active; 'I' for Inactive)
REMARK    1  A    between atoms: C_2  and  C_21
REMARK    2  A    between atoms: N_3  and  C_4
REMARK    3  A    between atoms: C_4  and  C_5
REMARK                            x       y       z     vdW  Elec       q    Type
REMARK                         _______ _______ _______ _____ _____    ______ ____
ROOT
ATOM      1  C   UNL     1       3.369   5.901  18.695  0.00  0.00    +0.000 A 
ATOM      2  C   UNL     1       2.741   6.099  19.948  0.00  0.00    +0.000 A 
ATOM      3  C   UNL     1       2.154   7.338  19.863  0.00  0.00    +0.000 A 
ATOM      4  N   UNL     1       2.447   7.813  18.625  0.00  0.00    +0.000 N 
ATOM      5  N   UNL     1       3.226   6.976  17.901  0.00  0.00    +0.000 NA
ATOM      6  C   UNL     1       1.956   9.043  18.059  0.00  0.00    +0.000 C 
ATOM      7  C   UNL     1       1.104   9.891  19.011  0.00  0.00    +0.000 C 
ATOM      8  N   UNL     1       0.579   9.195  20.186  0.00  0.00    +0.000 N 
ATOM      9  C   UNL     1      -0.103  10.014  21.085  0.00  0.00    +0.000 A 
ATOM     10  N   UNL     1      -0.733  11.102  20.602  0.00  0.00    +0.000 NA
ATOM     11  C   UNL     1      -1.473  11.831  21.464  0.00  0.00    +0.000 A 
ATOM     12  C   UNL     1      -1.582  11.544  22.794  0.00  0.00    +0.000 A 
ATOM     13  F   UNL     1      -2.340  12.271  23.621  0.00  0.00    +0.000 F 
ATOM     14  C   UNL     1      -0.876  10.454  23.222  0.00  0.00    +0.000 A 
ATOM     15  N   UNL     1      -0.141   9.677  22.390  0.00  0.00    +0.000 NA
ATOM     16  C   UNL     1       1.329   8.120  20.808  0.00  0.00    +0.000 C 
ENDROOT
BRANCH   1  17
ATOM     17  C   UNL     1       4.058   4.658  18.235  0.00  0.00    +0.000 C 
BRANCH  17  20
ATOM     18  O   UNL     1       6.456   5.466  17.241  0.00  0.00    +0.000 OA
ATOM     19  C   UNL     1       5.605   5.125  16.412  0.00  0.00    +0.000 C 
ATOM     20  N   UNL     1       4.351   4.707  16.819  0.00  0.00    +0.000 N 
ATOM     21  H   UNL     1       3.708   4.275  16.167  0.00  0.00    +0.000 HD
BRANCH  19  22
ATOM     22  C   UNL     1       5.843   5.153  14.876  0.00  0.00    +0.000 C 
ATOM     23  C   UNL     1       7.270   4.747  14.401  0.00  0.00    +0.000 C 
ATOM     24  C   UNL     1       6.612   4.029  13.210  0.00  0.00    +0.000 C 
ATOM     25  C   UNL     1       5.327   3.932  14.062  0.00  0.00    +0.000 C 
ENDBRANCH  19  22
ENDBRANCH  17  20
ENDBRANCH   1  17
TORSDOF 3
ENDMDL
MODEL 5
REMARK VINA RESULT:      -7.4      1.377      1.779
REMARK  Name = 
REMARK  3 active torsions:
REMARK  status: ('A' for Active; 'I' for Inactive)
REMARK    1  A    between atoms: C_2  and  C_21
REMARK    2  A    between atoms: N_3  and  C_4
REMARK    3  A    between atoms: C_4  and  C_5
REMARK                            x       y       z     vdW  Elec       q    Type
REMARK                         _______ _______ _______ _____ _____    ______ ____
ROOT
ATOM      1  C   UNL     1       4.353   4.679  17.964  0.00  0.00    +0.000 A 
ATOM      2  C   UNL     1       3.977   6.007  17.651  0.00  0.00    +0.000 A 
ATOM      3  C   UNL     1       3.090   6.370  18.634  0.00  0.00    +0.000 A 
ATOM      4  N   UNL     1       2.970   5.293  19.453  0.00  0.00    +0.000 N 
ATOM      5  N   UNL     1       3.697   4.228  19.046  0.00  0.00    +0.000 NA
ATOM      6  C   UNL     1       2.214   5.250  20.678  0.00  0.00    +0.000 C 
ATOM      7  C   UNL     1       1.427   6.529  20.991  0.00  0.00    +0.000 C 
ATOM      8  N   UNL     1       1.839   7.725  20.257  0.00  0.00    +0.000 N 
ATOM      9  C   UNL     1       1.040   8.846  20.483  0.00  0.00    +0.000 A 
ATOM     10  N   UNL     1       0.429   8.959  21.678  0.00  0.00    +0.000 NA
ATOM     11  C   UNL     1      -0.258  10.094  21.924  0.00  0.00    +0.000 A 
ATOM     12  C   UNL     1      -0.395  11.104  21.016  0.00  0.00    +0.000 A 
ATOM     13  F   UNL     1      -1.064  12.228  21.295  0.00  0.00    +0.000 F 
ATOM     14  C   UNL     1       0.211  10.898  19.808  0.00  0.00    +0.000 A 
ATOM     15  N   UNL     1       0.934   9.788  19.525  0.00  0.00    +0.000 NA
ATOM     16  C   UNL     1       2.356   7.625  18.904  0.00  0.00    +0.000 C 
ENDROOT
BRANCH   1  17
ATOM     17  C   UNL     1       5.387   3.860  17.262  0.00  0.00    +0.000 C 
BRANCH  17  20
ATOM     18  O   UNL     1       7.556   4.787  15.911  0.00  0.00    +0.000 OA
ATOM     19  C   UNL     1       6.541   4.574  15.239  0.00  0.00    +0.000 C 
ATOM     20  N   UNL     1       5.384   4.110  15.837  0.00  0.00    +0.000 N 
ATOM     21  H   UNL     1       4.606   3.780  15.280  0.00  0.00    +0.000 HD
BRANCH  19  22
ATOM     22  C   UNL     1       6.460   4.821  13.707  0.00  0.00    +0.000 C 
ATOM     23  C   UNL     1       7.819   5.050  12.981  0.00  0.00    +0.000 C 
ATOM     24  C   UNL     1       7.267   4.233  11.801  0.00  0.00    +0.000 C 
ATOM     25  C   UNL     1       6.295   3.567  12.800  0.00  0.00    +0.000 C 
ENDBRANCH  19  22
ENDBRANCH  17  20
ENDBRANCH   1  17
TORSDOF 3
ENDMDL
MODEL 6
REMARK VINA RESULT:      -7.3      1.598      2.792
REMARK  Name = 
REMARK  3 active torsions:
REMARK  status: ('A' for Active; 'I' for Inactive)
REMARK    1  A    between atoms: C_2  and  C_21
REMARK    2  A    between atoms: N_3  and  C_4
REMARK    3  A    between atoms: C_4  and  C_5
REMARK                            x       y       z     vdW  Elec       q    Type
REMARK                         _______ _______ _______ _____ _____    ______ ____
ROOT
ATOM      1  C   UNL     1       4.080   5.522  18.049  0.00  0.00    +0.000 A 
ATOM      2  C   UNL     1       3.512   5.629  19.341  0.00  0.00    +0.000 A 
ATOM      3  C   UNL     1       2.856   6.835  19.346  0.00  0.00    +0.000 A 
ATOM      4  N   UNL     1       3.054   7.380  18.117  0.00  0.00    +0.000 N 
ATOM      5  N   UNL     1       3.835   6.622  17.315  0.00  0.00    +0.000 NA
ATOM      6  C   UNL     1       2.466   8.604  17.637  0.00  0.00    +0.000 C 
ATOM      7  C   UNL     1       1.623   9.359  18.672  0.00  0.00    +0.000 C 
ATOM      8  N   UNL     1       1.202   8.584  19.839  0.00  0.00    +0.000 N 
ATOM      9  C   UNL     1       0.528   9.322  20.811  0.00  0.00    +0.000 A 
ATOM     10  N   UNL     1      -0.186  10.393  20.414  0.00  0.00    +0.000 NA
ATOM     11  C   UNL     1      -0.915  11.039  21.347  0.00  0.00    +0.000 A 
ATOM     12  C   UNL     1      -0.934  10.688  22.666  0.00  0.00    +0.000 A 
ATOM     13  F   UNL     1      -1.684  11.334  23.566  0.00  0.00    +0.000 F 
ATOM     14  C   UNL     1      -0.147   9.623  23.004  0.00  0.00    +0.000 A 
ATOM     15  N   UNL     1       0.581   8.926  22.099  0.00  0.00    +0.000 NA
ATOM     16  C   UNL     1       2.043   7.526  20.370  0.00  0.00    +0.000 C 
ENDROOT
BRANCH   1  17
ATOM     17  C   UNL     1       4.809   4.342  17.494  0.00  0.00    +0.000 C 
BRANCH  17  20
ATOM     18  O   UNL     1       7.114   4.978  16.202  0.00  0.00    +0.000 OA
ATOM     19  C   UNL     1       6.134   4.737  15.489  0.00  0.00    +0.000 C 
ATOM     20  N   UNL     1       4.914   4.412  16.053  0.00  0.00    +0.000 N 
ATOM     21  H   UNL     1       4.155   4.057  15.486  0.00  0.00    +0.000 HD
BRANCH  19  22
ATOM     22  C   UNL     1       6.167   4.794  13.936  0.00  0.00    +0.000 C 
ATOM     23  C   UNL     1       7.573   4.984  13.292  0.00  0.00    +0.000 C 
ATOM     24  C   UNL     1       7.138   4.011  12.183  0.00  0.00    +0.000 C 
ATOM     25  C   UNL     1       6.108   3.436  13.180  0.00  0.00    +0.000 C 
ENDBRANCH  19  22
ENDBRANCH  17  20
ENDBRANCH   1  17
TORSDOF 3
ENDMDL
MODEL 7
REMARK VINA RESULT:      -7.3      4.149      8.635
REMARK  Name = 
REMARK  3 active torsions:
REMARK  status: ('A' for Active; 'I' for Inactive)
REMARK    1  A    between atoms: C_2  and  C_21
REMARK    2  A    between atoms: N_3  and  C_4
REMARK    3  A    between atoms: C_4  and  C_5
REMARK                            x       y       z     vdW  Elec       q    Type
REMARK                         _______ _______ _______ _____ _____    ______ ____
ROOT
ATOM      1  C   UNL     1       1.009   9.322  19.847  0.00  0.00    +0.000 A 
ATOM      2  C   UNL     1       1.722   9.312  18.624  0.00  0.00    +0.000 A 
ATOM      3  C   UNL     1       2.395   8.116  18.611  0.00  0.00    +0.000 A 
ATOM      4  N   UNL     1       2.080   7.490  19.774  0.00  0.00    +0.000 N 
ATOM      5  N   UNL     1       1.269   8.220  20.572  0.00  0.00    +0.000 NA
ATOM      6  C   UNL     1       2.484   6.159  20.148  0.00  0.00    +0.000 C 
ATOM      7  C   UNL     1       3.420   5.469  19.149  0.00  0.00    +0.000 C 
ATOM      8  N   UNL     1       3.464   6.054  17.809  0.00  0.00    +0.000 N 
ATOM      9  C   UNL     1       4.399   5.472  16.954  0.00  0.00    +0.000 A 
ATOM     10  N   UNL     1       4.707   4.174  17.138  0.00  0.00    +0.000 NA
ATOM     11  C   UNL     1       5.535   3.594  16.244  0.00  0.00    +0.000 A 
ATOM     12  C   UNL     1       6.100   4.262  15.197  0.00  0.00    +0.000 A 
ATOM     13  F   UNL     1       6.901   3.657  14.313  0.00  0.00    +0.000 F 
ATOM     14  C   UNL     1       5.781   5.588  15.102  0.00  0.00    +0.000 A 
ATOM     15  N   UNL     1       4.934   6.207  15.958  0.00  0.00    +0.000 NA
ATOM     16  C   UNL     1       3.287   7.482  17.616  0.00  0.00    +0.000 C 
ENDROOT
BRANCH   1  17
ATOM     17  C   UNL     1       0.033  10.359  20.297  0.00  0.00    +0.000 C 
BRANCH  17  20
ATOM     18  O   UNL     1      -0.501  12.157  18.329  0.00  0.00    +0.000 OA
ATOM     19  C   UNL     1      -1.354  11.283  18.520  0.00  0.00    +0.000 C 
ATOM     20  N   UNL     1      -1.177  10.329  19.505  0.00  0.00    +0.000 N 
ATOM     21  H   UNL     1      -1.783   9.520  19.562  0.00  0.00    +0.000 HD
BRANCH  19  22
ATOM     22  C   UNL     1      -2.678  11.186  17.713  0.00  0.00    +0.000 C 
ATOM     23  C   UNL     1      -2.535  11.211  16.163  0.00  0.00    +0.000 C 
ATOM     24  C   UNL     1      -3.664  10.169  16.094  0.00  0.00    +0.000 C 
ATOM     25  C   UNL     1      -3.294   9.768  17.539  0.00  0.00    +0.000 C 
ENDBRANCH  19  22
ENDBRANCH  17  20
ENDBRANCH   1  17
TORSDOF 3
ENDMDL
MODEL 8
REMARK VINA RESULT:      -7.3      2.472      4.119
REMARK  Name = 
REMARK  3 active torsions:
REMARK  status: ('A' for Active; 'I' for Inactive)
REMARK    1  A    between atoms: C_2  and  C_21
REMARK    2  A    between atoms: N_3  and  C_4
REMARK    3  A    between atoms: C_4  and  C_5
REMARK                            x       y       z     vdW  Elec       q    Type
REMARK                         _______ _______ _______ _____ _____    ______ ____
ROOT
ATOM      1  C   UNL     1       2.933   5.365  19.578  0.00  0.00    +0.000 A 
ATOM      2  C   UNL     1       2.218   5.793  20.722  0.00  0.00    +0.000 A 
ATOM      3  C   UNL     1       1.818   7.075  20.436  0.00  0.00    +0.000 A 
ATOM      4  N   UNL     1       2.294   7.353  19.195  0.00  0.00    +0.000 N 
ATOM      5  N   UNL     1       3.017   6.343  18.660  0.00  0.00    +0.000 NA
ATOM      6  C   UNL     1       2.034   8.555  18.446  0.00  0.00    +0.000 C 
ATOM      7  C   UNL     1       1.217   9.614  19.197  0.00  0.00    +0.000 C 
ATOM      8  N   UNL     1       0.489   9.140  20.374  0.00  0.00    +0.000 N 
ATOM      9  C   UNL     1      -0.159  10.142  21.095  0.00  0.00    +0.000 A 
ATOM     10  N   UNL     1      -0.584  11.232  20.428  0.00  0.00    +0.000 NA
ATOM     11  C   UNL     1      -1.298  12.147  21.115  0.00  0.00    +0.000 A 
ATOM     12  C   UNL     1      -1.574  12.043  22.447  0.00  0.00    +0.000 A 
ATOM     13  F   UNL     1      -2.303  12.955  23.099  0.00  0.00    +0.000 F 
ATOM     14  C   UNL     1      -1.070  10.934  23.069  0.00  0.00    +0.000 A 
ATOM     15  N   UNL     1      -0.371   9.975  22.416  0.00  0.00    +0.000 NA
ATOM     16  C   UNL     1       1.019   8.064  21.191  0.00  0.00    +0.000 C 
ENDROOT
BRANCH   1  17
ATOM     17  C   UNL     1       3.487   3.999  19.337  0.00  0.00    +0.000 C 
BRANCH  17  20
ATOM     18  O   UNL     1       3.269   3.337  16.710  0.00  0.00    +0.000 OA
ATOM     19  C   UNL     1       4.390   3.685  17.097  0.00  0.00    +0.000 C 
ATOM     20  N   UNL     1       4.603   4.032  18.418  0.00  0.00    +0.000 N 
ATOM     21  H   UNL     1       5.468   4.471  18.708  0.00  0.00    +0.000 HD
BRANCH  19  22
ATOM     22  C   UNL     1       5.636   3.743  16.171  0.00  0.00    +0.000 C 
ATOM     23  C   UNL     1       5.515   4.665  14.922  0.00  0.00    +0.000 C 
ATOM     24  C   UNL     1       6.983   5.068  15.141  0.00  0.00    +0.000 C 
ATOM     25  C   UNL     1       6.805   4.666  16.622  0.00  0.00    +0.000 C 
ENDBRANCH  19  22
ENDBRANCH  17  20
ENDBRANCH   1  17
TORSDOF 3
ENDMDL
MODEL 9
REMARK VINA RESULT:      -7.2      2.454      4.527
REMARK  Name = 
REMARK  3 active torsions:
REMARK  status: ('A' for Active; 'I' for Inactive)
REMARK    1  A    between atoms: C_2  and  C_21
REMARK    2  A    between atoms: N_3  and  C_4
REMARK    3  A    between atoms: C_4  and  C_5
REMARK                            x       y       z     vdW  Elec       q    Type
REMARK                         _______ _______ _______ _____ _____    ______ ____
ROOT
ATOM      1  C   UNL     1       2.709   6.414  19.394  0.00  0.00    +0.000 A 
ATOM      2  C   UNL     1       2.033   6.821  20.569  0.00  0.00    +0.000 A 
ATOM      3  C   UNL     1       1.521   8.062  20.277  0.00  0.00    +0.000 A 
ATOM      4  N   UNL     1       1.900   8.338  19.002  0.00  0.00    +0.000 N 
ATOM      5  N   UNL     1       2.664   7.369  18.449  0.00  0.00    +0.000 NA
ATOM      6  C   UNL     1       1.505   9.495  18.241  0.00  0.00    +0.000 C 
ATOM      7  C   UNL     1       0.657  10.512  19.014  0.00  0.00    +0.000 C 
ATOM      8  N   UNL     1       0.038  10.020  20.244  0.00  0.00    +0.000 N 
ATOM      9  C   UNL     1      -0.640  10.992  20.979  0.00  0.00    +0.000 A 
ATOM     10  N   UNL     1      -1.185  12.028  20.312  0.00  0.00    +0.000 NA
ATOM     11  C   UNL     1      -1.924  12.908  21.019  0.00  0.00    +0.000 A 
ATOM     12  C   UNL     1      -2.112  12.822  22.369  0.00  0.00    +0.000 A 
ATOM     13  F   UNL     1      -2.867  13.697  23.041  0.00  0.00    +0.000 F 
ATOM     14  C   UNL     1      -1.489  11.773  22.985  0.00  0.00    +0.000 A 
ATOM     15  N   UNL     1      -0.760  10.849  22.315  0.00  0.00    +0.000 NA
ATOM     16  C   UNL     1       0.696   9.011  21.054  0.00  0.00    +0.000 C 
ENDROOT
BRANCH   1  17
ATOM     17  C   UNL     1       3.349   5.086  19.154  0.00  0.00    +0.000 C 
BRANCH  17  20
ATOM     18  O   UNL     1       5.913   4.190  19.041  0.00  0.00    +0.000 OA
ATOM     19  C   UNL     1       5.429   4.603  17.982  0.00  0.00    +0.000 C 
ATOM     20  N   UNL     1       4.135   5.087  17.939  0.00  0.00    +0.000 N 
ATOM     21  H   UNL     1       3.676   5.274  17.056  0.00  0.00    +0.000 HD
BRANCH  19  22
ATOM     22  C   UNL     1       6.210   4.639  16.639  0.00  0.00    +0.000 C 
ATOM     23  C   UNL     1       5.740   3.629  15.550  0.00  0.00    +0.000 C 
ATOM     24  C   UNL     1       5.997   4.722  14.499  0.00  0.00    +0.000 C 
ATOM     25  C   UNL     1       5.825   5.760  15.631  0.00  0.00    +0.000 C 
ENDBRANCH  19  22
ENDBRANCH  17  20
ENDBRANCH   1  17
TORSDOF 3
ENDMDL
