MODEL 1
REMARK VINA RESULT:      -8.6      0.000      0.000
REMARK  Name = 
REMARK  9 active torsions:
REMARK  status: ('A' for Active; 'I' for Inactive)
REMARK    1  A    between atoms: C_2  and  C_3
REMARK    2  A    between atoms: C_3  and  C_4
REMARK    3  A    between atoms: C_4  and  C_5
REMARK    4  A    between atoms: C_5  and  C_6
REMARK    5  A    between atoms: C_6  and  C_7
REMARK    6  A    between atoms: C_7  and  C_8
REMARK    7  A    between atoms: C_8  and  N_9
REMARK    8  A    between atoms: N_22  and  O_23
REMARK    9  A    between atoms: N_30  and  O_31
REMARK                            x       y       z     vdW  Elec       q    Type
REMARK                         _______ _______ _______ _____ _____    ______ ____
ROOT
ATOM      1  N   UNL     1       3.757   4.565  17.873  0.00  0.00    +0.000 N 
ATOM      2  C   UNL     1       3.564   5.936  17.620  0.00  0.00    +0.000 C 
ATOM      3  O   UNL     1       3.983   6.588  16.676  0.00  0.00    +0.000 OA
ATOM      4  C   UNL     1       2.718   6.469  18.785  0.00  0.00    +0.000 C 
ATOM      5  C   UNL     1       2.282   7.755  18.850  0.00  0.00    +0.000 C 
ATOM      6  N   UNL     1       2.488   8.852  18.002  0.00  0.00    +0.000 N 
ATOM      7  C   UNL     1       1.981  10.027  18.565  0.00  0.00    +0.000 A 
ATOM      8  C   UNL     1       1.949  11.321  18.068  0.00  0.00    +0.000 A 
ATOM      9  C   UNL     1       1.299  12.333  18.814  0.00  0.00    +0.000 A 
ATOM     10  C   UNL     1       0.675  12.054  20.039  0.00  0.00    +0.000 A 
ATOM     11  C   UNL     1       0.689  10.753  20.523  0.00  0.00    +0.000 A 
ATOM     12  C   UNL     1       1.325   9.770  19.772  0.00  0.00    +0.000 A 
ATOM     13  C   UNL     1       1.411   8.318  19.999  0.00  0.00    +0.000 C 
ATOM     14  N   UNL     1       0.852   7.630  20.934  0.00  0.00    +0.000 NA
ATOM     15  C   UNL     1       2.522   5.287  19.685  0.00  0.00    +0.000 A 
ATOM     16  C   UNL     1       1.948   5.065  20.931  0.00  0.00    +0.000 A 
ATOM     17  C   UNL     1       1.896   3.790  21.501  0.00  0.00    +0.000 A 
ATOM     18  C   UNL     1       2.471   2.709  20.851  0.00  0.00    +0.000 A 
ATOM     19  C   UNL     1       3.108   2.908  19.630  0.00  0.00    +0.000 A 
ATOM     20  C   UNL     1       3.127   4.188  19.070  0.00  0.00    +0.000 A 
ATOM     21  H   UNL     1       3.119   8.797  17.208  0.00  0.00    +0.000 HD
ENDROOT
BRANCH  14  22
ATOM     22  O   UNL     1       0.187   8.360  21.901  0.00  0.00    +0.000 OA
ATOM     23  H   UNL     1      -0.348   8.967  21.361  0.00  0.00    +0.000 HD
ENDBRANCH  14  22
BRANCH   1  24
ATOM     24  C   UNL     1       4.544   3.611  17.083  0.00  0.00    +0.000 C 
BRANCH  24  25
ATOM     25  C   UNL     1       5.053   4.209  15.752  0.00  0.00    +0.000 C 
BRANCH  25  26
ATOM     26  C   UNL     1       6.582   4.082  15.578  0.00  0.00    +0.000 C 
BRANCH  26  27
ATOM     27  C   UNL     1       7.341   4.674  16.778  0.00  0.00    +0.000 C 
BRANCH  27  28
ATOM     28  C   UNL     1       7.176   6.198  16.885  0.00  0.00    +0.000 C 
BRANCH  28  29
ATOM     29  C   UNL     1       7.806   6.747  18.169  0.00  0.00    +0.000 C 
BRANCH  29  31
ATOM     30  O   UNL     1       6.337   5.527  19.682  0.00  0.00    +0.000 OA
ATOM     31  C   UNL     1       7.465   5.919  19.394  0.00  0.00    +0.000 C 
ATOM     32  N   UNL     1       8.556   5.637  20.181  0.00  0.00    +0.000 N 
ATOM     33  H   UNL     1       9.518   5.855  19.950  0.00  0.00    +0.000 HD
BRANCH  32  34
ATOM     34  O   UNL     1       8.332   4.834  21.320  0.00  0.00    +0.000 OA
ATOM     35  H   UNL     1       7.847   5.447  21.917  0.00  0.00    +0.000 HD
ENDBRANCH  32  34
ENDBRANCH  29  31
ENDBRANCH  28  29
ENDBRANCH  27  28
ENDBRANCH  26  27
ENDBRANCH  25  26
ENDBRANCH  24  25
ENDBRANCH   1  24
TORSDOF 9
ENDMDL
MODEL 2
REMARK VINA RESULT:      -8.3      2.643      3.834
REMARK  Name = 
REMARK  9 active torsions:
REMARK  status: ('A' for Active; 'I' for Inactive)
REMARK    1  A    between atoms: C_2  and  C_3
REMARK    2  A    between atoms: C_3  and  C_4
REMARK    3  A    between atoms: C_4  and  C_5
REMARK    4  A    between atoms: C_5  and  C_6
REMARK    5  A    between atoms: C_6  and  C_7
REMARK    6  A    between atoms: C_7  and  C_8
REMARK    7  A    between atoms: C_8  and  N_9
REMARK    8  A    between atoms: N_22  and  O_23
REMARK    9  A    between atoms: N_30  and  O_31
REMARK                            x       y       z     vdW  Elec       q    Type
REMARK                         _______ _______ _______ _____ _____    ______ ____
ROOT
ATOM      1  N   UNL     1       4.081   5.029  18.004  0.00  0.00    +0.000 N 
ATOM      2  C   UNL     1       3.773   6.383  17.773  0.00  0.00    +0.000 C 
ATOM      3  O   UNL     1       4.208   7.109  16.892  0.00  0.00    +0.000 OA
ATOM      4  C   UNL     1       2.773   6.784  18.867  0.00  0.00    +0.000 C 
ATOM      5  C   UNL     1       2.203   8.018  18.927  0.00  0.00    +0.000 C 
ATOM      6  N   UNL     1       2.373   9.161  18.133  0.00  0.00    +0.000 N 
ATOM      7  C   UNL     1       1.698  10.257  18.679  0.00  0.00    +0.000 A 
ATOM      8  C   UNL     1       1.580  11.560  18.219  0.00  0.00    +0.000 A 
ATOM      9  C   UNL     1       0.764  12.473  18.928  0.00  0.00    +0.000 A 
ATOM     10  C   UNL     1       0.062  12.087  20.078  0.00  0.00    +0.000 A 
ATOM     11  C   UNL     1       0.164  10.777  20.525  0.00  0.00    +0.000 A 
ATOM     12  C   UNL     1       0.964   9.891  19.810  0.00  0.00    +0.000 A 
ATOM     13  C   UNL     1       1.177   8.448  20.003  0.00  0.00    +0.000 C 
ATOM     14  N   UNL     1       0.607   7.672  20.860  0.00  0.00    +0.000 NA
ATOM     15  C   UNL     1       2.616   5.555  19.710  0.00  0.00    +0.000 A 
ATOM     16  C   UNL     1       1.955   5.231  20.888  0.00  0.00    +0.000 A 
ATOM     17  C   UNL     1       1.982   3.936  21.414  0.00  0.00    +0.000 A 
ATOM     18  C   UNL     1       2.722   2.942  20.791  0.00  0.00    +0.000 A 
ATOM     19  C   UNL     1       3.446   3.250  19.643  0.00  0.00    +0.000 A 
ATOM     20  C   UNL     1       3.384   4.546  19.124  0.00  0.00    +0.000 A 
ATOM     21  H   UNL     1       3.077   9.200  17.402  0.00  0.00    +0.000 HD
ENDROOT
BRANCH  14  22
ATOM     22  O   UNL     1      -0.215   8.295  21.780  0.00  0.00    +0.000 OA
ATOM     23  H   UNL     1       0.431   8.749  22.349  0.00  0.00    +0.000 HD
ENDBRANCH  14  22
BRANCH   1  24
ATOM     24  C   UNL     1       5.030   4.189  17.266  0.00  0.00    +0.000 C 
BRANCH  24  25
ATOM     25  C   UNL     1       6.486   4.699  17.363  0.00  0.00    +0.000 C 
BRANCH  25  26
ATOM     26  C   UNL     1       7.194   4.769  15.992  0.00  0.00    +0.000 C 
BRANCH  26  27
ATOM     27  C   UNL     1       6.192   4.990  14.846  0.00  0.00    +0.000 C 
BRANCH  27  28
ATOM     28  C   UNL     1       5.895   3.699  14.068  0.00  0.00    +0.000 C 
BRANCH  28  29
ATOM     29  C   UNL     1       6.356   3.799  12.609  0.00  0.00    +0.000 C 
BRANCH  29  31
ATOM     30  O   UNL     1       4.677   2.644  11.274  0.00  0.00    +0.000 OA
ATOM     31  C   UNL     1       5.812   2.679  11.742  0.00  0.00    +0.000 C 
ATOM     32  N   UNL     1       6.723   1.674  11.519  0.00  0.00    +0.000 N 
ATOM     33  H   UNL     1       7.695   1.690  11.802  0.00  0.00    +0.000 HD
BRANCH  32  34
ATOM     34  O   UNL     1       6.310   0.612  10.686  0.00  0.00    +0.000 OA
ATOM     35  H   UNL     1       5.729   1.067  10.036  0.00  0.00    +0.000 HD
ENDBRANCH  32  34
ENDBRANCH  29  31
ENDBRANCH  28  29
ENDBRANCH  27  28
ENDBRANCH  26  27
ENDBRANCH  25  26
ENDBRANCH  24  25
ENDBRANCH   1  24
TORSDOF 9
ENDMDL
MODEL 3
REMARK VINA RESULT:      -8.2      3.830      8.438
REMARK  Name = 
REMARK  9 active torsions:
REMARK  status: ('A' for Active; 'I' for Inactive)
REMARK    1  A    between atoms: C_2  and  C_3
REMARK    2  A    between atoms: C_3  and  C_4
REMARK    3  A    between atoms: C_4  and  C_5
REMARK    4  A    between atoms: C_5  and  C_6
REMARK    5  A    between atoms: C_6  and  C_7
REMARK    6  A    between atoms: C_7  and  C_8
REMARK    7  A    between atoms: C_8  and  N_9
REMARK    8  A    between atoms: N_22  and  O_23
REMARK    9  A    between atoms: N_30  and  O_31
REMARK                            x       y       z     vdW  Elec       q    Type
REMARK                         _______ _______ _______ _____ _____    ______ ____
ROOT
ATOM      1  N   UNL     1       0.852  11.187  19.336  0.00  0.00    +0.000 N 
ATOM      2  C   UNL     1       1.623  10.308  18.552  0.00  0.00    +0.000 C 
ATOM      3  O   UNL     1       2.161  10.539  17.480  0.00  0.00    +0.000 OA
ATOM      4  C   UNL     1       1.654   8.975  19.313  0.00  0.00    +0.000 C 
ATOM      5  C   UNL     1       2.363   7.897  18.881  0.00  0.00    +0.000 C 
ATOM      6  N   UNL     1       3.142   7.695  17.734  0.00  0.00    +0.000 N 
ATOM      7  C   UNL     1       3.544   6.360  17.627  0.00  0.00    +0.000 A 
ATOM      8  C   UNL     1       4.333   5.732  16.675  0.00  0.00    +0.000 A 
ATOM      9  C   UNL     1       4.662   4.365  16.841  0.00  0.00    +0.000 A 
ATOM     10  C   UNL     1       4.218   3.635  17.952  0.00  0.00    +0.000 A 
ATOM     11  C   UNL     1       3.448   4.272  18.915  0.00  0.00    +0.000 A 
ATOM     12  C   UNL     1       3.142   5.618  18.740  0.00  0.00    +0.000 A 
ATOM     13  C   UNL     1       2.432   6.547  19.634  0.00  0.00    +0.000 C 
ATOM     14  N   UNL     1       1.985   6.316  20.820  0.00  0.00    +0.000 NA
ATOM     15  C   UNL     1       0.807   9.208  20.527  0.00  0.00    +0.000 A 
ATOM     16  C   UNL     1       0.336   8.434  21.579  0.00  0.00    +0.000 A 
ATOM     17  C   UNL     1      -0.435   8.982  22.609  0.00  0.00    +0.000 A 
ATOM     18  C   UNL     1      -0.797  10.320  22.576  0.00  0.00    +0.000 A 
ATOM     19  C   UNL     1      -0.393  11.109  21.504  0.00  0.00    +0.000 A 
ATOM     20  C   UNL     1       0.396  10.543  20.498  0.00  0.00    +0.000 A 
ATOM     21  H   UNL     1       3.190   8.391  16.996  0.00  0.00    +0.000 HD
ENDROOT
BRANCH  14  22
ATOM     22  O   UNL     1       2.085   5.009  21.256  0.00  0.00    +0.000 OA
ATOM     23  H   UNL     1       1.515   5.018  22.046  0.00  0.00    +0.000 HD
ENDBRANCH  14  22
BRANCH   1  24
ATOM     24  C   UNL     1       0.477  12.570  19.023  0.00  0.00    +0.000 C 
BRANCH  24  25
ATOM     25  C   UNL     1      -0.799  12.666  18.158  0.00  0.00    +0.000 C 
BRANCH  25  26
ATOM     26  C   UNL     1      -1.474  11.297  17.923  0.00  0.00    +0.000 C 
BRANCH  26  27
ATOM     27  C   UNL     1      -2.687  11.415  16.984  0.00  0.00    +0.000 C 
BRANCH  27  28
ATOM     28  C   UNL     1      -3.139  10.055  16.432  0.00  0.00    +0.000 C 
BRANCH  28  29
ATOM     29  C   UNL     1      -2.409   9.701  15.132  0.00  0.00    +0.000 C 
BRANCH  29  31
ATOM     30  O   UNL     1      -4.512  10.007  13.941  0.00  0.00    +0.000 OA
ATOM     31  C   UNL     1      -3.302   9.801  13.909  0.00  0.00    +0.000 C 
ATOM     32  N   UNL     1      -2.623   9.634  12.726  0.00  0.00    +0.000 N 
ATOM     33  H   UNL     1      -1.618   9.551  12.633  0.00  0.00    +0.000 HD
BRANCH  32  34
ATOM     34  O   UNL     1      -3.374   9.754  11.537  0.00  0.00    +0.000 OA
ATOM     35  H   UNL     1      -3.447   8.820  11.239  0.00  0.00    +0.000 HD
ENDBRANCH  32  34
ENDBRANCH  29  31
ENDBRANCH  28  29
ENDBRANCH  27  28
ENDBRANCH  26  27
ENDBRANCH  25  26
ENDBRANCH  24  25
ENDBRANCH   1  24
TORSDOF 9
ENDMDL
MODEL 4
REMARK VINA RESULT:      -8.1      2.625      3.874
REMARK  Name = 
REMARK  9 active torsions:
REMARK  status: ('A' for Active; 'I' for Inactive)
REMARK    1  A    between atoms: C_2  and  C_3
REMARK    2  A    between atoms: C_3  and  C_4
REMARK    3  A    between atoms: C_4  and  C_5
REMARK    4  A    between atoms: C_5  and  C_6
REMARK    5  A    between atoms: C_6  and  C_7
REMARK    6  A    between atoms: C_7  and  C_8
REMARK    7  A    between atoms: C_8  and  N_9
REMARK    8  A    between atoms: N_22  and  O_23
REMARK    9  A    between atoms: N_30  and  O_31
REMARK                            x       y       z     vdW  Elec       q    Type
REMARK                         _______ _______ _______ _____ _____    ______ ____
ROOT
ATOM      1  N   UNL     1       3.547   6.251  17.846  0.00  0.00    +0.000 N 
ATOM      2  C   UNL     1       3.069   7.575  17.865  0.00  0.00    +0.000 C 
ATOM      3  O   UNL     1       3.319   8.471  17.073  0.00  0.00    +0.000 OA
ATOM      4  C   UNL     1       2.163   7.683  19.100  0.00  0.00    +0.000 C 
ATOM      5  C   UNL     1       1.473   8.813  19.410  0.00  0.00    +0.000 C 
ATOM      6  N   UNL     1       1.425  10.072  18.796  0.00  0.00    +0.000 N 
ATOM      7  C   UNL     1       0.702  10.984  19.572  0.00  0.00    +0.000 A 
ATOM      8  C   UNL     1       0.391  12.315  19.339  0.00  0.00    +0.000 A 
ATOM      9  C   UNL     1      -0.434  13.004  20.260  0.00  0.00    +0.000 A 
ATOM     10  C   UNL     1      -0.953  12.368  21.397  0.00  0.00    +0.000 A 
ATOM     11  C   UNL     1      -0.658  11.030  21.616  0.00  0.00    +0.000 A 
ATOM     12  C   UNL     1       0.147  10.366  20.696  0.00  0.00    +0.000 A 
ATOM     13  C   UNL     1       0.536   8.948  20.634  0.00  0.00    +0.000 C 
ATOM     14  N   UNL     1       0.156   7.990  21.408  0.00  0.00    +0.000 NA
ATOM     15  C   UNL     1       2.239   6.333  19.747  0.00  0.00    +0.000 A 
ATOM     16  C   UNL     1       1.757   5.759  20.916  0.00  0.00    +0.000 A 
ATOM     17  C   UNL     1       1.984   4.414  21.224  0.00  0.00    +0.000 A 
ATOM     18  C   UNL     1       2.752   3.624  20.382  0.00  0.00    +0.000 A 
ATOM     19  C   UNL     1       3.302   4.185  19.234  0.00  0.00    +0.000 A 
ATOM     20  C   UNL     1       3.041   5.526  18.937  0.00  0.00    +0.000 A 
ATOM     21  H   UNL     1       2.033  10.306  18.017  0.00  0.00    +0.000 HD
ENDROOT
BRANCH  14  22
ATOM     22  O   UNL     1      -0.618   8.362  22.490  0.00  0.00    +0.000 OA
ATOM     23  H   UNL     1      -0.919   7.499  22.826  0.00  0.00    +0.000 HD
ENDBRANCH  14  22
BRANCH   1  24
ATOM     24  C   UNL     1       4.492   5.655  16.896  0.00  0.00    +0.000 C 
BRANCH  24  25
ATOM     25  C   UNL     1       5.939   6.161  17.089  0.00  0.00    +0.000 C 
BRANCH  25  26
ATOM     26  C   UNL     1       6.973   5.367  16.260  0.00  0.00    +0.000 C 
BRANCH  26  27
ATOM     27  C   UNL     1       6.314   4.207  15.493  0.00  0.00    +0.000 C 
BRANCH  27  28
ATOM     28  C   UNL     1       6.495   4.330  13.972  0.00  0.00    +0.000 C 
BRANCH  28  29
ATOM     29  C   UNL     1       5.175   4.104  13.226  0.00  0.00    +0.000 C 
BRANCH  29  31
ATOM     30  O   UNL     1       4.457   2.920  11.221  0.00  0.00    +0.000 OA
ATOM     31  C   UNL     1       5.305   3.107  12.090  0.00  0.00    +0.000 C 
ATOM     32  N   UNL     1       6.487   2.404  12.115  0.00  0.00    +0.000 N 
ATOM     33  H   UNL     1       7.257   2.576  12.750  0.00  0.00    +0.000 HD
BRANCH  32  34
ATOM     34  O   UNL     1       6.706   1.484  11.068  0.00  0.00    +0.000 OA
ATOM     35  H   UNL     1       5.875   0.958  11.073  0.00  0.00    +0.000 HD
ENDBRANCH  32  34
ENDBRANCH  29  31
ENDBRANCH  28  29
ENDBRANCH  27  28
ENDBRANCH  26  27
ENDBRANCH  25  26
ENDBRANCH  24  25
ENDBRANCH   1  24
TORSDOF 9
ENDMDL
MODEL 5
REMARK VINA RESULT:      -8.0      2.332      4.716
REMARK  Name = 
REMARK  9 active torsions:
REMARK  status: ('A' for Active; 'I' for Inactive)
REMARK    1  A    between atoms: C_2  and  C_3
REMARK    2  A    between atoms: C_3  and  C_4
REMARK    3  A    between atoms: C_4  and  C_5
REMARK    4  A    between atoms: C_5  and  C_6
REMARK    5  A    between atoms: C_6  and  C_7
REMARK    6  A    between atoms: C_7  and  C_8
REMARK    7  A    between atoms: C_8  and  N_9
REMARK    8  A    between atoms: N_22  and  O_23
REMARK    9  A    between atoms: N_30  and  O_31
REMARK                            x       y       z     vdW  Elec       q    Type
REMARK                         _______ _______ _______ _____ _____    ______ ____
ROOT
ATOM      1  N   UNL     1       4.589   4.535  18.901  0.00  0.00    +0.000 N 
ATOM      2  C   UNL     1       3.685   5.192  19.757  0.00  0.00    +0.000 C 
ATOM      3  O   UNL     1       3.293   4.825  20.854  0.00  0.00    +0.000 OA
ATOM      4  C   UNL     1       3.269   6.479  19.030  0.00  0.00    +0.000 C 
ATOM      5  C   UNL     1       2.441   7.403  19.586  0.00  0.00    +0.000 C 
ATOM      6  N   UNL     1       1.768   7.431  20.816  0.00  0.00    +0.000 N 
ATOM      7  C   UNL     1       0.887   8.514  20.884  0.00  0.00    +0.000 A 
ATOM      8  C   UNL     1       0.051   8.930  21.909  0.00  0.00    +0.000 A 
ATOM      9  C   UNL     1      -0.694  10.123  21.754  0.00  0.00    +0.000 A 
ATOM     10  C   UNL     1      -0.596  10.902  20.592  0.00  0.00    +0.000 A 
ATOM     11  C   UNL     1       0.259  10.496  19.576  0.00  0.00    +0.000 A 
ATOM     12  C   UNL     1       0.990   9.324  19.750  0.00  0.00    +0.000 A 
ATOM     13  C   UNL     1       2.019   8.720  18.890  0.00  0.00    +0.000 C 
ATOM     14  N   UNL     1       2.512   9.191  17.797  0.00  0.00    +0.000 NA
ATOM     15  C   UNL     1       3.987   6.423  17.716  0.00  0.00    +0.000 A 
ATOM     16  C   UNL     1       4.007   7.189  16.557  0.00  0.00    +0.000 A 
ATOM     17  C   UNL     1       4.844   6.874  15.482  0.00  0.00    +0.000 A 
ATOM     18  C   UNL     1       5.648   5.745  15.527  0.00  0.00    +0.000 A 
ATOM     19  C   UNL     1       5.605   4.923  16.649  0.00  0.00    +0.000 A 
ATOM     20  C   UNL     1       4.777   5.271  17.720  0.00  0.00    +0.000 A 
ATOM     21  H   UNL     1       1.779   6.633  21.444  0.00  0.00    +0.000 HD
ENDROOT
BRANCH  14  22
ATOM     22  O   UNL     1       1.921  10.345  17.319  0.00  0.00    +0.000 OA
ATOM     23  H   UNL     1       2.481  10.551  16.549  0.00  0.00    +0.000 HD
ENDBRANCH  14  22
BRANCH   1  24
ATOM     24  C   UNL     1       5.235   3.235  19.110  0.00  0.00    +0.000 C 
BRANCH  24  25
ATOM     25  C   UNL     1       4.264   2.160  19.648  0.00  0.00    +0.000 C 
BRANCH  25  26
ATOM     26  C   UNL     1       3.516   1.406  18.526  0.00  0.00    +0.000 C 
BRANCH  26  27
ATOM     27  C   UNL     1       3.041   2.362  17.419  0.00  0.00    +0.000 C 
BRANCH  27  28
ATOM     28  C   UNL     1       1.709   3.046  17.763  0.00  0.00    +0.000 C 
BRANCH  28  29
ATOM     29  C   UNL     1       0.937   2.272  18.836  0.00  0.00    +0.000 C 
BRANCH  29  31
ATOM     30  O   UNL     1       0.356   4.103  20.335  0.00  0.00    +0.000 OA
ATOM     31  C   UNL     1       0.878   3.005  20.163  0.00  0.00    +0.000 C 
ATOM     32  N   UNL     1       1.480   2.318  21.191  0.00  0.00    +0.000 N 
ATOM     33  H   UNL     1       1.846   1.376  21.131  0.00  0.00    +0.000 HD
BRANCH  32  34
ATOM     34  O   UNL     1       1.434   2.913  22.470  0.00  0.00    +0.000 OA
ATOM     35  H   UNL     1       2.112   3.621  22.397  0.00  0.00    +0.000 HD
ENDBRANCH  32  34
ENDBRANCH  29  31
ENDBRANCH  28  29
ENDBRANCH  27  28
ENDBRANCH  26  27
ENDBRANCH  25  26
ENDBRANCH  24  25
ENDBRANCH   1  24
TORSDOF 9
ENDMDL
MODEL 6
REMARK VINA RESULT:      -8.0      3.684      8.886
REMARK  Name = 
REMARK  9 active torsions:
REMARK  status: ('A' for Active; 'I' for Inactive)
REMARK    1  A    between atoms: C_2  and  C_3
REMARK    2  A    between atoms: C_3  and  C_4
REMARK    3  A    between atoms: C_4  and  C_5
REMARK    4  A    between atoms: C_5  and  C_6
REMARK    5  A    between atoms: C_6  and  C_7
REMARK    6  A    between atoms: C_7  and  C_8
REMARK    7  A    between atoms: C_8  and  N_9
REMARK    8  A    between atoms: N_22  and  O_23
REMARK    9  A    between atoms: N_30  and  O_31
REMARK                            x       y       z     vdW  Elec       q    Type
REMARK                         _______ _______ _______ _____ _____    ______ ____
ROOT
ATOM      1  N   UNL     1       0.780  11.081  19.154  0.00  0.00    +0.000 N 
ATOM      2  C   UNL     1       1.580  10.197  18.406  0.00  0.00    +0.000 C 
ATOM      3  O   UNL     1       2.107  10.400  17.323  0.00  0.00    +0.000 OA
ATOM      4  C   UNL     1       1.659   8.900  19.223  0.00  0.00    +0.000 C 
ATOM      5  C   UNL     1       2.403   7.830  18.835  0.00  0.00    +0.000 C 
ATOM      6  N   UNL     1       3.186   7.605  17.694  0.00  0.00    +0.000 N 
ATOM      7  C   UNL     1       3.634   6.281  17.644  0.00  0.00    +0.000 A 
ATOM      8  C   UNL     1       4.442   5.640  16.716  0.00  0.00    +0.000 A 
ATOM      9  C   UNL     1       4.817   4.294  16.939  0.00  0.00    +0.000 A 
ATOM     10  C   UNL     1       4.402   3.597  18.083  0.00  0.00    +0.000 A 
ATOM     11  C   UNL     1       3.612   4.248  19.021  0.00  0.00    +0.000 A 
ATOM     12  C   UNL     1       3.259   5.574  18.789  0.00  0.00    +0.000 A 
ATOM     13  C   UNL     1       2.520   6.516  19.645  0.00  0.00    +0.000 C 
ATOM     14  N   UNL     1       2.084   6.321  20.841  0.00  0.00    +0.000 NA
ATOM     15  C   UNL     1       0.806   9.156  20.428  0.00  0.00    +0.000 A 
ATOM     16  C   UNL     1       0.365   8.411  21.515  0.00  0.00    +0.000 A 
ATOM     17  C   UNL     1      -0.423   8.976  22.523  0.00  0.00    +0.000 A 
ATOM     18  C   UNL     1      -0.830  10.299  22.434  0.00  0.00    +0.000 A 
ATOM     19  C   UNL     1      -0.456  11.055  21.328  0.00  0.00    +0.000 A 
ATOM     20  C   UNL     1       0.350  10.473  20.345  0.00  0.00    +0.000 A 
ATOM     21  H   UNL     1       3.209   8.270  16.927  0.00  0.00    +0.000 HD
ENDROOT
BRANCH  14  22
ATOM     22  O   UNL     1       2.229   5.038  21.333  0.00  0.00    +0.000 OA
ATOM     23  H   UNL     1       3.196   4.967  21.422  0.00  0.00    +0.000 HD
ENDBRANCH  14  22
BRANCH   1  24
ATOM     24  C   UNL     1       0.358  12.437  18.784  0.00  0.00    +0.000 C 
BRANCH  24  25
ATOM     25  C   UNL     1      -1.098  12.492  18.269  0.00  0.00    +0.000 C 
BRANCH  25  26
ATOM     26  C   UNL     1      -1.553  11.176  17.601  0.00  0.00    +0.000 C 
BRANCH  26  27
ATOM     27  C   UNL     1      -2.860  10.649  18.219  0.00  0.00    +0.000 C 
BRANCH  27  28
ATOM     28  C   UNL     1      -4.024  10.641  17.216  0.00  0.00    +0.000 C 
BRANCH  28  29
ATOM     29  C   UNL     1      -5.070  11.709  17.555  0.00  0.00    +0.000 C 
BRANCH  29  31
ATOM     30  O   UNL     1      -5.688  11.896  19.904  0.00  0.00    +0.000 OA
ATOM     31  C   UNL     1      -5.865  11.378  18.804  0.00  0.00    +0.000 C 
ATOM     32  N   UNL     1      -6.827  10.419  18.599  0.00  0.00    +0.000 N 
ATOM     33  H   UNL     1      -7.078  10.023  17.701  0.00  0.00    +0.000 HD
BRANCH  32  34
ATOM     34  O   UNL     1      -7.640  10.082  19.702  0.00  0.00    +0.000 OA
ATOM     35  H   UNL     1      -7.073  10.334  20.465  0.00  0.00    +0.000 HD
ENDBRANCH  32  34
ENDBRANCH  29  31
ENDBRANCH  28  29
ENDBRANCH  27  28
ENDBRANCH  26  27
ENDBRANCH  25  26
ENDBRANCH  24  25
ENDBRANCH   1  24
TORSDOF 9
ENDMDL
MODEL 7
REMARK VINA RESULT:      -7.9      2.230      4.769
REMARK  Name = 
REMARK  9 active torsions:
REMARK  status: ('A' for Active; 'I' for Inactive)
REMARK    1  A    between atoms: C_2  and  C_3
REMARK    2  A    between atoms: C_3  and  C_4
REMARK    3  A    between atoms: C_4  and  C_5
REMARK    4  A    between atoms: C_5  and  C_6
REMARK    5  A    between atoms: C_6  and  C_7
REMARK    6  A    between atoms: C_7  and  C_8
REMARK    7  A    between atoms: C_8  and  N_9
REMARK    8  A    between atoms: N_22  and  O_23
REMARK    9  A    between atoms: N_30  and  O_31
REMARK                            x       y       z     vdW  Elec       q    Type
REMARK                         _______ _______ _______ _____ _____    ______ ____
ROOT
ATOM      1  N   UNL     1       1.746   6.592  20.462  0.00  0.00    +0.000 N 
ATOM      2  C   UNL     1       1.006   7.716  20.875  0.00  0.00    +0.000 C 
ATOM      3  O   UNL     1       0.226   7.794  21.812  0.00  0.00    +0.000 OA
ATOM      4  C   UNL     1       1.366   8.845  19.899  0.00  0.00    +0.000 C 
ATOM      5  C   UNL     1       0.881  10.109  20.025  0.00  0.00    +0.000 C 
ATOM      6  N   UNL     1      -0.016  10.675  20.942  0.00  0.00    +0.000 N 
ATOM      7  C   UNL     1      -0.353  11.982  20.575  0.00  0.00    +0.000 A 
ATOM      8  C   UNL     1      -1.179  12.905  21.199  0.00  0.00    +0.000 A 
ATOM      9  C   UNL     1      -1.294  14.208  20.656  0.00  0.00    +0.000 A 
ATOM     10  C   UNL     1      -0.583  14.589  19.509  0.00  0.00    +0.000 A 
ATOM     11  C   UNL     1       0.260  13.669  18.900  0.00  0.00    +0.000 A 
ATOM     12  C   UNL     1       0.367  12.397  19.453  0.00  0.00    +0.000 A 
ATOM     13  C   UNL     1       1.240  11.275  19.072  0.00  0.00    +0.000 C 
ATOM     14  N   UNL     1       2.150  11.256  18.160  0.00  0.00    +0.000 NA
ATOM     15  C   UNL     1       2.312   8.217  18.922  0.00  0.00    +0.000 A 
ATOM     16  C   UNL     1       2.950   8.615  17.753  0.00  0.00    +0.000 A 
ATOM     17  C   UNL     1       3.830   7.770  17.071  0.00  0.00    +0.000 A 
ATOM     18  C   UNL     1       4.052   6.477  17.523  0.00  0.00    +0.000 A 
ATOM     19  C   UNL     1       3.381   6.027  18.656  0.00  0.00    +0.000 A 
ATOM     20  C   UNL     1       2.524   6.899  19.333  0.00  0.00    +0.000 A 
ATOM     21  H   UNL     1      -0.501  10.107  21.630  0.00  0.00    +0.000 HD
ENDROOT
BRANCH  14  22
ATOM     22  O   UNL     1       2.237  12.388  17.373  0.00  0.00    +0.000 OA
ATOM     23  H   UNL     1       2.810  12.962  17.912  0.00  0.00    +0.000 HD
ENDBRANCH  14  22
BRANCH   1  24
ATOM     24  C   UNL     1       1.717   5.242  21.035  0.00  0.00    +0.000 C 
BRANCH  24  25
ATOM     25  C   UNL     1       0.723   4.304  20.313  0.00  0.00    +0.000 C 
BRANCH  25  26
ATOM     26  C   UNL     1       1.182   2.829  20.305  0.00  0.00    +0.000 C 
BRANCH  26  27
ATOM     27  C   UNL     1       0.873   2.147  18.961  0.00  0.00    +0.000 C 
BRANCH  27  28
ATOM     28  C   UNL     1       1.972   2.383  17.915  0.00  0.00    +0.000 C 
BRANCH  28  29
ATOM     29  C   UNL     1       3.335   1.879  18.402  0.00  0.00    +0.000 C 
BRANCH  29  31
ATOM     30  O   UNL     1       4.664   3.238  16.879  0.00  0.00    +0.000 OA
ATOM     31  C   UNL     1       4.477   2.797  18.010  0.00  0.00    +0.000 C 
ATOM     32  N   UNL     1       5.315   3.101  19.056  0.00  0.00    +0.000 N 
ATOM     33  H   UNL     1       5.162   2.841  20.024  0.00  0.00    +0.000 HD
BRANCH  32  34
ATOM     34  O   UNL     1       6.381   3.984  18.785  0.00  0.00    +0.000 OA
ATOM     35  H   UNL     1       6.206   4.246  17.854  0.00  0.00    +0.000 HD
ENDBRANCH  32  34
ENDBRANCH  29  31
ENDBRANCH  28  29
ENDBRANCH  27  28
ENDBRANCH  26  27
ENDBRANCH  25  26
ENDBRANCH  24  25
ENDBRANCH   1  24
TORSDOF 9
ENDMDL
MODEL 8
REMARK VINA RESULT:      -7.9      3.771      8.794
REMARK  Name = 
REMARK  9 active torsions:
REMARK  status: ('A' for Active; 'I' for Inactive)
REMARK    1  A    between atoms: C_2  and  C_3
REMARK    2  A    between atoms: C_3  and  C_4
REMARK    3  A    between atoms: C_4  and  C_5
REMARK    4  A    between atoms: C_5  and  C_6
REMARK    5  A    between atoms: C_6  and  C_7
REMARK    6  A    between atoms: C_7  and  C_8
REMARK    7  A    between atoms: C_8  and  N_9
REMARK    8  A    between atoms: N_22  and  O_23
REMARK    9  A    between atoms: N_30  and  O_31
REMARK                            x       y       z     vdW  Elec       q    Type
REMARK                         _______ _______ _______ _____ _____    ______ ____
ROOT
ATOM      1  N   UNL     1       0.731  10.968  19.156  0.00  0.00    +0.000 N 
ATOM      2  C   UNL     1       1.529  10.082  18.409  0.00  0.00    +0.000 C 
ATOM      3  O   UNL     1       2.030  10.271  17.311  0.00  0.00    +0.000 OA
ATOM      4  C   UNL     1       1.645   8.802  19.249  0.00  0.00    +0.000 C 
ATOM      5  C   UNL     1       2.398   7.736  18.866  0.00  0.00    +0.000 C 
ATOM      6  N   UNL     1       3.160   7.500  17.714  0.00  0.00    +0.000 N 
ATOM      7  C   UNL     1       3.628   6.183  17.679  0.00  0.00    +0.000 A 
ATOM      8  C   UNL     1       4.426   5.537  16.748  0.00  0.00    +0.000 A 
ATOM      9  C   UNL     1       4.828   4.201  16.989  0.00  0.00    +0.000 A 
ATOM     10  C   UNL     1       4.447   3.521  18.154  0.00  0.00    +0.000 A 
ATOM     11  C   UNL     1       3.667   4.178  19.096  0.00  0.00    +0.000 A 
ATOM     12  C   UNL     1       3.289   5.493  18.846  0.00  0.00    +0.000 A 
ATOM     13  C   UNL     1       2.553   6.440  19.699  0.00  0.00    +0.000 C 
ATOM     14  N   UNL     1       2.145   6.263  20.908  0.00  0.00    +0.000 NA
ATOM     15  C   UNL     1       0.814   9.069  20.467  0.00  0.00    +0.000 A 
ATOM     16  C   UNL     1       0.408   8.339  21.577  0.00  0.00    +0.000 A 
ATOM     17  C   UNL     1      -0.367   8.912  22.591  0.00  0.00    +0.000 A 
ATOM     18  C   UNL     1      -0.797  10.226  22.485  0.00  0.00    +0.000 A 
ATOM     19  C   UNL     1      -0.459  10.965  21.356  0.00  0.00    +0.000 A 
ATOM     20  C   UNL     1       0.336  10.377  20.367  0.00  0.00    +0.000 A 
ATOM     21  H   UNL     1       3.157   8.150  16.933  0.00  0.00    +0.000 HD
ENDROOT
BRANCH  14  22
ATOM     22  O   UNL     1       2.321   4.992  21.421  0.00  0.00    +0.000 OA
ATOM     23  H   UNL     1       1.417   4.763  21.700  0.00  0.00    +0.000 HD
ENDBRANCH  14  22
BRANCH   1  24
ATOM     24  C   UNL     1       0.280  12.309  18.769  0.00  0.00    +0.000 C 
BRANCH  24  25
ATOM     25  C   UNL     1      -1.181  12.329  18.265  0.00  0.00    +0.000 C 
BRANCH  25  26
ATOM     26  C   UNL     1      -1.730  10.920  17.949  0.00  0.00    +0.000 C 
BRANCH  26  27
ATOM     27  C   UNL     1      -2.228  10.818  16.497  0.00  0.00    +0.000 C 
BRANCH  27  28
ATOM     28  C   UNL     1      -3.761  10.808  16.400  0.00  0.00    +0.000 C 
BRANCH  28  29
ATOM     29  C   UNL     1      -4.413  10.598  17.771  0.00  0.00    +0.000 C 
BRANCH  29  31
ATOM     30  O   UNL     1      -6.687  11.446  17.983  0.00  0.00    +0.000 OA
ATOM     31  C   UNL     1      -5.477  11.634  18.081  0.00  0.00    +0.000 C 
ATOM     32  N   UNL     1      -4.960  12.840  18.490  0.00  0.00    +0.000 N 
ATOM     33  H   UNL     1      -3.981  13.026  18.674  0.00  0.00    +0.000 HD
BRANCH  32  34
ATOM     34  O   UNL     1      -5.885  13.847  18.838  0.00  0.00    +0.000 OA
ATOM     35  H   UNL     1      -6.739  13.459  18.544  0.00  0.00    +0.000 HD
ENDBRANCH  32  34
ENDBRANCH  29  31
ENDBRANCH  28  29
ENDBRANCH  27  28
ENDBRANCH  26  27
ENDBRANCH  25  26
ENDBRANCH  24  25
ENDBRANCH   1  24
TORSDOF 9
ENDMDL
MODEL 9
REMARK VINA RESULT:      -7.9      1.419      1.598
REMARK  Name = 
REMARK  9 active torsions:
REMARK  status: ('A' for Active; 'I' for Inactive)
REMARK    1  A    between atoms: C_2  and  C_3
REMARK    2  A    between atoms: C_3  and  C_4
REMARK    3  A    between atoms: C_4  and  C_5
REMARK    4  A    between atoms: C_5  and  C_6
REMARK    5  A    between atoms: C_6  and  C_7
REMARK    6  A    between atoms: C_7  and  C_8
REMARK    7  A    between atoms: C_8  and  N_9
REMARK    8  A    between atoms: N_22  and  O_23
REMARK    9  A    between atoms: N_30  and  O_31
REMARK                            x       y       z     vdW  Elec       q    Type
REMARK                         _______ _______ _______ _____ _____    ______ ____
ROOT
ATOM      1  N   UNL     1       3.895   4.751  17.838  0.00  0.00    +0.000 N 
ATOM      2  C   UNL     1       3.661   6.120  17.611  0.00  0.00    +0.000 C 
ATOM      3  O   UNL     1       4.089   6.809  16.697  0.00  0.00    +0.000 OA
ATOM      4  C   UNL     1       2.757   6.594  18.757  0.00  0.00    +0.000 C 
ATOM      5  C   UNL     1       2.273   7.862  18.836  0.00  0.00    +0.000 C 
ATOM      6  N   UNL     1       2.468   8.986  18.021  0.00  0.00    +0.000 N 
ATOM      7  C   UNL     1       1.899  10.128  18.593  0.00  0.00    +0.000 A 
ATOM      8  C   UNL     1       1.838  11.432  18.125  0.00  0.00    +0.000 A 
ATOM      9  C   UNL     1       1.126  12.402  18.871  0.00  0.00    +0.000 A 
ATOM     10  C   UNL     1       0.471  12.071  20.066  0.00  0.00    +0.000 A 
ATOM     11  C   UNL     1       0.515  10.760  20.520  0.00  0.00    +0.000 A 
ATOM     12  C   UNL     1       1.212   9.819  19.770  0.00  0.00    +0.000 A 
ATOM     13  C   UNL     1       1.342   8.366  19.966  0.00  0.00    +0.000 C 
ATOM     14  N   UNL     1       0.777   7.636  20.864  0.00  0.00    +0.000 NA
ATOM     15  C   UNL     1       2.572   5.384  19.622  0.00  0.00    +0.000 A 
ATOM     16  C   UNL     1       1.964   5.112  20.841  0.00  0.00    +0.000 A 
ATOM     17  C   UNL     1       1.939   3.822  21.379  0.00  0.00    +0.000 A 
ATOM     18  C   UNL     1       2.574   2.778  20.725  0.00  0.00    +0.000 A 
ATOM     19  C   UNL     1       3.246   3.029  19.532  0.00  0.00    +0.000 A 
ATOM     20  C   UNL     1       3.237   4.323  19.003  0.00  0.00    +0.000 A 
ATOM     21  H   UNL     1       3.128   8.973  17.249  0.00  0.00    +0.000 HD
ENDROOT
BRANCH  14  22
ATOM     22  O   UNL     1       0.053   8.318  21.824  0.00  0.00    +0.000 OA
ATOM     23  H   UNL     1      -0.035   9.199  21.419  0.00  0.00    +0.000 HD
ENDBRANCH  14  22
BRANCH   1  24
ATOM     24  C   UNL     1       4.742   3.845  17.055  0.00  0.00    +0.000 C 
BRANCH  24  25
ATOM     25  C   UNL     1       5.484   4.561  15.904  0.00  0.00    +0.000 C 
BRANCH  25  26
ATOM     26  C   UNL     1       6.957   4.882  16.242  0.00  0.00    +0.000 C 
BRANCH  26  27
ATOM     27  C   UNL     1       7.297   4.520  17.698  0.00  0.00    +0.000 C 
BRANCH  27  28
ATOM     28  C   UNL     1       6.993   5.665  18.675  0.00  0.00    +0.000 C 
BRANCH  28  29
ATOM     29  C   UNL     1       8.211   6.574  18.877  0.00  0.00    +0.000 C 
BRANCH  29  31
ATOM     30  O   UNL     1       7.437   8.074  17.120  0.00  0.00    +0.000 OA
ATOM     31  C   UNL     1       8.082   7.900  18.151  0.00  0.00    +0.000 C 
ATOM     32  N   UNL     1       8.771   8.922  18.759  0.00  0.00    +0.000 N 
ATOM     33  H   UNL     1       9.244   8.860  19.653  0.00  0.00    +0.000 HD
BRANCH  32  34
ATOM     34  O   UNL     1       8.670  10.200  18.170  0.00  0.00    +0.000 OA
ATOM     35  H   UNL     1       8.434   9.985  17.240  0.00  0.00    +0.000 HD
ENDBRANCH  32  34
ENDBRANCH  29  31
ENDBRANCH  28  29
ENDBRANCH  27  28
ENDBRANCH  26  27
ENDBRANCH  25  26
ENDBRANCH  24  25
ENDBRANCH   1  24
TORSDOF 9
ENDMDL
