MODEL 1
REMARK VINA RESULT:      -8.0      0.000      0.000
REMARK  Name = 
REMARK  8 active torsions:
REMARK  status: ('A' for Active; 'I' for Inactive)
REMARK    1  A    between atoms: C_1  and  O_2
REMARK    2  A    between atoms: O_2  and  C_3
REMARK    3  A    between atoms: C_6  and  C_7
REMARK    4  A    between atoms: C_12  and  C_14
REMARK    5  A    between atoms: C_14  and  O_15
REMARK    6  A    between atoms: O_15  and  C_16
REMARK    7  A    between atoms: C_21  and  O_22
REMARK    8  A    between atoms: O_22  and  C_23
REMARK                            x       y       z     vdW  Elec       q    Type
REMARK                         _______ _______ _______ _____ _____    ______ ____
ROOT
ATOM      1  C   UNL     1       4.562   3.967  18.117  0.00  0.00    +0.000 A 
ATOM      2  N   UNL     1       4.015   3.247  17.124  0.00  0.00    +0.000 NA
ATOM      3  S   UNL     1       2.973   2.148  17.825  0.00  0.00    +0.000 S 
ATOM      4  C   UNL     1       3.281   2.728  19.396  0.00  0.00    +0.000 A 
ATOM      5  N   UNL     1       2.513   2.234  20.413  0.00  0.00    +0.000 N 
ATOM      6  C   UNL     1       1.736   3.105  21.146  0.00  0.00    +0.000 C 
ATOM      7  O   UNL     1       1.391   2.785  22.285  0.00  0.00    +0.000 OA
ATOM      8  N   UNL     1       4.167   3.684  19.436  0.00  0.00    +0.000 NA
ATOM      9  H   UNL     1       2.984   1.590  21.036  0.00  0.00    +0.000 HD
ENDROOT
BRANCH   1  13
ATOM     10  C   UNL     1       7.342   7.156  17.450  0.00  0.00    +0.000 A 
ATOM     11  C   UNL     1       6.254   6.989  16.596  0.00  0.00    +0.000 A 
ATOM     12  C   UNL     1       5.341   5.941  16.804  0.00  0.00    +0.000 A 
ATOM     13  C   UNL     1       5.523   5.043  17.862  0.00  0.00    +0.000 A 
ATOM     14  C   UNL     1       6.642   5.197  18.687  0.00  0.00    +0.000 A 
ATOM     15  C   UNL     1       7.546   6.244  18.484  0.00  0.00    +0.000 A 
BRANCH  10  17
ATOM     16  C   UNL     1       8.212   9.221  18.180  0.00  0.00    +0.000 C 
ATOM     17  O   UNL     1       8.159   8.217  17.171  0.00  0.00    +0.000 OA
ENDBRANCH  10  17
ENDBRANCH   1  13
BRANCH   6  18
ATOM     18  C   UNL     1       1.219   4.380  20.469  0.00  0.00    +0.000 C 
BRANCH  18  19
ATOM     19  O   UNL     1       1.938   5.544  20.867  0.00  0.00    +0.000 OA
BRANCH  19  20
ATOM     20  C   UNL     1       1.869   6.630  20.024  0.00  0.00    +0.000 A 
ATOM     21  C   UNL     1       2.208   6.542  18.659  0.00  0.00    +0.000 A 
ATOM     22  C   UNL     1       2.210   7.663  17.827  0.00  0.00    +0.000 A 
ATOM     23  C   UNL     1       1.834   8.895  18.334  0.00  0.00    +0.000 A 
ATOM     24  C   UNL     1       1.448   8.993  19.667  0.00  0.00    +0.000 A 
ATOM     25  C   UNL     1       1.458   7.879  20.525  0.00  0.00    +0.000 A 
BRANCH  25  26
ATOM     26  O   UNL     1       1.045   8.228  21.783  0.00  0.00    +0.000 OA
ATOM     27  C   UNL     1       0.583   9.540  22.039  0.00  0.00    +0.000 C 
ENDBRANCH  25  26
ENDBRANCH  19  20
ENDBRANCH  18  19
ENDBRANCH   6  18
TORSDOF 6
ENDMDL
MODEL 2
REMARK VINA RESULT:      -7.1      1.687      2.225
REMARK  Name = 
REMARK  8 active torsions:
REMARK  status: ('A' for Active; 'I' for Inactive)
REMARK    1  A    between atoms: C_1  and  O_2
REMARK    2  A    between atoms: O_2  and  C_3
REMARK    3  A    between atoms: C_6  and  C_7
REMARK    4  A    between atoms: C_12  and  C_14
REMARK    5  A    between atoms: C_14  and  O_15
REMARK    6  A    between atoms: O_15  and  C_16
REMARK    7  A    between atoms: C_21  and  O_22
REMARK    8  A    between atoms: O_22  and  C_23
REMARK                            x       y       z     vdW  Elec       q    Type
REMARK                         _______ _______ _______ _____ _____    ______ ____
ROOT
ATOM      1  C   UNL     1       3.819   3.109  17.513  0.00  0.00    +0.000 A 
ATOM      2  N   UNL     1       2.791   2.462  16.940  0.00  0.00    +0.000 NA
ATOM      3  S   UNL     1       1.851   1.838  18.169  0.00  0.00    +0.000 S 
ATOM      4  C   UNL     1       2.842   2.504  19.382  0.00  0.00    +0.000 A 
ATOM      5  N   UNL     1       2.408   2.410  20.675  0.00  0.00    +0.000 N 
ATOM      6  C   UNL     1       2.186   3.567  21.389  0.00  0.00    +0.000 C 
ATOM      7  O   UNL     1       2.219   3.525  22.621  0.00  0.00    +0.000 OA
ATOM      8  N   UNL     1       3.881   3.141  18.917  0.00  0.00    +0.000 NA
ATOM      9  H   UNL     1       2.908   1.743  21.250  0.00  0.00    +0.000 HD
ENDROOT
BRANCH   1  13
ATOM     10  C   UNL     1       6.842   5.035  15.169  0.00  0.00    +0.000 A 
ATOM     11  C   UNL     1       6.975   4.960  16.554  0.00  0.00    +0.000 A 
ATOM     12  C   UNL     1       5.985   4.335  17.331  0.00  0.00    +0.000 A 
ATOM     13  C   UNL     1       4.844   3.796  16.725  0.00  0.00    +0.000 A 
ATOM     14  C   UNL     1       4.703   3.915  15.338  0.00  0.00    +0.000 A 
ATOM     15  C   UNL     1       5.692   4.530  14.565  0.00  0.00    +0.000 A 
BRANCH  10  17
ATOM     16  C   UNL     1       7.962   5.338  13.118  0.00  0.00    +0.000 C 
ATOM     17  O   UNL     1       7.870   5.646  14.506  0.00  0.00    +0.000 OA
ENDBRANCH  10  17
ENDBRANCH   1  13
BRANCH   6  18
ATOM     18  C   UNL     1       1.776   4.835  20.631  0.00  0.00    +0.000 C 
BRANCH  18  19
ATOM     19  O   UNL     1       2.878   5.697  20.363  0.00  0.00    +0.000 OA
BRANCH  19  20
ATOM     20  C   UNL     1       2.639   6.761  19.524  0.00  0.00    +0.000 A 
ATOM     21  C   UNL     1       3.150   6.810  18.211  0.00  0.00    +0.000 A 
ATOM     22  C   UNL     1       2.968   7.925  17.392  0.00  0.00    +0.000 A 
ATOM     23  C   UNL     1       2.237   9.006  17.854  0.00  0.00    +0.000 A 
ATOM     24  C   UNL     1       1.683   8.956  19.130  0.00  0.00    +0.000 A 
ATOM     25  C   UNL     1       1.871   7.849  19.977  0.00  0.00    +0.000 A 
BRANCH  25  26
ATOM     26  O   UNL     1       1.236   8.038  21.175  0.00  0.00    +0.000 OA
ATOM     27  C   UNL     1       0.856   9.339  21.579  0.00  0.00    +0.000 C 
ENDBRANCH  25  26
ENDBRANCH  19  20
ENDBRANCH  18  19
ENDBRANCH   6  18
TORSDOF 6
ENDMDL
MODEL 3
REMARK VINA RESULT:      -7.0      1.838      2.900
REMARK  Name = 
REMARK  8 active torsions:
REMARK  status: ('A' for Active; 'I' for Inactive)
REMARK    1  A    between atoms: C_1  and  O_2
REMARK    2  A    between atoms: O_2  and  C_3
REMARK    3  A    between atoms: C_6  and  C_7
REMARK    4  A    between atoms: C_12  and  C_14
REMARK    5  A    between atoms: C_14  and  O_15
REMARK    6  A    between atoms: O_15  and  C_16
REMARK    7  A    between atoms: C_21  and  O_22
REMARK    8  A    between atoms: O_22  and  C_23
REMARK                            x       y       z     vdW  Elec       q    Type
REMARK                         _______ _______ _______ _____ _____    ______ ____
ROOT
ATOM      1  C   UNL     1       4.024   3.074  17.568  0.00  0.00    +0.000 A 
ATOM      2  N   UNL     1       3.068   2.305  17.022  0.00  0.00    +0.000 NA
ATOM      3  S   UNL     1       2.134   1.714  18.272  0.00  0.00    +0.000 S 
ATOM      4  C   UNL     1       3.031   2.551  19.452  0.00  0.00    +0.000 A 
ATOM      5  N   UNL     1       2.560   2.531  20.735  0.00  0.00    +0.000 N 
ATOM      6  C   UNL     1       2.228   3.722  21.343  0.00  0.00    +0.000 C 
ATOM      7  O   UNL     1       2.220   3.784  22.574  0.00  0.00    +0.000 OA
ATOM      8  N   UNL     1       4.035   3.226  18.965  0.00  0.00    +0.000 NA
ATOM      9  H   UNL     1       3.087   1.954  21.379  0.00  0.00    +0.000 HD
ENDROOT
BRANCH   1  13
ATOM     10  C   UNL     1       6.960   5.031  15.140  0.00  0.00    +0.000 A 
ATOM     11  C   UNL     1       7.201   4.825  16.497  0.00  0.00    +0.000 A 
ATOM     12  C   UNL     1       6.241   4.190  17.302  0.00  0.00    +0.000 A 
ATOM     13  C   UNL     1       5.023   3.771  16.754  0.00  0.00    +0.000 A 
ATOM     14  C   UNL     1       4.777   4.021  15.400  0.00  0.00    +0.000 A 
ATOM     15  C   UNL     1       5.736   4.646  14.597  0.00  0.00    +0.000 A 
BRANCH  10  17
ATOM     16  C   UNL     1       8.011   5.336  13.053  0.00  0.00    +0.000 C 
ATOM     17  O   UNL     1       7.967   5.641  14.444  0.00  0.00    +0.000 OA
ENDBRANCH  10  17
ENDBRANCH   1  13
BRANCH   6  18
ATOM     18  C   UNL     1       1.751   4.888  20.468  0.00  0.00    +0.000 C 
BRANCH  18  19
ATOM     19  O   UNL     1       2.687   5.961  20.425  0.00  0.00    +0.000 OA
BRANCH  19  20
ATOM     20  C   UNL     1       2.245   7.142  19.874  0.00  0.00    +0.000 A 
ATOM     21  C   UNL     1       1.483   8.074  20.608  0.00  0.00    +0.000 A 
ATOM     22  C   UNL     1       0.974   9.233  20.021  0.00  0.00    +0.000 A 
ATOM     23  C   UNL     1       1.247   9.508  18.692  0.00  0.00    +0.000 A 
ATOM     24  C   UNL     1       2.038   8.625  17.964  0.00  0.00    +0.000 A 
ATOM     25  C   UNL     1       2.545   7.443  18.532  0.00  0.00    +0.000 A 
BRANCH  25  26
ATOM     26  O   UNL     1       3.286   6.741  17.619  0.00  0.00    +0.000 OA
ATOM     27  C   UNL     1       4.465   7.304  17.079  0.00  0.00    +0.000 C 
ENDBRANCH  25  26
ENDBRANCH  19  20
ENDBRANCH  18  19
ENDBRANCH   6  18
TORSDOF 6
ENDMDL
MODEL 4
REMARK VINA RESULT:      -7.0      0.872      1.805
REMARK  Name = 
REMARK  8 active torsions:
REMARK  status: ('A' for Active; 'I' for Inactive)
REMARK    1  A    between atoms: C_1  and  O_2
REMARK    2  A    between atoms: O_2  and  C_3
REMARK    3  A    between atoms: C_6  and  C_7
REMARK    4  A    between atoms: C_12  and  C_14
REMARK    5  A    between atoms: C_14  and  O_15
REMARK    6  A    between atoms: O_15  and  C_16
REMARK    7  A    between atoms: C_21  and  O_22
REMARK    8  A    between atoms: O_22  and  C_23
REMARK                            x       y       z     vdW  Elec       q    Type
REMARK                         _______ _______ _______ _____ _____    ______ ____
ROOT
ATOM      1  C   UNL     1       4.284   3.787  18.086  0.00  0.00    +0.000 A 
ATOM      2  N   UNL     1       3.614   3.157  17.107  0.00  0.00    +0.000 NA
ATOM      3  S   UNL     1       2.502   2.149  17.837  0.00  0.00    +0.000 S 
ATOM      4  C   UNL     1       2.951   2.647  19.402  0.00  0.00    +0.000 A 
ATOM      5  N   UNL     1       2.190   2.204  20.448  0.00  0.00    +0.000 N 
ATOM      6  C   UNL     1       1.548   3.127  21.244  0.00  0.00    +0.000 C 
ATOM      7  O   UNL     1       1.232   2.810  22.393  0.00  0.00    +0.000 OA
ATOM      8  N   UNL     1       3.932   3.506  19.417  0.00  0.00    +0.000 NA
ATOM      9  H   UNL     1       2.624   1.496  21.028  0.00  0.00    +0.000 HD
ENDROOT
BRANCH   1  13
ATOM     10  C   UNL     1       7.314   6.714  17.314  0.00  0.00    +0.000 A 
ATOM     11  C   UNL     1       6.487   6.278  16.282  0.00  0.00    +0.000 A 
ATOM     12  C   UNL     1       5.494   5.313  16.525  0.00  0.00    +0.000 A 
ATOM     13  C   UNL     1       5.336   4.766  17.804  0.00  0.00    +0.000 A 
ATOM     14  C   UNL     1       6.201   5.183  18.822  0.00  0.00    +0.000 A 
ATOM     15  C   UNL     1       7.182   6.149  18.581  0.00  0.00    +0.000 A 
BRANCH  10  17
ATOM     16  C   UNL     1       8.180   8.862  17.752  0.00  0.00    +0.000 C 
ATOM     17  O   UNL     1       8.233   7.668  16.976  0.00  0.00    +0.000 OA
ENDBRANCH  10  17
ENDBRANCH   1  13
BRANCH   6  18
ATOM     18  C   UNL     1       1.131   4.468  20.629  0.00  0.00    +0.000 C 
BRANCH  18  19
ATOM     19  O   UNL     1       2.051   5.517  20.920  0.00  0.00    +0.000 OA
BRANCH  19  20
ATOM     20  C   UNL     1       1.619   6.800  20.677  0.00  0.00    +0.000 A 
ATOM     21  C   UNL     1       0.793   7.499  21.581  0.00  0.00    +0.000 A 
ATOM     22  C   UNL     1       0.296   8.771  21.292  0.00  0.00    +0.000 A 
ATOM     23  C   UNL     1       0.646   9.392  20.106  0.00  0.00    +0.000 A 
ATOM     24  C   UNL     1       1.500   8.740  19.222  0.00  0.00    +0.000 A 
ATOM     25  C   UNL     1       1.995   7.450  19.487  0.00  0.00    +0.000 A 
BRANCH  25  26
ATOM     26  O   UNL     1       2.806   7.021  18.470  0.00  0.00    +0.000 OA
ATOM     27  C   UNL     1       3.372   7.955  17.572  0.00  0.00    +0.000 C 
ENDBRANCH  25  26
ENDBRANCH  19  20
ENDBRANCH  18  19
ENDBRANCH   6  18
TORSDOF 6
ENDMDL
MODEL 5
REMARK VINA RESULT:      -6.8      2.749      3.830
REMARK  Name = 
REMARK  8 active torsions:
REMARK  status: ('A' for Active; 'I' for Inactive)
REMARK    1  A    between atoms: C_1  and  O_2
REMARK    2  A    between atoms: O_2  and  C_3
REMARK    3  A    between atoms: C_6  and  C_7
REMARK    4  A    between atoms: C_12  and  C_14
REMARK    5  A    between atoms: C_14  and  O_15
REMARK    6  A    between atoms: O_15  and  C_16
REMARK    7  A    between atoms: C_21  and  O_22
REMARK    8  A    between atoms: O_22  and  C_23
REMARK                            x       y       z     vdW  Elec       q    Type
REMARK                         _______ _______ _______ _____ _____    ______ ____
ROOT
ATOM      1  C   UNL     1       3.563   5.134  18.353  0.00  0.00    +0.000 A 
ATOM      2  N   UNL     1       2.559   4.252  18.225  0.00  0.00    +0.000 NA
ATOM      3  S   UNL     1       1.474   4.554  19.456  0.00  0.00    +0.000 S 
ATOM      4  C   UNL     1       2.384   5.864  20.052  0.00  0.00    +0.000 A 
ATOM      5  N   UNL     1       1.826   6.621  21.045  0.00  0.00    +0.000 N 
ATOM      6  C   UNL     1       1.603   7.961  20.815  0.00  0.00    +0.000 C 
ATOM      7  O   UNL     1       1.517   8.726  21.778  0.00  0.00    +0.000 OA
ATOM      8  N   UNL     1       3.495   6.068  19.401  0.00  0.00    +0.000 NA
ATOM      9  H   UNL     1       2.231   6.494  21.963  0.00  0.00    +0.000 HD
ENDROOT
BRANCH   1  13
ATOM     10  C   UNL     1       6.850   5.319  15.613  0.00  0.00    +0.000 A 
ATOM     11  C   UNL     1       5.756   4.502  15.336  0.00  0.00    +0.000 A 
ATOM     12  C   UNL     1       4.676   4.431  16.233  0.00  0.00    +0.000 A 
ATOM     13  C   UNL     1       4.694   5.167  17.423  0.00  0.00    +0.000 A 
ATOM     14  C   UNL     1       5.817   5.951  17.708  0.00  0.00    +0.000 A 
ATOM     15  C   UNL     1       6.887   6.028  16.812  0.00  0.00    +0.000 A 
BRANCH  10  17
ATOM     16  C   UNL     1       7.449   4.852  13.382  0.00  0.00    +0.000 C 
ATOM     17  O   UNL     1       7.837   5.331  14.667  0.00  0.00    +0.000 OA
ENDBRANCH  10  17
ENDBRANCH   1  13
BRANCH   6  18
ATOM     18  C   UNL     1       1.336   8.430  19.380  0.00  0.00    +0.000 C 
BRANCH  18  19
ATOM     19  O   UNL     1       1.217   9.846  19.277  0.00  0.00    +0.000 OA
BRANCH  19  20
ATOM     20  C   UNL     1      -0.041  10.341  19.021  0.00  0.00    +0.000 A 
ATOM     21  C   UNL     1      -0.774   9.972  17.875  0.00  0.00    +0.000 A 
ATOM     22  C   UNL     1      -2.016  10.536  17.582  0.00  0.00    +0.000 A 
ATOM     23  C   UNL     1      -2.574  11.459  18.451  0.00  0.00    +0.000 A 
ATOM     24  C   UNL     1      -1.888  11.800  19.612  0.00  0.00    +0.000 A 
ATOM     25  C   UNL     1      -0.627  11.256  19.915  0.00  0.00    +0.000 A 
BRANCH  25  26
ATOM     26  O   UNL     1      -0.156  11.748  21.103  0.00  0.00    +0.000 OA
ATOM     27  C   UNL     1      -0.727  11.322  22.324  0.00  0.00    +0.000 C 
ENDBRANCH  25  26
ENDBRANCH  19  20
ENDBRANCH  18  19
ENDBRANCH   6  18
TORSDOF 6
ENDMDL
MODEL 6
REMARK VINA RESULT:      -6.7      0.844      2.016
REMARK  Name = 
REMARK  8 active torsions:
REMARK  status: ('A' for Active; 'I' for Inactive)
REMARK    1  A    between atoms: C_1  and  O_2
REMARK    2  A    between atoms: O_2  and  C_3
REMARK    3  A    between atoms: C_6  and  C_7
REMARK    4  A    between atoms: C_12  and  C_14
REMARK    5  A    between atoms: C_14  and  O_15
REMARK    6  A    between atoms: O_15  and  C_16
REMARK    7  A    between atoms: C_21  and  O_22
REMARK    8  A    between atoms: O_22  and  C_23
REMARK                            x       y       z     vdW  Elec       q    Type
REMARK                         _______ _______ _______ _____ _____    ______ ____
ROOT
ATOM      1  C   UNL     1       4.378   4.195  18.071  0.00  0.00    +0.000 A 
ATOM      2  N   UNL     1       3.758   3.579  17.051  0.00  0.00    +0.000 NA
ATOM      3  S   UNL     1       2.677   2.493  17.712  0.00  0.00    +0.000 S 
ATOM      4  C   UNL     1       3.068   2.943  19.307  0.00  0.00    +0.000 A 
ATOM      5  N   UNL     1       2.306   2.423  20.315  0.00  0.00    +0.000 N 
ATOM      6  C   UNL     1       1.606   3.283  21.133  0.00  0.00    +0.000 C 
ATOM      7  O   UNL     1       1.279   2.904  22.260  0.00  0.00    +0.000 OA
ATOM      8  N   UNL     1       4.010   3.843  19.380  0.00  0.00    +0.000 NA
ATOM      9  H   UNL     1       2.758   1.711  20.875  0.00  0.00    +0.000 HD
ENDROOT
BRANCH   1  13
ATOM     10  C   UNL     1       7.373   7.174  17.364  0.00  0.00    +0.000 A 
ATOM     11  C   UNL     1       7.442   6.372  18.501  0.00  0.00    +0.000 A 
ATOM     12  C   UNL     1       6.459   5.396  18.744  0.00  0.00    +0.000 A 
ATOM     13  C   UNL     1       5.391   5.231  17.855  0.00  0.00    +0.000 A 
ATOM     14  C   UNL     1       5.312   6.070  16.739  0.00  0.00    +0.000 A 
ATOM     15  C   UNL     1       6.294   7.035  16.493  0.00  0.00    +0.000 A 
BRANCH  10  17
ATOM     16  C   UNL     1       8.313   9.220  18.062  0.00  0.00    +0.000 C 
ATOM     17  O   UNL     1       8.388   8.078  17.213  0.00  0.00    +0.000 OA
ENDBRANCH  10  17
ENDBRANCH   1  13
BRANCH   6  18
ATOM     18  C   UNL     1       1.143   4.629  20.564  0.00  0.00    +0.000 C 
BRANCH  18  19
ATOM     19  O   UNL     1       1.953   5.718  20.999  0.00  0.00    +0.000 OA
BRANCH  19  20
ATOM     20  C   UNL     1       1.438   6.981  20.818  0.00  0.00    +0.000 A 
ATOM     21  C   UNL     1       0.513   7.550  21.717  0.00  0.00    +0.000 A 
ATOM     22  C   UNL     1      -0.064   8.800  21.487  0.00  0.00    +0.000 A 
ATOM     23  C   UNL     1       0.300   9.529  20.368  0.00  0.00    +0.000 A 
ATOM     24  C   UNL     1       1.248   9.006  19.494  0.00  0.00    +0.000 A 
ATOM     25  C   UNL     1       1.826   7.740  19.699  0.00  0.00    +0.000 A 
BRANCH  25  26
ATOM     26  O   UNL     1       2.721   7.446  18.705  0.00  0.00    +0.000 OA
ATOM     27  C   UNL     1       2.808   8.272  17.561  0.00  0.00    +0.000 C 
ENDBRANCH  25  26
ENDBRANCH  19  20
ENDBRANCH  18  19
ENDBRANCH   6  18
TORSDOF 6
ENDMDL
MODEL 7
REMARK VINA RESULT:      -6.7      2.503      5.759
REMARK  Name = 
REMARK  8 active torsions:
REMARK  status: ('A' for Active; 'I' for Inactive)
REMARK    1  A    between atoms: C_1  and  O_2
REMARK    2  A    between atoms: O_2  and  C_3
REMARK    3  A    between atoms: C_6  and  C_7
REMARK    4  A    between atoms: C_12  and  C_14
REMARK    5  A    between atoms: C_14  and  O_15
REMARK    6  A    between atoms: O_15  and  C_16
REMARK    7  A    between atoms: C_21  and  O_22
REMARK    8  A    between atoms: O_22  and  C_23
REMARK                            x       y       z     vdW  Elec       q    Type
REMARK                         _______ _______ _______ _____ _____    ______ ____
ROOT
ATOM      1  C   UNL     1       1.753   6.484  19.840  0.00  0.00    +0.000 A 
ATOM      2  N   UNL     1       1.412   5.955  21.026  0.00  0.00    +0.000 NA
ATOM      3  S   UNL     1       1.661   4.308  20.924  0.00  0.00    +0.000 S 
ATOM      4  C   UNL     1       2.248   4.409  19.329  0.00  0.00    +0.000 A 
ATOM      5  N   UNL     1       2.774   3.275  18.776  0.00  0.00    +0.000 N 
ATOM      6  C   UNL     1       4.091   3.278  18.373  0.00  0.00    +0.000 C 
ATOM      7  O   UNL     1       4.457   2.470  17.517  0.00  0.00    +0.000 OA
ATOM      8  N   UNL     1       2.229   5.618  18.840  0.00  0.00    +0.000 NA
ATOM      9  H   UNL     1       2.200   2.835  18.067  0.00  0.00    +0.000 HD
ENDROOT
BRANCH   1  13
ATOM     10  C   UNL     1       1.424  10.683  19.060  0.00  0.00    +0.000 A 
ATOM     11  C   UNL     1       2.053   9.849  18.139  0.00  0.00    +0.000 A 
ATOM     12  C   UNL     1       2.171   8.472  18.390  0.00  0.00    +0.000 A 
ATOM     13  C   UNL     1       1.673   7.923  19.577  0.00  0.00    +0.000 A 
ATOM     14  C   UNL     1       1.079   8.777  20.512  0.00  0.00    +0.000 A 
ATOM     15  C   UNL     1       0.955  10.146  20.258  0.00  0.00    +0.000 A 
BRANCH  10  17
ATOM     16  C   UNL     1       2.516  12.538  18.103  0.00  0.00    +0.000 C 
ATOM     17  O   UNL     1       1.345  12.002  18.711  0.00  0.00    +0.000 OA
ENDBRANCH  10  17
ENDBRANCH   1  13
BRANCH   6  18
ATOM     18  C   UNL     1       5.083   4.195  19.099  0.00  0.00    +0.000 C 
BRANCH  18  19
ATOM     19  O   UNL     1       6.348   4.262  18.448  0.00  0.00    +0.000 OA
BRANCH  19  20
ATOM     20  C   UNL     1       6.831   5.520  18.169  0.00  0.00    +0.000 A 
ATOM     21  C   UNL     1       7.885   6.099  18.904  0.00  0.00    +0.000 A 
ATOM     22  C   UNL     1       8.319   7.405  18.666  0.00  0.00    +0.000 A 
ATOM     23  C   UNL     1       7.732   8.150  17.659  0.00  0.00    +0.000 A 
ATOM     24  C   UNL     1       6.723   7.580  16.889  0.00  0.00    +0.000 A 
ATOM     25  C   UNL     1       6.260   6.273  17.126  0.00  0.00    +0.000 A 
BRANCH  25  26
ATOM     26  O   UNL     1       5.264   5.942  16.247  0.00  0.00    +0.000 OA
ATOM     27  C   UNL     1       5.566   5.205  15.078  0.00  0.00    +0.000 C 
ENDBRANCH  25  26
ENDBRANCH  19  20
ENDBRANCH  18  19
ENDBRANCH   6  18
TORSDOF 6
ENDMDL
MODEL 8
REMARK VINA RESULT:      -6.7      2.475      5.634
REMARK  Name = 
REMARK  8 active torsions:
REMARK  status: ('A' for Active; 'I' for Inactive)
REMARK    1  A    between atoms: C_1  and  O_2
REMARK    2  A    between atoms: O_2  and  C_3
REMARK    3  A    between atoms: C_6  and  C_7
REMARK    4  A    between atoms: C_12  and  C_14
REMARK    5  A    between atoms: C_14  and  O_15
REMARK    6  A    between atoms: O_15  and  C_16
REMARK    7  A    between atoms: C_21  and  O_22
REMARK    8  A    between atoms: O_22  and  C_23
REMARK                            x       y       z     vdW  Elec       q    Type
REMARK                         _______ _______ _______ _____ _____    ______ ____
ROOT
ATOM      1  C   UNL     1       1.887   5.632  19.985  0.00  0.00    +0.000 A 
ATOM      2  N   UNL     1       1.675   5.271  21.261  0.00  0.00    +0.000 NA
ATOM      3  S   UNL     1       1.756   3.605  21.324  0.00  0.00    +0.000 S 
ATOM      4  C   UNL     1       2.112   3.474  19.664  0.00  0.00    +0.000 A 
ATOM      5  N   UNL     1       2.446   2.238  19.185  0.00  0.00    +0.000 N 
ATOM      6  C   UNL     1       3.686   2.058  18.611  0.00  0.00    +0.000 C 
ATOM      7  O   UNL     1       3.848   1.130  17.816  0.00  0.00    +0.000 OA
ATOM      8  N   UNL     1       2.131   4.620  19.041  0.00  0.00    +0.000 NA
ATOM      9  H   UNL     1       1.738   1.790  18.617  0.00  0.00    +0.000 HD
ENDROOT
BRANCH   1  13
ATOM     10  C   UNL     1       1.830   9.733  18.750  0.00  0.00    +0.000 A 
ATOM     11  C   UNL     1       2.379   8.761  17.917  0.00  0.00    +0.000 A 
ATOM     12  C   UNL     1       2.408   7.414  18.317  0.00  0.00    +0.000 A 
ATOM     13  C   UNL     1       1.900   7.036  19.565  0.00  0.00    +0.000 A 
ATOM     14  C   UNL     1       1.388   8.027  20.409  0.00  0.00    +0.000 A 
ATOM     15  C   UNL     1       1.352   9.366  20.007  0.00  0.00    +0.000 A 
BRANCH  10  17
ATOM     16  C   UNL     1       0.842  11.872  18.807  0.00  0.00    +0.000 C 
ATOM     17  O   UNL     1       1.834  11.009  18.258  0.00  0.00    +0.000 OA
ENDBRANCH  10  17
ENDBRANCH   1  13
BRANCH   6  18
ATOM     18  C   UNL     1       4.851   2.936  19.083  0.00  0.00    +0.000 C 
BRANCH  18  19
ATOM     19  O   UNL     1       4.831   4.237  18.502  0.00  0.00    +0.000 OA
BRANCH  19  20
ATOM     20  C   UNL     1       5.471   4.382  17.293  0.00  0.00    +0.000 A 
ATOM     21  C   UNL     1       4.772   4.376  16.068  0.00  0.00    +0.000 A 
ATOM     22  C   UNL     1       5.435   4.447  14.842  0.00  0.00    +0.000 A 
ATOM     23  C   UNL     1       6.814   4.563  14.812  0.00  0.00    +0.000 A 
ATOM     24  C   UNL     1       7.518   4.619  16.011  0.00  0.00    +0.000 A 
ATOM     25  C   UNL     1       6.870   4.530  17.256  0.00  0.00    +0.000 A 
BRANCH  25  26
ATOM     26  O   UNL     1       7.773   4.604  18.283  0.00  0.00    +0.000 OA
ATOM     27  C   UNL     1       7.868   5.781  19.061  0.00  0.00    +0.000 C 
ENDBRANCH  25  26
ENDBRANCH  19  20
ENDBRANCH  18  19
ENDBRANCH   6  18
TORSDOF 6
ENDMDL
MODEL 9
REMARK VINA RESULT:      -6.6      2.436      5.715
REMARK  Name = 
REMARK  8 active torsions:
REMARK  status: ('A' for Active; 'I' for Inactive)
REMARK    1  A    between atoms: C_1  and  O_2
REMARK    2  A    between atoms: O_2  and  C_3
REMARK    3  A    between atoms: C_6  and  C_7
REMARK    4  A    between atoms: C_12  and  C_14
REMARK    5  A    between atoms: C_14  and  O_15
REMARK    6  A    between atoms: O_15  and  C_16
REMARK    7  A    between atoms: C_21  and  O_22
REMARK    8  A    between atoms: O_22  and  C_23
REMARK                            x       y       z     vdW  Elec       q    Type
REMARK                         _______ _______ _______ _____ _____    ______ ____
ROOT
ATOM      1  C   UNL     1       1.920   6.001  19.944  0.00  0.00    +0.000 A 
ATOM      2  N   UNL     1       1.878   5.662  21.243  0.00  0.00    +0.000 NA
ATOM      3  S   UNL     1       2.045   4.004  21.327  0.00  0.00    +0.000 S 
ATOM      4  C   UNL     1       2.207   3.848  19.640  0.00  0.00    +0.000 A 
ATOM      5  N   UNL     1       2.541   2.617  19.148  0.00  0.00    +0.000 N 
ATOM      6  C   UNL     1       3.711   2.479  18.434  0.00  0.00    +0.000 C 
ATOM      7  O   UNL     1       3.821   1.539  17.643  0.00  0.00    +0.000 OA
ATOM      8  N   UNL     1       2.098   4.978  18.997  0.00  0.00    +0.000 NA
ATOM      9  H   UNL     1       1.792   2.124  18.678  0.00  0.00    +0.000 HD
ENDROOT
BRANCH   1  13
ATOM     10  C   UNL     1       1.712  10.077  18.644  0.00  0.00    +0.000 A 
ATOM     11  C   UNL     1       1.249   9.724  19.910  0.00  0.00    +0.000 A 
ATOM     12  C   UNL     1       1.308   8.388  20.342  0.00  0.00    +0.000 A 
ATOM     13  C   UNL     1       1.817   7.393  19.499  0.00  0.00    +0.000 A 
ATOM     14  C   UNL     1       2.240   7.755  18.216  0.00  0.00    +0.000 A 
ATOM     15  C   UNL     1       2.189   9.085  17.790  0.00  0.00    +0.000 A 
BRANCH  10  17
ATOM     16  C   UNL     1       1.196  12.252  19.392  0.00  0.00    +0.000 C 
ATOM     17  O   UNL     1       1.627  11.405  18.330  0.00  0.00    +0.000 OA
ENDBRANCH  10  17
ENDBRANCH   1  13
BRANCH   6  18
ATOM     18  C   UNL     1       4.881   3.419  18.746  0.00  0.00    +0.000 C 
BRANCH  18  19
ATOM     19  O   UNL     1       5.471   3.971  17.572  0.00  0.00    +0.000 OA
BRANCH  19  20
ATOM     20  C   UNL     1       6.314   5.044  17.753  0.00  0.00    +0.000 A 
ATOM     21  C   UNL     1       7.169   5.146  18.869  0.00  0.00    +0.000 A 
ATOM     22  C   UNL     1       7.965   6.273  19.085  0.00  0.00    +0.000 A 
ATOM     23  C   UNL     1       7.953   7.309  18.167  0.00  0.00    +0.000 A 
ATOM     24  C   UNL     1       7.152   7.205  17.034  0.00  0.00    +0.000 A 
ATOM     25  C   UNL     1       6.329   6.087  16.809  0.00  0.00    +0.000 A 
BRANCH  25  26
ATOM     26  O   UNL     1       5.636   6.220  15.635  0.00  0.00    +0.000 OA
ATOM     27  C   UNL     1       5.760   5.241  14.623  0.00  0.00    +0.000 C 
ENDBRANCH  25  26
ENDBRANCH  19  20
ENDBRANCH  18  19
ENDBRANCH   6  18
TORSDOF 6
ENDMDL
