MODEL 1
REMARK VINA RESULT:      -8.2      0.000      0.000
REMARK  Name = 
REMARK  4 active torsions:
REMARK  status: ('A' for Active; 'I' for Inactive)
REMARK    1  A    between atoms: N_2  and  C_4
REMARK    2  A    between atoms: C_8  and  C_9
REMARK    3  A    between atoms: N_10  and  N_11
REMARK    4  A    between atoms: C_22  and  O_23
REMARK                            x       y       z     vdW  Elec       q    Type
REMARK                         _______ _______ _______ _____ _____    ______ ____
ROOT
ATOM      1  C   UNL     1       4.201   5.145  16.999  0.00  0.00    +0.000 C 
ATOM      2  N   UNL     1       4.298   6.376  17.412  0.00  0.00    +0.000 NA
ENDROOT
BRANCH   2   3
ATOM      3  N   UNL     1       3.826   6.697  18.639  0.00  0.00    +0.000 N 
ATOM      4  C   UNL     1       2.742   7.595  18.763  0.00  0.00    +0.000 A 
ATOM      5  C   UNL     1       2.458   8.494  17.743  0.00  0.00    +0.000 A 
ATOM      6  C   UNL     1       1.517   9.490  17.958  0.00  0.00    +0.000 A 
ATOM      7  C   UNL     1       0.892   9.582  19.201  0.00  0.00    +0.000 A 
ATOM      8  C   UNL     1      -0.032  10.606  19.471  0.00  0.00    +0.000 A 
ATOM      9  C   UNL     1      -0.625  10.701  20.726  0.00  0.00    +0.000 A 
ATOM     10  C   UNL     1      -0.299   9.773  21.709  0.00  0.00    +0.000 A 
ATOM     11  C   UNL     1       0.617   8.750  21.430  0.00  0.00    +0.000 A 
ATOM     12  C   UNL     1       1.228   8.630  20.186  0.00  0.00    +0.000 A 
ATOM     13  N   UNL     1       2.129   7.650  19.965  0.00  0.00    +0.000 NA
ATOM     14  H   UNL     1       3.788   6.006  19.394  0.00  0.00    +0.000 HD
ENDBRANCH   2   3
BRANCH   1  19
ATOM     15  C   UNL     1       3.681   2.415  19.582  0.00  0.00    +0.000 A 
ATOM     16  C   UNL     1       2.633   1.694  19.000  0.00  0.00    +0.000 A 
ATOM     17  C   UNL     1       2.175   2.071  17.740  0.00  0.00    +0.000 A 
ATOM     18  C   UNL     1       2.709   3.202  17.114  0.00  0.00    +0.000 A 
ATOM     19  C   UNL     1       3.741   3.937  17.722  0.00  0.00    +0.000 A 
ATOM     20  C   UNL     1       4.292   3.481  18.925  0.00  0.00    +0.000 A 
BRANCH  15  22
ATOM     21  O   UNL     1       3.251   2.336  21.837  0.00  0.00    +0.000 OA
ATOM     22  N   UNL     1       4.070   2.090  20.941  0.00  0.00    +0.000 N 
ATOM     23  O   UNL     1       5.229   1.679  21.116  0.00  0.00    +0.000 OA
ENDBRANCH  15  22
BRANCH  20  24
ATOM     24  O   UNL     1       5.464   3.971  19.424  0.00  0.00    +0.000 OA
ATOM     25  H   UNL     1       6.177   3.770  18.782  0.00  0.00    +0.000 HD
ENDBRANCH  20  24
ENDBRANCH   1  19
TORSDOF 4
ENDMDL
MODEL 2
REMARK VINA RESULT:      -8.1      1.133      1.617
REMARK  Name = 
REMARK  4 active torsions:
REMARK  status: ('A' for Active; 'I' for Inactive)
REMARK    1  A    between atoms: N_2  and  C_4
REMARK    2  A    between atoms: C_8  and  C_9
REMARK    3  A    between atoms: N_10  and  N_11
REMARK    4  A    between atoms: C_22  and  O_23
REMARK                            x       y       z     vdW  Elec       q    Type
REMARK                         _______ _______ _______ _____ _____    ______ ____
ROOT
ATOM      1  C   UNL     1       2.946   5.937  17.664  0.00  0.00    +0.000 C 
ATOM      2  N   UNL     1       2.986   7.131  18.183  0.00  0.00    +0.000 NA
ENDROOT
BRANCH   2   3
ATOM      3  N   UNL     1       2.600   7.302  19.468  0.00  0.00    +0.000 N 
ATOM      4  C   UNL     1       1.654   8.300  19.793  0.00  0.00    +0.000 A 
ATOM      5  C   UNL     1       1.466   9.386  18.946  0.00  0.00    +0.000 A 
ATOM      6  C   UNL     1       0.679  10.446  19.369  0.00  0.00    +0.000 A 
ATOM      7  C   UNL     1       0.110  10.411  20.642  0.00  0.00    +0.000 A 
ATOM      8  C   UNL     1      -0.655  11.488  21.121  0.00  0.00    +0.000 A 
ATOM      9  C   UNL     1      -1.191  11.449  22.405  0.00  0.00    +0.000 A 
ATOM     10  C   UNL     1      -0.967  10.335  23.206  0.00  0.00    +0.000 A 
ATOM     11  C   UNL     1      -0.209   9.263  22.719  0.00  0.00    +0.000 A 
ATOM     12  C   UNL     1       0.341   9.272  21.441  0.00  0.00    +0.000 A 
ATOM     13  N   UNL     1       1.091   8.234  21.018  0.00  0.00    +0.000 NA
ATOM     14  H   UNL     1       2.490   6.506  20.103  0.00  0.00    +0.000 HD
ENDBRANCH   2   3
BRANCH   1  19
ATOM     15  C   UNL     1       3.051   2.821  19.825  0.00  0.00    +0.000 A 
ATOM     16  C   UNL     1       1.819   2.237  19.512  0.00  0.00    +0.000 A 
ATOM     17  C   UNL     1       1.018   2.836  18.542  0.00  0.00    +0.000 A 
ATOM     18  C   UNL     1       1.416   4.043  17.958  0.00  0.00    +0.000 A 
ATOM     19  C   UNL     1       2.642   4.635  18.303  0.00  0.00    +0.000 A 
ATOM     20  C   UNL     1       3.506   3.966  19.177  0.00  0.00    +0.000 A 
BRANCH  15  22
ATOM     21  O   UNL     1       4.955   1.837  20.650  0.00  0.00    +0.000 OA
ATOM     22  N   UNL     1       3.822   2.258  20.917  0.00  0.00    +0.000 N 
ATOM     23  O   UNL     1       3.254   2.151  22.016  0.00  0.00    +0.000 OA
ENDBRANCH  15  22
BRANCH  20  24
ATOM     24  O   UNL     1       4.812   4.333  19.337  0.00  0.00    +0.000 OA
ATOM     25  H   UNL     1       5.271   4.211  18.479  0.00  0.00    +0.000 HD
ENDBRANCH  20  24
ENDBRANCH   1  19
TORSDOF 4
ENDMDL
MODEL 3
REMARK VINA RESULT:      -7.6      2.450      4.088
REMARK  Name = 
REMARK  4 active torsions:
REMARK  status: ('A' for Active; 'I' for Inactive)
REMARK    1  A    between atoms: N_2  and  C_4
REMARK    2  A    between atoms: C_8  and  C_9
REMARK    3  A    between atoms: N_10  and  N_11
REMARK    4  A    between atoms: C_22  and  O_23
REMARK                            x       y       z     vdW  Elec       q    Type
REMARK                         _______ _______ _______ _____ _____    ______ ____
ROOT
ATOM      1  C   UNL     1       4.148   3.299  17.754  0.00  0.00    +0.000 C 
ATOM      2  N   UNL     1       2.898   3.591  17.971  0.00  0.00    +0.000 NA
ENDROOT
BRANCH   2   3
ATOM      3  N   UNL     1       2.449   4.829  17.661  0.00  0.00    +0.000 N 
ATOM      4  C   UNL     1       2.253   5.783  18.685  0.00  0.00    +0.000 A 
ATOM      5  C   UNL     1       2.057   5.370  19.997  0.00  0.00    +0.000 A 
ATOM      6  C   UNL     1       1.678   6.302  20.952  0.00  0.00    +0.000 A 
ATOM      7  C   UNL     1       1.480   7.629  20.571  0.00  0.00    +0.000 A 
ATOM      8  C   UNL     1       1.051   8.591  21.501  0.00  0.00    +0.000 A 
ATOM      9  C   UNL     1       0.831   9.904  21.099  0.00  0.00    +0.000 A 
ATOM     10  C   UNL     1       1.043  10.258  19.771  0.00  0.00    +0.000 A 
ATOM     11  C   UNL     1       1.478   9.295  18.851  0.00  0.00    +0.000 A 
ATOM     12  C   UNL     1       1.705   7.973  19.223  0.00  0.00    +0.000 A 
ATOM     13  N   UNL     1       2.093   7.067  18.301  0.00  0.00    +0.000 NA
ATOM     14  H   UNL     1       2.741   5.303  16.802  0.00  0.00    +0.000 HD
ENDBRANCH   2   3
BRANCH   1  19
ATOM     15  C   UNL     1       6.872   5.820  16.967  0.00  0.00    +0.000 A 
ATOM     16  C   UNL     1       7.289   5.378  15.707  0.00  0.00    +0.000 A 
ATOM     17  C   UNL     1       6.616   4.313  15.111  0.00  0.00    +0.000 A 
ATOM     18  C   UNL     1       5.595   3.657  15.807  0.00  0.00    +0.000 A 
ATOM     19  C   UNL     1       5.205   4.092  17.084  0.00  0.00    +0.000 A 
ATOM     20  C   UNL     1       5.789   5.242  17.626  0.00  0.00    +0.000 A 
BRANCH  15  22
ATOM     21  O   UNL     1       8.074   6.593  18.765  0.00  0.00    +0.000 OA
ATOM     22  N   UNL     1       7.652   6.848  17.629  0.00  0.00    +0.000 N 
ATOM     23  O   UNL     1       7.756   7.941  17.050  0.00  0.00    +0.000 OA
ENDBRANCH  15  22
BRANCH  20  24
ATOM     24  O   UNL     1       5.273   5.879  18.718  0.00  0.00    +0.000 OA
ATOM     25  H   UNL     1       5.875   5.723  19.476  0.00  0.00    +0.000 HD
ENDBRANCH  20  24
ENDBRANCH   1  19
TORSDOF 4
ENDMDL
MODEL 4
REMARK VINA RESULT:      -7.6      2.579      4.348
REMARK  Name = 
REMARK  4 active torsions:
REMARK  status: ('A' for Active; 'I' for Inactive)
REMARK    1  A    between atoms: N_2  and  C_4
REMARK    2  A    between atoms: C_8  and  C_9
REMARK    3  A    between atoms: N_10  and  N_11
REMARK    4  A    between atoms: C_22  and  O_23
REMARK                            x       y       z     vdW  Elec       q    Type
REMARK                         _______ _______ _______ _____ _____    ______ ____
ROOT
ATOM      1  C   UNL     1       4.386   3.855  19.345  0.00  0.00    +0.000 C 
ATOM      2  N   UNL     1       3.104   4.063  19.257  0.00  0.00    +0.000 NA
ENDROOT
BRANCH   2   3
ATOM      3  N   UNL     1       2.655   5.101  18.514  0.00  0.00    +0.000 N 
ATOM      4  C   UNL     1       2.332   6.326  19.140  0.00  0.00    +0.000 A 
ATOM      5  C   UNL     1       2.015   6.358  20.492  0.00  0.00    +0.000 A 
ATOM      6  C   UNL     1       1.518   7.528  21.045  0.00  0.00    +0.000 A 
ATOM      7  C   UNL     1       1.324   8.642  20.227  0.00  0.00    +0.000 A 
ATOM      8  C   UNL     1       0.778   9.830  20.742  0.00  0.00    +0.000 A 
ATOM      9  C   UNL     1       0.564  10.922  19.907  0.00  0.00    +0.000 A 
ATOM     10  C   UNL     1       0.899  10.829  18.560  0.00  0.00    +0.000 A 
ATOM     11  C   UNL     1       1.449   9.644  18.056  0.00  0.00    +0.000 A 
ATOM     12  C   UNL     1       1.674   8.535  18.865  0.00  0.00    +0.000 A 
ATOM     13  N   UNL     1       2.177   7.400  18.337  0.00  0.00    +0.000 NA
ATOM     14  H   UNL     1       3.019   5.281  17.574  0.00  0.00    +0.000 HD
ENDBRANCH   2   3
BRANCH   1  19
ATOM     15  C   UNL     1       6.699   5.288  16.700  0.00  0.00    +0.000 A 
ATOM     16  C   UNL     1       7.621   5.975  17.497  0.00  0.00    +0.000 A 
ATOM     17  C   UNL     1       7.510   5.888  18.883  0.00  0.00    +0.000 A 
ATOM     18  C   UNL     1       6.442   5.187  19.454  0.00  0.00    +0.000 A 
ATOM     19  C   UNL     1       5.505   4.526  18.643  0.00  0.00    +0.000 A 
ATOM     20  C   UNL     1       5.692   4.502  17.257  0.00  0.00    +0.000 A 
BRANCH  15  22
ATOM     21  O   UNL     1       7.862   5.401  14.724  0.00  0.00    +0.000 OA
ATOM     22  N   UNL     1       6.750   5.481  15.264  0.00  0.00    +0.000 N 
ATOM     23  O   UNL     1       5.695   5.806  14.698  0.00  0.00    +0.000 OA
ENDBRANCH  15  22
BRANCH  20  24
ATOM     24  O   UNL     1       4.995   3.659  16.440  0.00  0.00    +0.000 OA
ATOM     25  H   UNL     1       4.642   2.926  16.986  0.00  0.00    +0.000 HD
ENDBRANCH  20  24
ENDBRANCH   1  19
TORSDOF 4
ENDMDL
MODEL 5
REMARK VINA RESULT:      -7.3      3.305      5.154
REMARK  Name = 
REMARK  4 active torsions:
REMARK  status: ('A' for Active; 'I' for Inactive)
REMARK    1  A    between atoms: N_2  and  C_4
REMARK    2  A    between atoms: C_8  and  C_9
REMARK    3  A    between atoms: N_10  and  N_11
REMARK    4  A    between atoms: C_22  and  O_23
REMARK                            x       y       z     vdW  Elec       q    Type
REMARK                         _______ _______ _______ _____ _____    ______ ____
ROOT
ATOM      1  C   UNL     1       2.402   3.282  17.000  0.00  0.00    +0.000 C 
ATOM      2  N   UNL     1       3.535   2.991  16.428  0.00  0.00    +0.000 NA
ENDROOT
BRANCH   2   3
ATOM      3  N   UNL     1       4.687   3.203  17.104  0.00  0.00    +0.000 N 
ATOM      4  C   UNL     1       5.199   4.515  17.227  0.00  0.00    +0.000 A 
ATOM      5  C   UNL     1       4.833   5.497  16.315  0.00  0.00    +0.000 A 
ATOM      6  C   UNL     1       5.486   6.720  16.336  0.00  0.00    +0.000 A 
ATOM      7  C   UNL     1       6.512   6.931  17.257  0.00  0.00    +0.000 A 
ATOM      8  C   UNL     1       7.228   8.140  17.277  0.00  0.00    +0.000 A 
ATOM      9  C   UNL     1       8.268   8.323  18.183  0.00  0.00    +0.000 A 
ATOM     10  C   UNL     1       8.589   7.302  19.071  0.00  0.00    +0.000 A 
ATOM     11  C   UNL     1       7.867   6.103  19.050  0.00  0.00    +0.000 A 
ATOM     12  C   UNL     1       6.823   5.889  18.155  0.00  0.00    +0.000 A 
ATOM     13  N   UNL     1       6.170   4.708  18.145  0.00  0.00    +0.000 NA
ATOM     14  H   UNL     1       4.922   2.663  17.941  0.00  0.00    +0.000 HD
ENDBRANCH   2   3
BRANCH   1  19
ATOM     15  C   UNL     1       1.857   3.402  20.753  0.00  0.00    +0.000 A 
ATOM     16  C   UNL     1       1.745   4.780  20.963  0.00  0.00    +0.000 A 
ATOM     17  C   UNL     1       1.771   5.633  19.861  0.00  0.00    +0.000 A 
ATOM     18  C   UNL     1       1.987   5.111  18.581  0.00  0.00    +0.000 A 
ATOM     19  C   UNL     1       2.128   3.727  18.387  0.00  0.00    +0.000 A 
ATOM     20  C   UNL     1       1.969   2.861  19.474  0.00  0.00    +0.000 A 
BRANCH  15  22
ATOM     21  O   UNL     1       0.930   2.412  22.606  0.00  0.00    +0.000 OA
ATOM     22  N   UNL     1       1.948   2.535  21.912  0.00  0.00    +0.000 N 
ATOM     23  O   UNL     1       3.063   2.057  22.176  0.00  0.00    +0.000 OA
ENDBRANCH  15  22
BRANCH  20  24
ATOM     24  O   UNL     1       1.813   1.514  19.319  0.00  0.00    +0.000 OA
ATOM     25  H   UNL     1       1.422   1.154  20.144  0.00  0.00    +0.000 HD
ENDBRANCH  20  24
ENDBRANCH   1  19
TORSDOF 4
ENDMDL
MODEL 6
REMARK VINA RESULT:      -7.2      1.729      2.361
REMARK  Name = 
REMARK  4 active torsions:
REMARK  status: ('A' for Active; 'I' for Inactive)
REMARK    1  A    between atoms: N_2  and  C_4
REMARK    2  A    between atoms: C_8  and  C_9
REMARK    3  A    between atoms: N_10  and  N_11
REMARK    4  A    between atoms: C_22  and  O_23
REMARK                            x       y       z     vdW  Elec       q    Type
REMARK                         _______ _______ _______ _____ _____    ______ ____
ROOT
ATOM      1  C   UNL     1       2.552   6.248  18.076  0.00  0.00    +0.000 C 
ATOM      2  N   UNL     1       2.467   7.501  18.419  0.00  0.00    +0.000 NA
ENDROOT
BRANCH   2   3
ATOM      3  N   UNL     1       2.145   7.813  19.695  0.00  0.00    +0.000 N 
ATOM      4  C   UNL     1       1.148   8.781  19.953  0.00  0.00    +0.000 A 
ATOM      5  C   UNL     1       0.832   9.732  18.990  0.00  0.00    +0.000 A 
ATOM      6  C   UNL     1      -0.007  10.784  19.326  0.00  0.00    +0.000 A 
ATOM      7  C   UNL     1      -0.497  10.879  20.628  0.00  0.00    +0.000 A 
ATOM      8  C   UNL     1      -1.311  11.956  21.018  0.00  0.00    +0.000 A 
ATOM      9  C   UNL     1      -1.768  12.051  22.329  0.00  0.00    +0.000 A 
ATOM     10  C   UNL     1      -1.416  11.069  23.248  0.00  0.00    +0.000 A 
ATOM     11  C   UNL     1      -0.611   9.994  22.851  0.00  0.00    +0.000 A 
ATOM     12  C   UNL     1      -0.137   9.872  21.548  0.00  0.00    +0.000 A 
ATOM     13  N   UNL     1       0.662   8.839  21.211  0.00  0.00    +0.000 NA
ATOM     14  H   UNL     1       2.130   7.102  20.431  0.00  0.00    +0.000 HD
ENDBRANCH   2   3
BRANCH   1  19
ATOM     15  C   UNL     1       3.170   2.855  19.659  0.00  0.00    +0.000 A 
ATOM     16  C   UNL     1       2.231   2.870  20.695  0.00  0.00    +0.000 A 
ATOM     17  C   UNL     1       1.364   3.955  20.803  0.00  0.00    +0.000 A 
ATOM     18  C   UNL     1       1.495   5.041  19.931  0.00  0.00    +0.000 A 
ATOM     19  C   UNL     1       2.463   5.028  18.913  0.00  0.00    +0.000 A 
ATOM     20  C   UNL     1       3.243   3.883  18.721  0.00  0.00    +0.000 A 
BRANCH  15  22
ATOM     21  O   UNL     1       5.057   1.821  20.461  0.00  0.00    +0.000 OA
ATOM     22  N   UNL     1       4.143   1.781  19.626  0.00  0.00    +0.000 N 
ATOM     23  O   UNL     1       4.044   0.955  18.705  0.00  0.00    +0.000 OA
ENDBRANCH  15  22
BRANCH  20  24
ATOM     24  O   UNL     1       3.993   3.689  17.597  0.00  0.00    +0.000 OA
ATOM     25  H   UNL     1       3.396   3.391  16.879  0.00  0.00    +0.000 HD
ENDBRANCH  20  24
ENDBRANCH   1  19
TORSDOF 4
ENDMDL
MODEL 7
REMARK VINA RESULT:      -7.2      2.228      3.368
REMARK  Name = 
REMARK  4 active torsions:
REMARK  status: ('A' for Active; 'I' for Inactive)
REMARK    1  A    between atoms: N_2  and  C_4
REMARK    2  A    between atoms: C_8  and  C_9
REMARK    3  A    between atoms: N_10  and  N_11
REMARK    4  A    between atoms: C_22  and  O_23
REMARK                            x       y       z     vdW  Elec       q    Type
REMARK                         _______ _______ _______ _____ _____    ______ ____
ROOT
ATOM      1  C   UNL     1       3.293   4.707  20.227  0.00  0.00    +0.000 C 
ATOM      2  N   UNL     1       2.474   5.661  20.567  0.00  0.00    +0.000 NA
ENDROOT
BRANCH   2   3
ATOM      3  N   UNL     1       2.287   6.699  19.720  0.00  0.00    +0.000 N 
ATOM      4  C   UNL     1       1.616   7.860  20.166  0.00  0.00    +0.000 A 
ATOM      5  C   UNL     1       0.756   7.795  21.255  0.00  0.00    +0.000 A 
ATOM      6  C   UNL     1      -0.036   8.891  21.561  0.00  0.00    +0.000 A 
ATOM      7  C   UNL     1       0.031  10.028  20.756  0.00  0.00    +0.000 A 
ATOM      8  C   UNL     1      -0.790  11.141  21.007  0.00  0.00    +0.000 A 
ATOM      9  C   UNL     1      -0.732  12.256  20.177  0.00  0.00    +0.000 A 
ATOM     10  C   UNL     1       0.149  12.262  19.101  0.00  0.00    +0.000 A 
ATOM     11  C   UNL     1       0.969  11.152  18.860  0.00  0.00    +0.000 A 
ATOM     12  C   UNL     1       0.933  10.022  19.672  0.00  0.00    +0.000 A 
ATOM     13  N   UNL     1       1.716   8.960  19.390  0.00  0.00    +0.000 NA
ATOM     14  H   UNL     1       2.996   6.957  19.027  0.00  0.00    +0.000 HD
ENDBRANCH   2   3
BRANCH   1  19
ATOM     15  C   UNL     1       5.959   4.450  17.540  0.00  0.00    +0.000 A 
ATOM     16  C   UNL     1       5.233   3.859  16.500  0.00  0.00    +0.000 A 
ATOM     17  C   UNL     1       3.870   3.631  16.676  0.00  0.00    +0.000 A 
ATOM     18  C   UNL     1       3.268   3.920  17.905  0.00  0.00    +0.000 A 
ATOM     19  C   UNL     1       4.014   4.486  18.952  0.00  0.00    +0.000 A 
ATOM     20  C   UNL     1       5.350   4.837  18.731  0.00  0.00    +0.000 A 
BRANCH  15  22
ATOM     21  O   UNL     1       7.832   4.767  16.251  0.00  0.00    +0.000 OA
ATOM     22  N   UNL     1       7.396   4.573  17.393  0.00  0.00    +0.000 N 
ATOM     23  O   UNL     1       8.088   4.380  18.406  0.00  0.00    +0.000 OA
ENDBRANCH  15  22
BRANCH  20  24
ATOM     24  O   UNL     1       6.047   5.635  19.592  0.00  0.00    +0.000 OA
ATOM     25  H   UNL     1       6.994   5.384  19.543  0.00  0.00    +0.000 HD
ENDBRANCH  20  24
ENDBRANCH   1  19
TORSDOF 4
ENDMDL
MODEL 8
REMARK VINA RESULT:      -7.2      3.135      7.212
REMARK  Name = 
REMARK  4 active torsions:
REMARK  status: ('A' for Active; 'I' for Inactive)
REMARK    1  A    between atoms: N_2  and  C_4
REMARK    2  A    between atoms: C_8  and  C_9
REMARK    3  A    between atoms: N_10  and  N_11
REMARK    4  A    between atoms: C_22  and  O_23
REMARK                            x       y       z     vdW  Elec       q    Type
REMARK                         _______ _______ _______ _____ _____    ______ ____
ROOT
ATOM      1  C   UNL     1       2.174  10.392  18.240  0.00  0.00    +0.000 C 
ATOM      2  N   UNL     1       2.530   9.336  17.566  0.00  0.00    +0.000 NA
ENDROOT
BRANCH   2   3
ATOM      3  N   UNL     1       1.849   8.181  17.746  0.00  0.00    +0.000 N 
ATOM      4  C   UNL     1       2.548   6.955  17.809  0.00  0.00    +0.000 A 
ATOM      5  C   UNL     1       3.812   6.840  17.243  0.00  0.00    +0.000 A 
ATOM      6  C   UNL     1       4.401   5.588  17.146  0.00  0.00    +0.000 A 
ATOM      7  C   UNL     1       3.704   4.468  17.598  0.00  0.00    +0.000 A 
ATOM      8  C   UNL     1       4.249   3.179  17.474  0.00  0.00    +0.000 A 
ATOM      9  C   UNL     1       3.529   2.069  17.904  0.00  0.00    +0.000 A 
ATOM     10  C   UNL     1       2.268   2.247  18.462  0.00  0.00    +0.000 A 
ATOM     11  C   UNL     1       1.733   3.535  18.590  0.00  0.00    +0.000 A 
ATOM     12  C   UNL     1       2.429   4.665  18.168  0.00  0.00    +0.000 A 
ATOM     13  N   UNL     1       1.868   5.887  18.278  0.00  0.00    +0.000 NA
ATOM     14  H   UNL     1       1.023   8.136  18.349  0.00  0.00    +0.000 HD
ENDBRANCH   2   3
BRANCH   1  19
ATOM     15  C   UNL     1      -0.290  10.194  21.119  0.00  0.00    +0.000 A 
ATOM     16  C   UNL     1      -1.169  11.230  20.789  0.00  0.00    +0.000 A 
ATOM     17  C   UNL     1      -0.980  11.918  19.593  0.00  0.00    +0.000 A 
ATOM     18  C   UNL     1       0.121  11.619  18.783  0.00  0.00    +0.000 A 
ATOM     19  C   UNL     1       1.014  10.595  19.140  0.00  0.00    +0.000 A 
ATOM     20  C   UNL     1       0.750   9.817  20.272  0.00  0.00    +0.000 A 
BRANCH  15  22
ATOM     21  O   UNL     1      -0.037  10.212  23.401  0.00  0.00    +0.000 OA
ATOM     22  N   UNL     1      -0.423   9.565  22.419  0.00  0.00    +0.000 N 
ATOM     23  O   UNL     1      -0.824   8.390  22.441  0.00  0.00    +0.000 OA
ENDBRANCH  15  22
BRANCH  20  24
ATOM     24  O   UNL     1       1.403   8.644  20.522  0.00  0.00    +0.000 OA
ATOM     25  H   UNL     1       0.746   7.990  20.840  0.00  0.00    +0.000 HD
ENDBRANCH  20  24
ENDBRANCH   1  19
TORSDOF 4
ENDMDL
MODEL 9
REMARK VINA RESULT:      -7.1      4.091      7.833
REMARK  Name = 
REMARK  4 active torsions:
REMARK  status: ('A' for Active; 'I' for Inactive)
REMARK    1  A    between atoms: N_2  and  C_4
REMARK    2  A    between atoms: C_8  and  C_9
REMARK    3  A    between atoms: N_10  and  N_11
REMARK    4  A    between atoms: C_22  and  O_23
REMARK                            x       y       z     vdW  Elec       q    Type
REMARK                         _______ _______ _______ _____ _____    ______ ____
ROOT
ATOM      1  C   UNL     1       1.463  10.806  18.497  0.00  0.00    +0.000 C 
ATOM      2  N   UNL     1       2.036   9.639  18.415  0.00  0.00    +0.000 NA
ENDROOT
BRANCH   2   3
ATOM      3  N   UNL     1       1.603   8.638  19.216  0.00  0.00    +0.000 N 
ATOM      4  C   UNL     1       2.264   7.389  19.200  0.00  0.00    +0.000 A 
ATOM      5  C   UNL     1       3.015   7.009  18.095  0.00  0.00    +0.000 A 
ATOM      6  C   UNL     1       3.497   5.711  18.016  0.00  0.00    +0.000 A 
ATOM      7  C   UNL     1       3.198   4.808  19.035  0.00  0.00    +0.000 A 
ATOM      8  C   UNL     1       3.630   3.473  18.967  0.00  0.00    +0.000 A 
ATOM      9  C   UNL     1       3.299   2.577  19.979  0.00  0.00    +0.000 A 
ATOM     10  C   UNL     1       2.543   3.015  21.060  0.00  0.00    +0.000 A 
ATOM     11  C   UNL     1       2.122   4.350  21.126  0.00  0.00    +0.000 A 
ATOM     12  C   UNL     1       2.436   5.269  20.129  0.00  0.00    +0.000 A 
ATOM     13  N   UNL     1       1.986   6.538  20.211  0.00  0.00    +0.000 NA
ATOM     14  H   UNL     1       1.243   8.824  20.156  0.00  0.00    +0.000 HD
ENDBRANCH   2   3
BRANCH   1  19
ATOM     15  C   UNL     1      -0.918  11.743  21.298  0.00  0.00    +0.000 A 
ATOM     16  C   UNL     1      -2.022  12.197  20.569  0.00  0.00    +0.000 A 
ATOM     17  C   UNL     1      -1.991  12.113  19.178  0.00  0.00    +0.000 A 
ATOM     18  C   UNL     1      -0.838  11.653  18.533  0.00  0.00    +0.000 A 
ATOM     19  C   UNL     1       0.276  11.228  19.276  0.00  0.00    +0.000 A 
ATOM     20  C   UNL     1       0.196  11.188  20.672  0.00  0.00    +0.000 A 
BRANCH  15  22
ATOM     21  O   UNL     1      -0.798  10.938  23.445  0.00  0.00    +0.000 OA
ATOM     22  N   UNL     1      -0.911  11.945  22.734  0.00  0.00    +0.000 N 
ATOM     23  O   UNL     1      -1.115  13.099  23.145  0.00  0.00    +0.000 OA
ENDBRANCH  15  22
BRANCH  20  24
ATOM     24  O   UNL     1       1.116  10.532  21.439  0.00  0.00    +0.000 OA
ATOM     25  H   UNL     1       0.635  10.013  22.117  0.00  0.00    +0.000 HD
ENDBRANCH  20  24
ENDBRANCH   1  19
TORSDOF 4
ENDMDL
