MODEL 1
REMARK VINA RESULT:      -8.3      0.000      0.000
REMARK  Name = 
REMARK  8 active torsions:
REMARK  status: ('A' for Active; 'I' for Inactive)
REMARK    1  A    between atoms: C_1  and  C_2
REMARK    2  A    between atoms: C_2  and  C_3
REMARK    3  A    between atoms: C_3  and  C_4
REMARK    4  A    between atoms: C_3  and  N_11
REMARK    5  A    between atoms: C_4  and  N_5
REMARK    6  A    between atoms: C_15  and  C_16
REMARK    7  A    between atoms: N_24  and  C_25
REMARK    8  A    between atoms: C_25  and  C_26
REMARK                            x       y       z     vdW  Elec       q    Type
REMARK                         _______ _______ _______ _____ _____    ______ ____
ROOT
ATOM      1  N   UNL     1       3.644   3.580  19.957  0.00  0.00    +0.000 N 
ATOM      2  C   UNL     1       3.492   2.480  20.738  0.00  0.00    +0.000 A 
ATOM      3  N   UNL     1       2.520   2.616  21.655  0.00  0.00    +0.000 NA
ATOM      4  C   UNL     1       2.022   3.844  21.460  0.00  0.00    +0.000 A 
ATOM      5  C   UNL     1       2.715   4.469  20.438  0.00  0.00    +0.000 A 
ENDROOT
BRANCH   5   6
ATOM      6  C   UNL     1       2.380   5.870  19.986  0.00  0.00    +0.000 A 
ATOM      7  C   UNL     1       2.644   6.335  18.678  0.00  0.00    +0.000 A 
ATOM      8  C   UNL     1       2.352   7.655  18.297  0.00  0.00    +0.000 A 
ATOM      9  C   UNL     1       1.766   8.510  19.240  0.00  0.00    +0.000 A 
ATOM     10  C   UNL     1       1.469   8.076  20.497  0.00  0.00    +0.000 A 
ATOM     11  C   UNL     1       1.783   6.778  20.910  0.00  0.00    +0.000 A 
ATOM     12  C   UNL     1       0.855   9.184  21.295  0.00  0.00    +0.000 C 
ATOM     13  C   UNL     1       0.734  10.337  20.269  0.00  0.00    +0.000 C 
ATOM     14  N   UNL     1       1.428   9.870  19.082  0.00  0.00    +0.000 N 
BRANCH  14  15
ATOM     15  C   UNL     1       1.794  10.724  17.965  0.00  0.00    +0.000 C 
ATOM     16  C   UNL     1       2.129  12.143  18.401  0.00  0.00    +0.000 C 
ENDBRANCH  14  15
ENDBRANCH   5   6
BRANCH   1  17
ATOM     17  C   UNL     1       4.573   3.715  18.796  0.00  0.00    +0.000 C 
BRANCH  17  19
ATOM     18  C   UNL     1       2.569   3.121  17.068  0.00  0.00    +0.000 C 
ATOM     19  C   UNL     1       3.915   3.806  17.366  0.00  0.00    +0.000 C 
ENDBRANCH  17  19
BRANCH  17  20
ATOM     20  C   UNL     1       5.483   4.985  18.961  0.00  0.00    +0.000 C 
BRANCH  20  21
ATOM     21  N   UNL     1       6.904   4.854  18.540  0.00  0.00    +0.000 NA
ATOM     22  C   UNL     1       7.651   6.109  18.798  0.00  0.00    +0.000 C 
ATOM     23  C   UNL     1       7.391   7.163  17.698  0.00  0.00    +0.000 C 
ATOM     24  O   UNL     1       7.746   6.655  16.428  0.00  0.00    +0.000 OA
ATOM     25  C   UNL     1       6.931   5.538  16.134  0.00  0.00    +0.000 C 
ATOM     26  C   UNL     1       7.179   4.417  17.153  0.00  0.00    +0.000 C 
ENDBRANCH  20  21
ENDBRANCH  17  20
ENDBRANCH   1  17
TORSDOF 6
ENDMDL
MODEL 2
REMARK VINA RESULT:      -8.1      3.305      7.409
REMARK  Name = 
REMARK  8 active torsions:
REMARK  status: ('A' for Active; 'I' for Inactive)
REMARK    1  A    between atoms: C_1  and  C_2
REMARK    2  A    between atoms: C_2  and  C_3
REMARK    3  A    between atoms: C_3  and  C_4
REMARK    4  A    between atoms: C_3  and  N_11
REMARK    5  A    between atoms: C_4  and  N_5
REMARK    6  A    between atoms: C_15  and  C_16
REMARK    7  A    between atoms: N_24  and  C_25
REMARK    8  A    between atoms: C_25  and  C_26
REMARK                            x       y       z     vdW  Elec       q    Type
REMARK                         _______ _______ _______ _____ _____    ______ ____
ROOT
ATOM      1  N   UNL     1       6.020   5.405  18.794  0.00  0.00    +0.000 N 
ATOM      2  C   UNL     1       6.825   5.552  19.876  0.00  0.00    +0.000 A 
ATOM      3  N   UNL     1       8.102   5.210  19.634  0.00  0.00    +0.000 NA
ATOM      4  C   UNL     1       8.126   4.831  18.349  0.00  0.00    +0.000 A 
ATOM      5  C   UNL     1       6.852   4.915  17.816  0.00  0.00    +0.000 A 
ENDROOT
BRANCH   5   6
ATOM      6  C   UNL     1       6.561   4.553  16.379  0.00  0.00    +0.000 A 
ATOM      7  C   UNL     1       5.494   3.706  16.006  0.00  0.00    +0.000 A 
ATOM      8  C   UNL     1       5.268   3.361  14.663  0.00  0.00    +0.000 A 
ATOM      9  C   UNL     1       6.118   3.892  13.684  0.00  0.00    +0.000 A 
ATOM     10  C   UNL     1       7.134   4.738  14.014  0.00  0.00    +0.000 A 
ATOM     11  C   UNL     1       7.398   5.069  15.347  0.00  0.00    +0.000 A 
ATOM     12  C   UNL     1       7.881   5.155  12.786  0.00  0.00    +0.000 C 
ATOM     13  C   UNL     1       7.076   4.496  11.639  0.00  0.00    +0.000 C 
ATOM     14  N   UNL     1       6.096   3.649  12.294  0.00  0.00    +0.000 N 
BRANCH  14  15
ATOM     15  C   UNL     1       5.303   2.642  11.610  0.00  0.00    +0.000 C 
ATOM     16  C   UNL     1       3.970   3.185  11.118  0.00  0.00    +0.000 C 
ENDBRANCH  14  15
ENDBRANCH   5   6
BRANCH   1  17
ATOM     17  C   UNL     1       4.578   5.779  18.710  0.00  0.00    +0.000 C 
BRANCH  17  19
ATOM     18  C   UNL     1       3.118   7.804  17.651  0.00  0.00    +0.000 C 
ATOM     19  C   UNL     1       4.143   6.668  17.483  0.00  0.00    +0.000 C 
ENDBRANCH  17  19
BRANCH  17  20
ATOM     20  C   UNL     1       3.673   4.494  18.685  0.00  0.00    +0.000 C 
BRANCH  20  21
ATOM     21  N   UNL     1       2.227   4.682  18.976  0.00  0.00    +0.000 NA
ATOM     22  C   UNL     1       2.021   5.111  20.381  0.00  0.00    +0.000 C 
ATOM     23  C   UNL     1       2.091   3.914  21.357  0.00  0.00    +0.000 C 
ATOM     24  O   UNL     1       1.131   2.935  21.015  0.00  0.00    +0.000 OA
ATOM     25  C   UNL     1       1.419   2.437  19.725  0.00  0.00    +0.000 C 
ATOM     26  C   UNL     1       1.307   3.560  18.684  0.00  0.00    +0.000 C 
ENDBRANCH  20  21
ENDBRANCH  17  20
ENDBRANCH   1  17
TORSDOF 6
ENDMDL
MODEL 3
REMARK VINA RESULT:      -8.0      3.313      7.449
REMARK  Name = 
REMARK  8 active torsions:
REMARK  status: ('A' for Active; 'I' for Inactive)
REMARK    1  A    between atoms: C_1  and  C_2
REMARK    2  A    between atoms: C_2  and  C_3
REMARK    3  A    between atoms: C_3  and  C_4
REMARK    4  A    between atoms: C_3  and  N_11
REMARK    5  A    between atoms: C_4  and  N_5
REMARK    6  A    between atoms: C_15  and  C_16
REMARK    7  A    between atoms: N_24  and  C_25
REMARK    8  A    between atoms: C_25  and  C_26
REMARK                            x       y       z     vdW  Elec       q    Type
REMARK                         _______ _______ _______ _____ _____    ______ ____
ROOT
ATOM      1  N   UNL     1       5.907   5.407  18.705  0.00  0.00    +0.000 N 
ATOM      2  C   UNL     1       6.689   5.573  19.802  0.00  0.00    +0.000 A 
ATOM      3  N   UNL     1       7.976   5.259  19.584  0.00  0.00    +0.000 NA
ATOM      4  C   UNL     1       8.032   4.877  18.301  0.00  0.00    +0.000 A 
ATOM      5  C   UNL     1       6.767   4.933  17.744  0.00  0.00    +0.000 A 
ENDROOT
BRANCH   5   6
ATOM      6  C   UNL     1       6.511   4.561  16.304  0.00  0.00    +0.000 A 
ATOM      7  C   UNL     1       5.462   3.699  15.911  0.00  0.00    +0.000 A 
ATOM      8  C   UNL     1       5.269   3.346  14.566  0.00  0.00    +0.000 A 
ATOM      9  C   UNL     1       6.131   3.884  13.602  0.00  0.00    +0.000 A 
ATOM     10  C   UNL     1       7.130   4.744  13.950  0.00  0.00    +0.000 A 
ATOM     11  C   UNL     1       7.362   5.084  15.286  0.00  0.00    +0.000 A 
ATOM     12  C   UNL     1       7.897   5.165  12.736  0.00  0.00    +0.000 C 
ATOM     13  C   UNL     1       7.124   4.492  11.575  0.00  0.00    +0.000 C 
ATOM     14  N   UNL     1       6.142   3.635  12.214  0.00  0.00    +0.000 N 
BRANCH  14  15
ATOM     15  C   UNL     1       5.376   2.615  11.517  0.00  0.00    +0.000 C 
ATOM     16  C   UNL     1       4.000   3.108  11.092  0.00  0.00    +0.000 C 
ENDBRANCH  14  15
ENDBRANCH   5   6
BRANCH   1  17
ATOM     17  C   UNL     1       4.458   5.750  18.594  0.00  0.00    +0.000 C 
BRANCH  17  19
ATOM     18  C   UNL     1       3.085   7.906  17.690  0.00  0.00    +0.000 C 
ATOM     19  C   UNL     1       4.047   6.733  17.432  0.00  0.00    +0.000 C 
ENDBRANCH  17  19
BRANCH  17  20
ATOM     20  C   UNL     1       3.594   4.449  18.418  0.00  0.00    +0.000 C 
BRANCH  20  21
ATOM     21  N   UNL     1       3.368   3.622  19.634  0.00  0.00    +0.000 NA
ATOM     22  C   UNL     1       2.856   2.277  19.273  0.00  0.00    +0.000 C 
ATOM     23  C   UNL     1       1.339   2.306  18.975  0.00  0.00    +0.000 C 
ATOM     24  O   UNL     1       0.623   2.802  20.088  0.00  0.00    +0.000 OA
ATOM     25  C   UNL     1       1.024   4.133  20.339  0.00  0.00    +0.000 C 
ATOM     26  C   UNL     1       2.513   4.180  20.705  0.00  0.00    +0.000 C 
ENDBRANCH  20  21
ENDBRANCH  17  20
ENDBRANCH   1  17
TORSDOF 6
ENDMDL
MODEL 4
REMARK VINA RESULT:      -7.9      0.583      1.503
REMARK  Name = 
REMARK  8 active torsions:
REMARK  status: ('A' for Active; 'I' for Inactive)
REMARK    1  A    between atoms: C_1  and  C_2
REMARK    2  A    between atoms: C_2  and  C_3
REMARK    3  A    between atoms: C_3  and  C_4
REMARK    4  A    between atoms: C_3  and  N_11
REMARK    5  A    between atoms: C_4  and  N_5
REMARK    6  A    between atoms: C_15  and  C_16
REMARK    7  A    between atoms: N_24  and  C_25
REMARK    8  A    between atoms: C_25  and  C_26
REMARK                            x       y       z     vdW  Elec       q    Type
REMARK                         _______ _______ _______ _____ _____    ______ ____
ROOT
ATOM      1  N   UNL     1       3.674   3.568  20.025  0.00  0.00    +0.000 N 
ATOM      2  C   UNL     1       3.640   2.412  20.736  0.00  0.00    +0.000 A 
ATOM      3  N   UNL     1       2.756   2.441  21.747  0.00  0.00    +0.000 NA
ATOM      4  C   UNL     1       2.196   3.657  21.688  0.00  0.00    +0.000 A 
ATOM      5  C   UNL     1       2.763   4.381  20.654  0.00  0.00    +0.000 A 
ENDROOT
BRANCH   5   6
ATOM      6  C   UNL     1       2.333   5.793  20.338  0.00  0.00    +0.000 A 
ATOM      7  C   UNL     1       1.562   6.575  21.227  0.00  0.00    +0.000 A 
ATOM      8  C   UNL     1       1.150   7.875  20.890  0.00  0.00    +0.000 A 
ATOM      9  C   UNL     1       1.537   8.399  19.650  0.00  0.00    +0.000 A 
ATOM     10  C   UNL     1       2.308   7.679  18.788  0.00  0.00    +0.000 A 
ATOM     11  C   UNL     1       2.702   6.371  19.088  0.00  0.00    +0.000 A 
ATOM     12  C   UNL     1       2.573   8.469  17.546  0.00  0.00    +0.000 C 
ATOM     13  C   UNL     1       1.914   9.838  17.847  0.00  0.00    +0.000 C 
ATOM     14  N   UNL     1       1.204   9.655  19.099  0.00  0.00    +0.000 N 
BRANCH  14  15
ATOM     15  C   UNL     1       0.229  10.594  19.626  0.00  0.00    +0.000 C 
ATOM     16  C   UNL     1       0.691  12.040  19.513  0.00  0.00    +0.000 C 
ENDBRANCH  14  15
ENDBRANCH   5   6
BRANCH   1  17
ATOM     17  C   UNL     1       4.481   3.823  18.795  0.00  0.00    +0.000 C 
BRANCH  17  19
ATOM     18  C   UNL     1       2.363   3.387  17.161  0.00  0.00    +0.000 C 
ATOM     19  C   UNL     1       3.681   4.118  17.469  0.00  0.00    +0.000 C 
ENDBRANCH  17  19
BRANCH  17  20
ATOM     20  C   UNL     1       5.458   5.034  19.017  0.00  0.00    +0.000 C 
BRANCH  20  21
ATOM     21  N   UNL     1       6.866   4.854  18.570  0.00  0.00    +0.000 NA
ATOM     22  C   UNL     1       7.658   6.085  18.804  0.00  0.00    +0.000 C 
ATOM     23  C   UNL     1       7.413   7.139  17.700  0.00  0.00    +0.000 C 
ATOM     24  O   UNL     1       7.726   6.609  16.427  0.00  0.00    +0.000 OA
ATOM     25  C   UNL     1       6.871   5.517  16.159  0.00  0.00    +0.000 C 
ATOM     26  C   UNL     1       7.101   4.397  17.182  0.00  0.00    +0.000 C 
ENDBRANCH  20  21
ENDBRANCH  17  20
ENDBRANCH   1  17
TORSDOF 6
ENDMDL
MODEL 5
REMARK VINA RESULT:      -7.6      1.247      2.183
REMARK  Name = 
REMARK  8 active torsions:
REMARK  status: ('A' for Active; 'I' for Inactive)
REMARK    1  A    between atoms: C_1  and  C_2
REMARK    2  A    between atoms: C_2  and  C_3
REMARK    3  A    between atoms: C_3  and  C_4
REMARK    4  A    between atoms: C_3  and  N_11
REMARK    5  A    between atoms: C_4  and  N_5
REMARK    6  A    between atoms: C_15  and  C_16
REMARK    7  A    between atoms: N_24  and  C_25
REMARK    8  A    between atoms: C_25  and  C_26
REMARK                            x       y       z     vdW  Elec       q    Type
REMARK                         _______ _______ _______ _____ _____    ______ ____
ROOT
ATOM      1  N   UNL     1       3.911   4.205  19.476  0.00  0.00    +0.000 N 
ATOM      2  C   UNL     1       3.781   2.943  19.956  0.00  0.00    +0.000 A 
ATOM      3  N   UNL     1       2.651   2.760  20.659  0.00  0.00    +0.000 NA
ATOM      4  C   UNL     1       2.026   3.944  20.632  0.00  0.00    +0.000 A 
ATOM      5  C   UNL     1       2.793   4.859  19.933  0.00  0.00    +0.000 A 
ENDROOT
BRANCH   5   6
ATOM      6  C   UNL     1       2.347   6.287  19.731  0.00  0.00    +0.000 A 
ATOM      7  C   UNL     1       2.545   6.985  18.518  0.00  0.00    +0.000 A 
ATOM      8  C   UNL     1       2.148   8.325  18.371  0.00  0.00    +0.000 A 
ATOM      9  C   UNL     1       1.526   8.961  19.453  0.00  0.00    +0.000 A 
ATOM     10  C   UNL     1       1.292   8.300  20.621  0.00  0.00    +0.000 A 
ATOM     11  C   UNL     1       1.709   6.978  20.803  0.00  0.00    +0.000 A 
ATOM     12  C   UNL     1       0.620   9.207  21.604  0.00  0.00    +0.000 C 
ATOM     13  C   UNL     1       0.391  10.505  20.791  0.00  0.00    +0.000 C 
ATOM     14  N   UNL     1       1.087  10.299  19.534  0.00  0.00    +0.000 N 
BRANCH  14  15
ATOM     15  C   UNL     1       1.363  11.355  18.575  0.00  0.00    +0.000 C 
ATOM     16  C   UNL     1       0.699  12.672  18.950  0.00  0.00    +0.000 C 
ENDBRANCH  14  15
ENDBRANCH   5   6
BRANCH   1  17
ATOM     17  C   UNL     1       5.003   4.703  18.588  0.00  0.00    +0.000 C 
BRANCH  17  19
ATOM     18  C   UNL     1       7.343   5.657  19.571  0.00  0.00    +0.000 C 
ATOM     19  C   UNL     1       6.482   4.477  19.085  0.00  0.00    +0.000 C 
ENDBRANCH  17  19
BRANCH  17  20
ATOM     20  C   UNL     1       4.897   4.050  17.162  0.00  0.00    +0.000 C 
BRANCH  20  21
ATOM     21  N   UNL     1       4.857   4.976  15.999  0.00  0.00    +0.000 NA
ATOM     22  C   UNL     1       5.424   4.333  14.789  0.00  0.00    +0.000 C 
ATOM     23  C   UNL     1       6.970   4.366  14.798  0.00  0.00    +0.000 C 
ATOM     24  O   UNL     1       7.439   5.695  14.891  0.00  0.00    +0.000 OA
ATOM     25  C   UNL     1       7.004   6.254  16.114  0.00  0.00    +0.000 C 
ATOM     26  C   UNL     1       5.471   6.314  16.155  0.00  0.00    +0.000 C 
ENDBRANCH  20  21
ENDBRANCH  17  20
ENDBRANCH   1  17
TORSDOF 6
ENDMDL
MODEL 6
REMARK VINA RESULT:      -7.6      1.542      2.440
REMARK  Name = 
REMARK  8 active torsions:
REMARK  status: ('A' for Active; 'I' for Inactive)
REMARK    1  A    between atoms: C_1  and  C_2
REMARK    2  A    between atoms: C_2  and  C_3
REMARK    3  A    between atoms: C_3  and  C_4
REMARK    4  A    between atoms: C_3  and  N_11
REMARK    5  A    between atoms: C_4  and  N_5
REMARK    6  A    between atoms: C_15  and  C_16
REMARK    7  A    between atoms: N_24  and  C_25
REMARK    8  A    between atoms: C_25  and  C_26
REMARK                            x       y       z     vdW  Elec       q    Type
REMARK                         _______ _______ _______ _____ _____    ______ ____
ROOT
ATOM      1  N   UNL     1       4.270   4.963  19.237  0.00  0.00    +0.000 N 
ATOM      2  C   UNL     1       4.231   3.618  19.412  0.00  0.00    +0.000 A 
ATOM      3  N   UNL     1       3.007   3.163  19.729  0.00  0.00    +0.000 NA
ATOM      4  C   UNL     1       2.225   4.251  19.759  0.00  0.00    +0.000 A 
ATOM      5  C   UNL     1       2.983   5.376  19.486  0.00  0.00    +0.000 A 
ENDROOT
BRANCH   5   6
ATOM      6  C   UNL     1       2.376   6.758  19.446  0.00  0.00    +0.000 A 
ATOM      7  C   UNL     1       2.389   7.565  18.286  0.00  0.00    +0.000 A 
ATOM      8  C   UNL     1       1.846   8.860  18.289  0.00  0.00    +0.000 A 
ATOM      9  C   UNL     1       1.264   9.339  19.471  0.00  0.00    +0.000 A 
ATOM     10  C   UNL     1       1.208   8.568  20.593  0.00  0.00    +0.000 A 
ATOM     11  C   UNL     1       1.772   7.289  20.623  0.00  0.00    +0.000 A 
ATOM     12  C   UNL     1       0.540   9.317  21.703  0.00  0.00    +0.000 C 
ATOM     13  C   UNL     1       0.105  10.641  21.028  0.00  0.00    +0.000 C 
ATOM     14  N   UNL     1       0.700  10.611  19.704  0.00  0.00    +0.000 N 
BRANCH  14  15
ATOM     15  C   UNL     1       0.777  11.761  18.820  0.00  0.00    +0.000 C 
ATOM     16  C   UNL     1       1.699  12.848  19.355  0.00  0.00    +0.000 C 
ENDBRANCH  14  15
ENDBRANCH   5   6
BRANCH   1  17
ATOM     17  C   UNL     1       5.452   5.761  18.796  0.00  0.00    +0.000 C 
BRANCH  17  19
ATOM     18  C   UNL     1       8.102   6.219  19.139  0.00  0.00    +0.000 C 
ATOM     19  C   UNL     1       6.842   5.388  19.439  0.00  0.00    +0.000 C 
ENDBRANCH  17  19
BRANCH  17  20
ATOM     20  C   UNL     1       5.630   5.668  17.237  0.00  0.00    +0.000 C 
BRANCH  20  21
ATOM     21  N   UNL     1       6.114   4.372  16.691  0.00  0.00    +0.000 NA
ATOM     22  C   UNL     1       7.416   4.540  16.000  0.00  0.00    +0.000 C 
ATOM     23  C   UNL     1       7.233   5.105  14.572  0.00  0.00    +0.000 C 
ATOM     24  O   UNL     1       6.395   4.263  13.807  0.00  0.00    +0.000 OA
ATOM     25  C   UNL     1       5.116   4.218  14.404  0.00  0.00    +0.000 C 
ATOM     26  C   UNL     1       5.205   3.607  15.808  0.00  0.00    +0.000 C 
ENDBRANCH  20  21
ENDBRANCH  17  20
ENDBRANCH   1  17
TORSDOF 6
ENDMDL
MODEL 7
REMARK VINA RESULT:      -7.5      1.313      2.586
REMARK  Name = 
REMARK  8 active torsions:
REMARK  status: ('A' for Active; 'I' for Inactive)
REMARK    1  A    between atoms: C_1  and  C_2
REMARK    2  A    between atoms: C_2  and  C_3
REMARK    3  A    between atoms: C_3  and  C_4
REMARK    4  A    between atoms: C_3  and  N_11
REMARK    5  A    between atoms: C_4  and  N_5
REMARK    6  A    between atoms: C_15  and  C_16
REMARK    7  A    between atoms: N_24  and  C_25
REMARK    8  A    between atoms: C_25  and  C_26
REMARK                            x       y       z     vdW  Elec       q    Type
REMARK                         _______ _______ _______ _____ _____    ______ ____
ROOT
ATOM      1  N   UNL     1       3.564   4.061  19.392  0.00  0.00    +0.000 N 
ATOM      2  C   UNL     1       3.340   2.742  19.625  0.00  0.00    +0.000 A 
ATOM      3  N   UNL     1       2.158   2.505  20.216  0.00  0.00    +0.000 NA
ATOM      4  C   UNL     1       1.594   3.710  20.370  0.00  0.00    +0.000 A 
ATOM      5  C   UNL     1       2.450   4.688  19.896  0.00  0.00    +0.000 A 
ENDROOT
BRANCH   5   6
ATOM      6  C   UNL     1       2.088   6.153  19.932  0.00  0.00    +0.000 A 
ATOM      7  C   UNL     1       1.539   6.777  21.075  0.00  0.00    +0.000 A 
ATOM      8  C   UNL     1       1.182   8.135  21.068  0.00  0.00    +0.000 A 
ATOM      9  C   UNL     1       1.401   8.878  19.901  0.00  0.00    +0.000 A 
ATOM     10  C   UNL     1       1.961   8.310  18.796  0.00  0.00    +0.000 A 
ATOM     11  C   UNL     1       2.293   6.952  18.769  0.00  0.00    +0.000 A 
ATOM     12  C   UNL     1       2.081   9.319  17.698  0.00  0.00    +0.000 C 
ATOM     13  C   UNL     1       1.593  10.629  18.364  0.00  0.00    +0.000 C 
ATOM     14  N   UNL     1       1.084  10.233  19.665  0.00  0.00    +0.000 N 
BRANCH  14  15
ATOM     15  C   UNL     1       0.287  11.092  20.523  0.00  0.00    +0.000 C 
ATOM     16  C   UNL     1       0.809  12.521  20.565  0.00  0.00    +0.000 C 
ENDBRANCH  14  15
ENDBRANCH   5   6
BRANCH   1  17
ATOM     17  C   UNL     1       4.736   4.643  18.675  0.00  0.00    +0.000 C 
BRANCH  17  19
ATOM     18  C   UNL     1       7.121   5.637  19.496  0.00  0.00    +0.000 C 
ATOM     19  C   UNL     1       6.149   4.453  19.349  0.00  0.00    +0.000 C 
ENDBRANCH  17  19
BRANCH  17  20
ATOM     20  C   UNL     1       4.843   4.055  17.221  0.00  0.00    +0.000 C 
BRANCH  20  21
ATOM     21  N   UNL     1       4.829   5.030  16.098  0.00  0.00    +0.000 NA
ATOM     22  C   UNL     1       5.390   4.426  14.865  0.00  0.00    +0.000 C 
ATOM     23  C   UNL     1       6.936   4.426  14.883  0.00  0.00    +0.000 C 
ATOM     24  O   UNL     1       7.432   5.741  15.035  0.00  0.00    +0.000 OA
ATOM     25  C   UNL     1       7.000   6.257  16.278  0.00  0.00    +0.000 C 
ATOM     26  C   UNL     1       5.469   6.347  16.313  0.00  0.00    +0.000 C 
ENDBRANCH  20  21
ENDBRANCH  17  20
ENDBRANCH   1  17
TORSDOF 6
ENDMDL
MODEL 8
REMARK VINA RESULT:      -7.5      1.838      2.927
REMARK  Name = 
REMARK  8 active torsions:
REMARK  status: ('A' for Active; 'I' for Inactive)
REMARK    1  A    between atoms: C_1  and  C_2
REMARK    2  A    between atoms: C_2  and  C_3
REMARK    3  A    between atoms: C_3  and  C_4
REMARK    4  A    between atoms: C_3  and  N_11
REMARK    5  A    between atoms: C_4  and  N_5
REMARK    6  A    between atoms: C_15  and  C_16
REMARK    7  A    between atoms: N_24  and  C_25
REMARK    8  A    between atoms: C_25  and  C_26
REMARK                            x       y       z     vdW  Elec       q    Type
REMARK                         _______ _______ _______ _____ _____    ______ ____
ROOT
ATOM      1  N   UNL     1       4.690   5.523  18.571  0.00  0.00    +0.000 N 
ATOM      2  C   UNL     1       4.963   4.232  18.887  0.00  0.00    +0.000 A 
ATOM      3  N   UNL     1       3.998   3.654  19.621  0.00  0.00    +0.000 NA
ATOM      4  C   UNL     1       3.066   4.602  19.785  0.00  0.00    +0.000 A 
ATOM      5  C   UNL     1       3.479   5.771  19.172  0.00  0.00    +0.000 A 
ENDROOT
BRANCH   5   6
ATOM      6  C   UNL     1       2.634   7.022  19.184  0.00  0.00    +0.000 A 
ATOM      7  C   UNL     1       2.464   7.841  18.045  0.00  0.00    +0.000 A 
ATOM      8  C   UNL     1       1.698   9.017  18.096  0.00  0.00    +0.000 A 
ATOM      9  C   UNL     1       1.079   9.360  19.306  0.00  0.00    +0.000 A 
ATOM     10  C   UNL     1       1.199   8.570  20.409  0.00  0.00    +0.000 A 
ATOM     11  C   UNL     1       1.984   7.413  20.391  0.00  0.00    +0.000 A 
ATOM     12  C   UNL     1       0.445   9.165  21.557  0.00  0.00    +0.000 C 
ATOM     13  C   UNL     1      -0.241  10.402  20.928  0.00  0.00    +0.000 C 
ATOM     14  N   UNL     1       0.305  10.505  19.587  0.00  0.00    +0.000 N 
BRANCH  14  15
ATOM     15  C   UNL     1       0.145  11.668  18.730  0.00  0.00    +0.000 C 
ATOM     16  C   UNL     1      -0.801  12.702  19.321  0.00  0.00    +0.000 C 
ENDBRANCH  14  15
ENDBRANCH   5   6
BRANCH   1  17
ATOM     17  C   UNL     1       5.514   6.411  17.698  0.00  0.00    +0.000 C 
BRANCH  17  19
ATOM     18  C   UNL     1       7.804   7.862  17.667  0.00  0.00    +0.000 C 
ATOM     19  C   UNL     1       7.022   6.612  18.110  0.00  0.00    +0.000 C 
ENDBRANCH  17  19
BRANCH  17  20
ATOM     20  C   UNL     1       5.511   5.885  16.217  0.00  0.00    +0.000 C 
BRANCH  20  21
ATOM     21  N   UNL     1       6.290   4.648  15.941  0.00  0.00    +0.000 NA
ATOM     22  C   UNL     1       7.530   4.959  15.189  0.00  0.00    +0.000 C 
ATOM     23  C   UNL     1       7.249   5.153  13.681  0.00  0.00    +0.000 C 
ATOM     24  O   UNL     1       6.642   3.999  13.136  0.00  0.00    +0.000 OA
ATOM     25  C   UNL     1       5.396   3.790  13.769  0.00  0.00    +0.000 C 
ATOM     26  C   UNL     1       5.598   3.527  15.267  0.00  0.00    +0.000 C 
ENDBRANCH  20  21
ENDBRANCH  17  20
ENDBRANCH   1  17
TORSDOF 6
ENDMDL
MODEL 9
REMARK VINA RESULT:      -7.5      2.819      7.337
REMARK  Name = 
REMARK  8 active torsions:
REMARK  status: ('A' for Active; 'I' for Inactive)
REMARK    1  A    between atoms: C_1  and  C_2
REMARK    2  A    between atoms: C_2  and  C_3
REMARK    3  A    between atoms: C_3  and  C_4
REMARK    4  A    between atoms: C_3  and  N_11
REMARK    5  A    between atoms: C_4  and  N_5
REMARK    6  A    between atoms: C_15  and  C_16
REMARK    7  A    between atoms: N_24  and  C_25
REMARK    8  A    between atoms: C_25  and  C_26
REMARK                            x       y       z     vdW  Elec       q    Type
REMARK                         _______ _______ _______ _____ _____    ______ ____
ROOT
ATOM      1  N   UNL     1       0.069  10.445  20.731  0.00  0.00    +0.000 N 
ATOM      2  C   UNL     1      -0.374  11.101  21.834  0.00  0.00    +0.000 A 
ATOM      3  N   UNL     1      -0.090  10.459  22.979  0.00  0.00    +0.000 NA
ATOM      4  C   UNL     1       0.563   9.349  22.606  0.00  0.00    +0.000 A 
ATOM      5  C   UNL     1       0.650   9.303  21.227  0.00  0.00    +0.000 A 
ENDROOT
BRANCH   5   6
ATOM      6  C   UNL     1       1.337   8.167  20.507  0.00  0.00    +0.000 A 
ATOM      7  C   UNL     1       1.969   8.327  19.253  0.00  0.00    +0.000 A 
ATOM      8  C   UNL     1       2.570   7.243  18.593  0.00  0.00    +0.000 A 
ATOM      9  C   UNL     1       2.553   5.987  19.214  0.00  0.00    +0.000 A 
ATOM     10  C   UNL     1       1.980   5.813  20.439  0.00  0.00    +0.000 A 
ATOM     11  C   UNL     1       1.345   6.870  21.099  0.00  0.00    +0.000 A 
ATOM     12  C   UNL     1       2.099   4.385  20.868  0.00  0.00    +0.000 C 
ATOM     13  C   UNL     1       2.938   3.742  19.736  0.00  0.00    +0.000 C 
ATOM     14  N   UNL     1       3.058   4.768  18.717  0.00  0.00    +0.000 N 
BRANCH  14  15
ATOM     15  C   UNL     1       3.536   4.522  17.367  0.00  0.00    +0.000 C 
ATOM     16  C   UNL     1       5.055   4.536  17.274  0.00  0.00    +0.000 C 
ENDBRANCH  14  15
ENDBRANCH   5   6
BRANCH   1  17
ATOM     17  C   UNL     1      -0.010  10.934  19.323  0.00  0.00    +0.000 C 
BRANCH  17  19
ATOM     18  C   UNL     1      -1.717  10.014  17.429  0.00  0.00    +0.000 C 
ATOM     19  C   UNL     1      -1.432  10.916  18.643  0.00  0.00    +0.000 C 
ENDBRANCH  17  19
BRANCH  17  20
ATOM     20  C   UNL     1       0.527  12.408  19.219  0.00  0.00    +0.000 C 
BRANCH  20  21
ATOM     21  N   UNL     1       1.988  12.607  19.411  0.00  0.00    +0.000 NA
ATOM     22  C   UNL     1       2.259  13.379  20.648  0.00  0.00    +0.000 C 
ATOM     23  C   UNL     1       2.052  14.896  20.430  0.00  0.00    +0.000 C 
ATOM     24  O   UNL     1       2.881  15.367  19.387  0.00  0.00    +0.000 OA
ATOM     25  C   UNL     1       2.521  14.720  18.183  0.00  0.00    +0.000 C 
ATOM     26  C   UNL     1       2.760  13.208  18.300  0.00  0.00    +0.000 C 
ENDBRANCH  20  21
ENDBRANCH  17  20
ENDBRANCH   1  17
TORSDOF 6
ENDMDL
