MODEL 1
REMARK VINA RESULT:      -8.2      0.000      0.000
REMARK  Name = 
REMARK  6 active torsions:
REMARK  status: ('A' for Active; 'I' for Inactive)
REMARK    1  A    between atoms: C_1  and  N_2
REMARK    2  A    between atoms: C_6  and  C_7
REMARK    3  A    between atoms: C_10  and  N_11
REMARK    4  A    between atoms: N_11  and  C_12
REMARK    5  A    between atoms: C_19  and  O_20
REMARK    6  A    between atoms: C_23  and  C_24
REMARK                            x       y       z     vdW  Elec       q    Type
REMARK                         _______ _______ _______ _____ _____    ______ ____
ROOT
ATOM      1  C   UNL     1       6.333   3.632  13.682  0.00  0.00    +0.000 A 
ATOM      2  C   UNL     1       5.818   3.292  14.952  0.00  0.00    +0.000 A 
ATOM      3  C   UNL     1       6.213   4.268  15.858  0.00  0.00    +0.000 A 
ATOM      4  C   UNL     1       6.024   4.411  17.265  0.00  0.00    +0.000 A 
ATOM      5  C   UNL     1       6.747   5.397  17.842  0.00  0.00    +0.000 A 
ATOM      6  C   UNL     1       7.445   6.361  16.938  0.00  0.00    +0.000 A 
ATOM      7  N   UNL     1       7.573   6.276  15.652  0.00  0.00    +0.000 NA
ATOM      8  N   UNL     1       6.968   5.181  15.147  0.00  0.00    +0.000 N 
ATOM      9  C   UNL     1       7.058   4.790  13.835  0.00  0.00    +0.000 A 
ENDROOT
BRANCH   1  15
ATOM     10  C   UNL     1       3.812   3.580  11.802  0.00  0.00    +0.000 C 
ATOM     11  N   UNL     1       5.016   2.792  11.660  0.00  0.00    +0.000 N 
ATOM     12  N   UNL     1       5.148   1.979  10.589  0.00  0.00    +0.000 NA
ATOM     13  C   UNL     1       6.414   1.565  10.665  0.00  0.00    +0.000 A 
ATOM     14  C   UNL     1       7.097   2.106  11.771  0.00  0.00    +0.000 A 
ATOM     15  C   UNL     1       6.156   2.874  12.421  0.00  0.00    +0.000 A 
ENDBRANCH   1  15
BRANCH   5  16
ATOM     16  C   UNL     1       7.007   5.546  19.294  0.00  0.00    +0.000 C 
ATOM     17  N   UNL     1       8.104   6.281  19.629  0.00  0.00    +0.000 N 
ATOM     18  O   UNL     1       6.198   5.193  20.144  0.00  0.00    +0.000 OA
ATOM     19  H   UNL     1       8.691   6.701  18.923  0.00  0.00    +0.000 HD
ATOM     20  H   UNL     1       8.183   6.597  20.586  0.00  0.00    +0.000 HD
ENDBRANCH   5  16
BRANCH   4  21
ATOM     21  N   UNL     1       5.262   3.432  17.904  0.00  0.00    +0.000 N 
ATOM     22  H   UNL     1       5.782   2.897  18.593  0.00  0.00    +0.000 HD
BRANCH  21  23
ATOM     23  C   UNL     1       3.829   3.137  17.776  0.00  0.00    +0.000 C 
ATOM     24  C   UNL     1       3.270   2.205  18.889  0.00  0.00    +0.000 C 
ATOM     25  C   UNL     1       1.781   1.905  18.581  0.00  0.00    +0.000 C 
ATOM     26  C   UNL     1       0.953   3.205  18.589  0.00  0.00    +0.000 C 
ATOM     27  C   UNL     1       1.520   4.157  17.521  0.00  0.00    +0.000 C 
ATOM     28  C   UNL     1       3.008   4.462  17.810  0.00  0.00    +0.000 C 
ATOM     29  C   UNL     1       3.089   5.128  19.200  0.00  0.00    +0.000 C 
ATOM     30  C   UNL     1       2.528   4.187  20.277  0.00  0.00    +0.000 C 
ATOM     31  C   UNL     1       1.053   3.886  19.965  0.00  0.00    +0.000 C 
ATOM     32  C   UNL     1       3.313   2.867  20.279  0.00  0.00    +0.000 C 
BRANCH  30  33
ATOM     33  O   UNL     1       2.649   4.800  21.553  0.00  0.00    +0.000 OA
ATOM     34  H   UNL     1       2.764   4.099  22.219  0.00  0.00    +0.000 HD
ENDBRANCH  30  33
ENDBRANCH  21  23
ENDBRANCH   4  21
TORSDOF 5
ENDMDL
MODEL 2
REMARK VINA RESULT:      -8.1      3.436      7.479
REMARK  Name = 
REMARK  6 active torsions:
REMARK  status: ('A' for Active; 'I' for Inactive)
REMARK    1  A    between atoms: C_1  and  N_2
REMARK    2  A    between atoms: C_6  and  C_7
REMARK    3  A    between atoms: C_10  and  N_11
REMARK    4  A    between atoms: N_11  and  C_12
REMARK    5  A    between atoms: C_19  and  O_20
REMARK    6  A    between atoms: C_23  and  C_24
REMARK                            x       y       z     vdW  Elec       q    Type
REMARK                         _______ _______ _______ _____ _____    ______ ____
ROOT
ATOM      1  C   UNL     1       1.868   6.799  20.310  0.00  0.00    +0.000 A 
ATOM      2  C   UNL     1       3.117   6.286  19.898  0.00  0.00    +0.000 A 
ATOM      3  C   UNL     1       3.081   4.903  20.018  0.00  0.00    +0.000 A 
ATOM      4  C   UNL     1       4.060   3.889  19.793  0.00  0.00    +0.000 A 
ATOM      5  C   UNL     1       3.718   2.656  20.228  0.00  0.00    +0.000 A 
ATOM      6  C   UNL     1       2.300   2.443  20.650  0.00  0.00    +0.000 A 
ATOM      7  N   UNL     1       1.383   3.345  20.801  0.00  0.00    +0.000 NA
ATOM      8  N   UNL     1       1.829   4.584  20.508  0.00  0.00    +0.000 N 
ATOM      9  C   UNL     1       1.100   5.729  20.703  0.00  0.00    +0.000 A 
ENDROOT
BRANCH   1  15
ATOM     10  C   UNL     1       1.653   8.801  17.893  0.00  0.00    +0.000 C 
ATOM     11  N   UNL     1       1.460   9.107  19.293  0.00  0.00    +0.000 N 
ATOM     12  N   UNL     1       1.084  10.356  19.648  0.00  0.00    +0.000 NA
ATOM     13  C   UNL     1       0.815  10.244  20.950  0.00  0.00    +0.000 A 
ATOM     14  C   UNL     1       1.010   8.936  21.434  0.00  0.00    +0.000 A 
ATOM     15  C   UNL     1       1.461   8.224  20.345  0.00  0.00    +0.000 A 
ENDBRANCH   1  15
BRANCH   5  16
ATOM     16  C   UNL     1       4.647   1.520  20.434  0.00  0.00    +0.000 C 
ATOM     17  N   UNL     1       4.746   0.639  19.401  0.00  0.00    +0.000 N 
ATOM     18  O   UNL     1       5.416   1.467  21.387  0.00  0.00    +0.000 OA
ATOM     19  H   UNL     1       4.220   0.766  18.548  0.00  0.00    +0.000 HD
ATOM     20  H   UNL     1       5.525  -0.005  19.406  0.00  0.00    +0.000 HD
ENDBRANCH   5  16
BRANCH   4  21
ATOM     21  N   UNL     1       5.303   4.305  19.313  0.00  0.00    +0.000 N 
ATOM     22  H   UNL     1       5.855   4.811  20.000  0.00  0.00    +0.000 HD
BRANCH  21  23
ATOM     23  C   UNL     1       5.934   4.045  18.013  0.00  0.00    +0.000 C 
ATOM     24  C   UNL     1       4.926   3.839  16.846  0.00  0.00    +0.000 C 
ATOM     25  C   UNL     1       5.719   3.485  15.563  0.00  0.00    +0.000 C 
ATOM     26  C   UNL     1       6.668   4.637  15.176  0.00  0.00    +0.000 C 
ATOM     27  C   UNL     1       7.646   4.882  16.338  0.00  0.00    +0.000 C 
ATOM     28  C   UNL     1       6.870   5.231  17.629  0.00  0.00    +0.000 C 
ATOM     29  C   UNL     1       6.054   6.512  17.354  0.00  0.00    +0.000 C 
ATOM     30  C   UNL     1       5.071   6.281  16.197  0.00  0.00    +0.000 C 
ATOM     31  C   UNL     1       5.861   5.923  14.927  0.00  0.00    +0.000 C 
ATOM     32  C   UNL     1       4.126   5.119  16.536  0.00  0.00    +0.000 C 
BRANCH  30  33
ATOM     33  O   UNL     1       4.302   7.458  15.985  0.00  0.00    +0.000 OA
ATOM     34  H   UNL     1       3.436   7.195  15.624  0.00  0.00    +0.000 HD
ENDBRANCH  30  33
ENDBRANCH  21  23
ENDBRANCH   4  21
TORSDOF 5
ENDMDL
MODEL 3
REMARK VINA RESULT:      -8.0      3.158      5.032
REMARK  Name = 
REMARK  6 active torsions:
REMARK  status: ('A' for Active; 'I' for Inactive)
REMARK    1  A    between atoms: C_1  and  N_2
REMARK    2  A    between atoms: C_6  and  C_7
REMARK    3  A    between atoms: C_10  and  N_11
REMARK    4  A    between atoms: N_11  and  C_12
REMARK    5  A    between atoms: C_19  and  O_20
REMARK    6  A    between atoms: C_23  and  C_24
REMARK                            x       y       z     vdW  Elec       q    Type
REMARK                         _______ _______ _______ _____ _____    ______ ____
ROOT
ATOM      1  C   UNL     1       4.688   6.443  16.880  0.00  0.00    +0.000 A 
ATOM      2  C   UNL     1       4.113   6.056  18.110  0.00  0.00    +0.000 A 
ATOM      3  C   UNL     1       3.157   7.000  18.460  0.00  0.00    +0.000 A 
ATOM      4  C   UNL     1       2.314   7.142  19.603  0.00  0.00    +0.000 A 
ATOM      5  C   UNL     1       1.658   8.321  19.688  0.00  0.00    +0.000 A 
ATOM      6  C   UNL     1       1.687   9.214  18.490  0.00  0.00    +0.000 A 
ATOM      7  N   UNL     1       2.401   9.068  17.420  0.00  0.00    +0.000 NA
ATOM      8  N   UNL     1       3.162   7.954  17.460  0.00  0.00    +0.000 N 
ATOM      9  C   UNL     1       4.099   7.629  16.513  0.00  0.00    +0.000 A 
ENDROOT
BRANCH   1  15
ATOM     10  C   UNL     1       7.499   5.511  17.941  0.00  0.00    +0.000 C 
ATOM     11  N   UNL     1       7.006   5.409  16.586  0.00  0.00    +0.000 N 
ATOM     12  N   UNL     1       7.769   4.798  15.652  0.00  0.00    +0.000 NA
ATOM     13  C   UNL     1       6.958   4.707  14.597  0.00  0.00    +0.000 A 
ATOM     14  C   UNL     1       5.682   5.247  14.843  0.00  0.00    +0.000 A 
ATOM     15  C   UNL     1       5.749   5.728  16.133  0.00  0.00    +0.000 A 
ENDBRANCH   1  15
BRANCH   5  16
ATOM     16  C   UNL     1       1.005   8.865  20.903  0.00  0.00    +0.000 C 
ATOM     17  N   UNL     1      -0.134   9.580  20.695  0.00  0.00    +0.000 N 
ATOM     18  O   UNL     1       1.354   8.544  22.033  0.00  0.00    +0.000 OA
ATOM     19  H   UNL     1      -0.507   9.719  19.767  0.00  0.00    +0.000 HD
ATOM     20  H   UNL     1      -0.725   9.765  21.494  0.00  0.00    +0.000 HD
ENDBRANCH   5  16
BRANCH   4  21
ATOM     21  N   UNL     1       2.387   6.140  20.571  0.00  0.00    +0.000 N 
ATOM     22  H   UNL     1       3.025   6.355  21.332  0.00  0.00    +0.000 HD
BRANCH  21  23
ATOM     23  C   UNL     1       1.625   4.889  20.677  0.00  0.00    +0.000 C 
ATOM     24  C   UNL     1       1.131   4.327  19.313  0.00  0.00    +0.000 C 
ATOM     25  C   UNL     1       0.270   3.066  19.578  0.00  0.00    +0.000 C 
ATOM     26  C   UNL     1       1.109   1.972  20.269  0.00  0.00    +0.000 C 
ATOM     27  C   UNL     1       1.640   2.527  21.602  0.00  0.00    +0.000 C 
ATOM     28  C   UNL     1       2.497   3.789  21.356  0.00  0.00    +0.000 C 
ATOM     29  C   UNL     1       3.679   3.385  20.450  0.00  0.00    +0.000 C 
ATOM     30  C   UNL     1       3.163   2.832  19.113  0.00  0.00    +0.000 C 
ATOM     31  C   UNL     1       2.304   1.585  19.381  0.00  0.00    +0.000 C 
ATOM     32  C   UNL     1       2.299   3.887  18.408  0.00  0.00    +0.000 C 
BRANCH  30  33
ATOM     33  O   UNL     1       4.266   2.503  18.278  0.00  0.00    +0.000 OA
ATOM     34  H   UNL     1       4.983   3.138  18.456  0.00  0.00    +0.000 HD
ENDBRANCH  30  33
ENDBRANCH  21  23
ENDBRANCH   4  21
TORSDOF 5
ENDMDL
MODEL 4
REMARK VINA RESULT:      -8.0      3.462      7.731
REMARK  Name = 
REMARK  6 active torsions:
REMARK  status: ('A' for Active; 'I' for Inactive)
REMARK    1  A    between atoms: C_1  and  N_2
REMARK    2  A    between atoms: C_6  and  C_7
REMARK    3  A    between atoms: C_10  and  N_11
REMARK    4  A    between atoms: N_11  and  C_12
REMARK    5  A    between atoms: C_19  and  O_20
REMARK    6  A    between atoms: C_23  and  C_24
REMARK                            x       y       z     vdW  Elec       q    Type
REMARK                         _______ _______ _______ _____ _____    ______ ____
ROOT
ATOM      1  C   UNL     1       1.708   6.954  20.399  0.00  0.00    +0.000 A 
ATOM      2  C   UNL     1       2.907   6.433  19.866  0.00  0.00    +0.000 A 
ATOM      3  C   UNL     1       2.876   5.051  19.993  0.00  0.00    +0.000 A 
ATOM      4  C   UNL     1       3.823   4.031  19.674  0.00  0.00    +0.000 A 
ATOM      5  C   UNL     1       3.518   2.800  20.144  0.00  0.00    +0.000 A 
ATOM      6  C   UNL     1       2.149   2.596  20.705  0.00  0.00    +0.000 A 
ATOM      7  N   UNL     1       1.256   3.503  20.945  0.00  0.00    +0.000 NA
ATOM      8  N   UNL     1       1.677   4.739  20.606  0.00  0.00    +0.000 N 
ATOM      9  C   UNL     1       0.977   5.889  20.869  0.00  0.00    +0.000 A 
ENDROOT
BRANCH   1  15
ATOM     10  C   UNL     1       1.509   9.019  18.035  0.00  0.00    +0.000 C 
ATOM     11  N   UNL     1       1.321   9.291  19.442  0.00  0.00    +0.000 N 
ATOM     12  N   UNL     1       0.956  10.534  19.829  0.00  0.00    +0.000 NA
ATOM     13  C   UNL     1       0.688  10.390  21.128  0.00  0.00    +0.000 A 
ATOM     14  C   UNL     1       0.870   9.069  21.578  0.00  0.00    +0.000 A 
ATOM     15  C   UNL     1       1.315   8.381  20.471  0.00  0.00    +0.000 A 
ENDBRANCH   1  15
BRANCH   5  16
ATOM     16  C   UNL     1       4.457   1.660  20.259  0.00  0.00    +0.000 C 
ATOM     17  N   UNL     1       4.526   0.835  19.177  0.00  0.00    +0.000 N 
ATOM     18  O   UNL     1       5.256   1.559  21.182  0.00  0.00    +0.000 OA
ATOM     19  H   UNL     1       3.973   1.006  18.349  0.00  0.00    +0.000 HD
ATOM     20  H   UNL     1       5.307   0.196  19.122  0.00  0.00    +0.000 HD
ENDBRANCH   5  16
BRANCH   4  21
ATOM     21  N   UNL     1       5.013   4.439  19.072  0.00  0.00    +0.000 N 
ATOM     22  H   UNL     1       5.694   4.810  19.728  0.00  0.00    +0.000 HD
BRANCH  21  23
ATOM     23  C   UNL     1       5.433   4.330  17.668  0.00  0.00    +0.000 C 
ATOM     24  C   UNL     1       4.828   5.421  16.737  0.00  0.00    +0.000 C 
ATOM     25  C   UNL     1       5.277   5.133  15.282  0.00  0.00    +0.000 C 
ATOM     26  C   UNL     1       6.813   5.204  15.164  0.00  0.00    +0.000 C 
ATOM     27  C   UNL     1       7.428   4.159  16.111  0.00  0.00    +0.000 C 
ATOM     28  C   UNL     1       6.986   4.427  17.568  0.00  0.00    +0.000 C 
ATOM     29  C   UNL     1       7.477   5.838  17.955  0.00  0.00    +0.000 C 
ATOM     30  C   UNL     1       6.868   6.893  17.019  0.00  0.00    +0.000 C 
ATOM     31  C   UNL     1       7.309   6.600  15.575  0.00  0.00    +0.000 C 
ATOM     32  C   UNL     1       5.335   6.832  17.089  0.00  0.00    +0.000 C 
BRANCH  30  33
ATOM     33  O   UNL     1       7.300   8.187  17.416  0.00  0.00    +0.000 OA
ATOM     34  H   UNL     1       7.305   8.761  16.629  0.00  0.00    +0.000 HD
ENDBRANCH  30  33
ENDBRANCH  21  23
ENDBRANCH   4  21
TORSDOF 5
ENDMDL
MODEL 5
REMARK VINA RESULT:      -7.9      3.579      7.831
REMARK  Name = 
REMARK  6 active torsions:
REMARK  status: ('A' for Active; 'I' for Inactive)
REMARK    1  A    between atoms: C_1  and  N_2
REMARK    2  A    between atoms: C_6  and  C_7
REMARK    3  A    between atoms: C_10  and  N_11
REMARK    4  A    between atoms: N_11  and  C_12
REMARK    5  A    between atoms: C_19  and  O_20
REMARK    6  A    between atoms: C_23  and  C_24
REMARK                            x       y       z     vdW  Elec       q    Type
REMARK                         _______ _______ _______ _____ _____    ______ ____
ROOT
ATOM      1  C   UNL     1       1.544   7.059  20.508  0.00  0.00    +0.000 A 
ATOM      2  C   UNL     1       2.825   6.615  20.114  0.00  0.00    +0.000 A 
ATOM      3  C   UNL     1       2.797   5.229  20.025  0.00  0.00    +0.000 A 
ATOM      4  C   UNL     1       3.801   4.261  19.723  0.00  0.00    +0.000 A 
ATOM      5  C   UNL     1       3.444   2.976  19.945  0.00  0.00    +0.000 A 
ATOM      6  C   UNL     1       2.003   2.701  20.229  0.00  0.00    +0.000 A 
ATOM      7  N   UNL     1       1.066   3.569  20.446  0.00  0.00    +0.000 NA
ATOM      8  N   UNL     1       1.518   4.839  20.372  0.00  0.00    +0.000 N 
ATOM      9  C   UNL     1       0.763   5.941  20.682  0.00  0.00    +0.000 A 
ENDROOT
BRANCH   1  15
ATOM     10  C   UNL     1       1.293   9.348  18.365  0.00  0.00    +0.000 C 
ATOM     11  N   UNL     1       1.102   9.472  19.793  0.00  0.00    +0.000 N 
ATOM     12  N   UNL     1       0.712  10.661  20.304  0.00  0.00    +0.000 NA
ATOM     13  C   UNL     1       0.449  10.380  21.582  0.00  0.00    +0.000 A 
ATOM     14  C   UNL     1       0.663   9.024  21.896  0.00  0.00    +0.000 A 
ATOM     15  C   UNL     1       1.119   8.462  20.724  0.00  0.00    +0.000 A 
ENDBRANCH   1  15
BRANCH   5  16
ATOM     16  C   UNL     1       4.370   1.824  20.046  0.00  0.00    +0.000 C 
ATOM     17  N   UNL     1       4.395   0.986  18.972  0.00  0.00    +0.000 N 
ATOM     18  O   UNL     1       5.194   1.723  20.946  0.00  0.00    +0.000 OA
ATOM     19  H   UNL     1       3.820   1.155  18.159  0.00  0.00    +0.000 HD
ATOM     20  H   UNL     1       5.165   0.335  18.902  0.00  0.00    +0.000 HD
ENDBRANCH   5  16
BRANCH   4  21
ATOM     21  N   UNL     1       5.070   4.745  19.399  0.00  0.00    +0.000 N 
ATOM     22  H   UNL     1       5.821   4.291  19.910  0.00  0.00    +0.000 HD
BRANCH  21  23
ATOM     23  C   UNL     1       5.458   5.737  18.388  0.00  0.00    +0.000 C 
ATOM     24  C   UNL     1       6.926   5.599  17.892  0.00  0.00    +0.000 C 
ATOM     25  C   UNL     1       7.226   6.756  16.905  0.00  0.00    +0.000 C 
ATOM     26  C   UNL     1       6.298   6.674  15.676  0.00  0.00    +0.000 C 
ATOM     27  C   UNL     1       4.839   6.767  16.154  0.00  0.00    +0.000 C 
ATOM     28  C   UNL     1       4.524   5.623  17.145  0.00  0.00    +0.000 C 
ATOM     29  C   UNL     1       4.748   4.287  16.406  0.00  0.00    +0.000 C 
ATOM     30  C   UNL     1       6.204   4.180  15.925  0.00  0.00    +0.000 C 
ATOM     31  C   UNL     1       6.500   5.332  14.952  0.00  0.00    +0.000 C 
ATOM     32  C   UNL     1       7.159   4.285  17.123  0.00  0.00    +0.000 C 
BRANCH  30  33
ATOM     33  O   UNL     1       6.400   2.927  15.284  0.00  0.00    +0.000 OA
ATOM     34  H   UNL     1       5.662   2.340  15.527  0.00  0.00    +0.000 HD
ENDBRANCH  30  33
ENDBRANCH  21  23
ENDBRANCH   4  21
TORSDOF 5
ENDMDL
MODEL 6
REMARK VINA RESULT:      -7.7      3.506      7.630
REMARK  Name = 
REMARK  6 active torsions:
REMARK  status: ('A' for Active; 'I' for Inactive)
REMARK    1  A    between atoms: C_1  and  N_2
REMARK    2  A    between atoms: C_6  and  C_7
REMARK    3  A    between atoms: C_10  and  N_11
REMARK    4  A    between atoms: N_11  and  C_12
REMARK    5  A    between atoms: C_19  and  O_20
REMARK    6  A    between atoms: C_23  and  C_24
REMARK                            x       y       z     vdW  Elec       q    Type
REMARK                         _______ _______ _______ _____ _____    ______ ____
ROOT
ATOM      1  C   UNL     1       1.679   7.196  20.182  0.00  0.00    +0.000 A 
ATOM      2  C   UNL     1       2.269   6.511  19.099  0.00  0.00    +0.000 A 
ATOM      3  C   UNL     1       2.431   5.180  19.460  0.00  0.00    +0.000 A 
ATOM      4  C   UNL     1       3.008   4.060  18.789  0.00  0.00    +0.000 A 
ATOM      5  C   UNL     1       3.178   2.959  19.554  0.00  0.00    +0.000 A 
ATOM      6  C   UNL     1       2.531   2.949  20.901  0.00  0.00    +0.000 A 
ATOM      7  N   UNL     1       1.950   3.940  21.499  0.00  0.00    +0.000 NA
ATOM      8  N   UNL     1       1.954   5.063  20.752  0.00  0.00    +0.000 N 
ATOM      9  C   UNL     1       1.515   6.284  21.198  0.00  0.00    +0.000 A 
ENDROOT
BRANCH   1  15
ATOM     10  C   UNL     1       1.515   9.231  17.789  0.00  0.00    +0.000 C 
ATOM     11  N   UNL     1       1.346   9.528  19.194  0.00  0.00    +0.000 N 
ATOM     12  N   UNL     1       1.019  10.786  19.566  0.00  0.00    +0.000 NA
ATOM     13  C   UNL     1       0.758  10.669  20.869  0.00  0.00    +0.000 A 
ATOM     14  C   UNL     1       0.909   9.350  21.337  0.00  0.00    +0.000 A 
ATOM     15  C   UNL     1       1.325   8.634  20.236  0.00  0.00    +0.000 A 
ENDBRANCH   1  15
BRANCH   5  16
ATOM     16  C   UNL     1       4.043   1.801  19.228  0.00  0.00    +0.000 C 
ATOM     17  N   UNL     1       5.080   1.574  20.082  0.00  0.00    +0.000 N 
ATOM     18  O   UNL     1       3.750   0.988  18.359  0.00  0.00    +0.000 OA
ATOM     19  H   UNL     1       5.234   2.160  20.889  0.00  0.00    +0.000 HD
ATOM     20  H   UNL     1       5.543   0.677  20.029  0.00  0.00    +0.000 HD
ENDBRANCH   5  16
BRANCH   4  21
ATOM     21  N   UNL     1       3.479   4.274  17.493  0.00  0.00    +0.000 N 
ATOM     22  H   UNL     1       2.770   4.622  16.854  0.00  0.00    +0.000 HD
BRANCH  21  23
ATOM     23  C   UNL     1       4.844   4.146  16.964  0.00  0.00    +0.000 C 
ATOM     24  C   UNL     1       5.122   5.014  15.704  0.00  0.00    +0.000 C 
ATOM     25  C   UNL     1       6.558   4.713  15.203  0.00  0.00    +0.000 C 
ATOM     26  C   UNL     1       7.597   5.088  16.279  0.00  0.00    +0.000 C 
ATOM     27  C   UNL     1       7.310   4.267  17.548  0.00  0.00    +0.000 C 
ATOM     28  C   UNL     1       5.878   4.551  18.059  0.00  0.00    +0.000 C 
ATOM     29  C   UNL     1       5.783   6.058  18.377  0.00  0.00    +0.000 C 
ATOM     30  C   UNL     1       6.066   6.890  17.117  0.00  0.00    +0.000 C 
ATOM     31  C   UNL     1       7.488   6.584  16.619  0.00  0.00    +0.000 C 
ATOM     32  C   UNL     1       5.065   6.522  16.012  0.00  0.00    +0.000 C 
BRANCH  30  33
ATOM     33  O   UNL     1       5.935   8.272  17.421  0.00  0.00    +0.000 OA
ATOM     34  H   UNL     1       6.605   8.761  16.911  0.00  0.00    +0.000 HD
ENDBRANCH  30  33
ENDBRANCH  21  23
ENDBRANCH   4  21
TORSDOF 5
ENDMDL
MODEL 7
REMARK VINA RESULT:      -7.7      3.567      7.620
REMARK  Name = 
REMARK  6 active torsions:
REMARK  status: ('A' for Active; 'I' for Inactive)
REMARK    1  A    between atoms: C_1  and  N_2
REMARK    2  A    between atoms: C_6  and  C_7
REMARK    3  A    between atoms: C_10  and  N_11
REMARK    4  A    between atoms: N_11  and  C_12
REMARK    5  A    between atoms: C_19  and  O_20
REMARK    6  A    between atoms: C_23  and  C_24
REMARK                            x       y       z     vdW  Elec       q    Type
REMARK                         _______ _______ _______ _____ _____    ______ ____
ROOT
ATOM      1  C   UNL     1       1.774   7.385  19.685  0.00  0.00    +0.000 A 
ATOM      2  C   UNL     1       2.355   6.581  18.681  0.00  0.00    +0.000 A 
ATOM      3  C   UNL     1       2.494   5.293  19.179  0.00  0.00    +0.000 A 
ATOM      4  C   UNL     1       3.054   4.100  18.630  0.00  0.00    +0.000 A 
ATOM      5  C   UNL     1       3.203   3.082  19.506  0.00  0.00    +0.000 A 
ATOM      6  C   UNL     1       2.553   3.223  20.845  0.00  0.00    +0.000 A 
ATOM      7  N   UNL     1       1.987   4.280  21.334  0.00  0.00    +0.000 NA
ATOM      8  N   UNL     1       2.012   5.319  20.474  0.00  0.00    +0.000 N 
ATOM      9  C   UNL     1       1.594   6.587  20.789  0.00  0.00    +0.000 A 
ENDROOT
BRANCH   1  15
ATOM     10  C   UNL     1       1.108   9.372  22.030  0.00  0.00    +0.000 C 
ATOM     11  N   UNL     1       1.068   9.658  20.614  0.00  0.00    +0.000 N 
ATOM     12  N   UNL     1       0.782  10.914  20.204  0.00  0.00    +0.000 NA
ATOM     13  C   UNL     1       1.014  10.874  18.890  0.00  0.00    +0.000 A 
ATOM     14  C   UNL     1       1.450   9.609  18.454  0.00  0.00    +0.000 A 
ATOM     15  C   UNL     1       1.444   8.827  19.588  0.00  0.00    +0.000 A 
ENDBRANCH   1  15
BRANCH   5  16
ATOM     16  C   UNL     1       4.049   1.882  19.305  0.00  0.00    +0.000 C 
ATOM     17  N   UNL     1       5.073   1.722  20.189  0.00  0.00    +0.000 N 
ATOM     18  O   UNL     1       3.748   0.993  18.517  0.00  0.00    +0.000 OA
ATOM     19  H   UNL     1       5.231   2.382  20.936  0.00  0.00    +0.000 HD
ATOM     20  H   UNL     1       5.520   0.816  20.230  0.00  0.00    +0.000 HD
ENDBRANCH   5  16
BRANCH   4  21
ATOM     21  N   UNL     1       3.531   4.170  17.320  0.00  0.00    +0.000 N 
ATOM     22  H   UNL     1       2.805   4.346  16.632  0.00  0.00    +0.000 HD
BRANCH  21  23
ATOM     23  C   UNL     1       4.913   4.108  16.828  0.00  0.00    +0.000 C 
ATOM     24  C   UNL     1       5.195   5.027  15.605  0.00  0.00    +0.000 C 
ATOM     25  C   UNL     1       6.654   4.794  15.136  0.00  0.00    +0.000 C 
ATOM     26  C   UNL     1       7.648   5.169  16.253  0.00  0.00    +0.000 C 
ATOM     27  C   UNL     1       7.356   4.298  17.487  0.00  0.00    +0.000 C 
ATOM     28  C   UNL     1       5.901   4.514  17.964  0.00  0.00    +0.000 C 
ATOM     29  C   UNL     1       5.742   6.005  18.328  0.00  0.00    +0.000 C 
ATOM     30  C   UNL     1       6.029   6.887  17.103  0.00  0.00    +0.000 C 
ATOM     31  C   UNL     1       7.475   6.649  16.637  0.00  0.00    +0.000 C 
ATOM     32  C   UNL     1       5.074   6.521  15.959  0.00  0.00    +0.000 C 
BRANCH  30  33
ATOM     33  O   UNL     1       5.839   8.253  17.447  0.00  0.00    +0.000 OA
ATOM     34  H   UNL     1       6.457   8.475  18.167  0.00  0.00    +0.000 HD
ENDBRANCH  30  33
ENDBRANCH  21  23
ENDBRANCH   4  21
TORSDOF 5
ENDMDL
MODEL 8
REMARK VINA RESULT:      -7.6      3.549      7.895
REMARK  Name = 
REMARK  6 active torsions:
REMARK  status: ('A' for Active; 'I' for Inactive)
REMARK    1  A    between atoms: C_1  and  N_2
REMARK    2  A    between atoms: C_6  and  C_7
REMARK    3  A    between atoms: C_10  and  N_11
REMARK    4  A    between atoms: N_11  and  C_12
REMARK    5  A    between atoms: C_19  and  O_20
REMARK    6  A    between atoms: C_23  and  C_24
REMARK                            x       y       z     vdW  Elec       q    Type
REMARK                         _______ _______ _______ _____ _____    ______ ____
ROOT
ATOM      1  C   UNL     1       1.637   7.056  20.369  0.00  0.00    +0.000 A 
ATOM      2  C   UNL     1       2.664   6.495  19.580  0.00  0.00    +0.000 A 
ATOM      3  C   UNL     1       2.659   5.120  19.773  0.00  0.00    +0.000 A 
ATOM      4  C   UNL     1       3.493   4.073  19.276  0.00  0.00    +0.000 A 
ATOM      5  C   UNL     1       3.309   2.868  19.861  0.00  0.00    +0.000 A 
ATOM      6  C   UNL     1       2.120   2.709  20.752  0.00  0.00    +0.000 A 
ATOM      7  N   UNL     1       1.318   3.639  21.164  0.00  0.00    +0.000 NA
ATOM      8  N   UNL     1       1.648   4.853  20.676  0.00  0.00    +0.000 N 
ATOM      9  C   UNL     1       1.040   6.024  21.052  0.00  0.00    +0.000 A 
ENDROOT
BRANCH   1  15
ATOM     10  C   UNL     1       1.400   9.154  18.037  0.00  0.00    +0.000 C 
ATOM     11  N   UNL     1       1.269   9.413  19.453  0.00  0.00    +0.000 N 
ATOM     12  N   UNL     1       0.948  10.659  19.868  0.00  0.00    +0.000 NA
ATOM     13  C   UNL     1       0.724  10.506  21.174  0.00  0.00    +0.000 A 
ATOM     14  C   UNL     1       0.892   9.176  21.602  0.00  0.00    +0.000 A 
ATOM     15  C   UNL     1       1.280   8.491  20.471  0.00  0.00    +0.000 A 
ENDBRANCH   1  15
BRANCH   5  16
ATOM     16  C   UNL     1       4.242   1.719  19.792  0.00  0.00    +0.000 C 
ATOM     17  N   UNL     1       4.151   0.946  18.674  0.00  0.00    +0.000 N 
ATOM     18  O   UNL     1       5.160   1.572  20.590  0.00  0.00    +0.000 OA
ATOM     19  H   UNL     1       3.490   1.158  17.941  0.00  0.00    +0.000 HD
ATOM     20  H   UNL     1       4.909   0.306  18.482  0.00  0.00    +0.000 HD
ENDBRANCH   5  16
BRANCH   4  21
ATOM     21  N   UNL     1       4.499   4.437  18.380  0.00  0.00    +0.000 N 
ATOM     22  H   UNL     1       4.539   3.849  17.553  0.00  0.00    +0.000 HD
BRANCH  21  23
ATOM     23  C   UNL     1       5.428   5.573  18.434  0.00  0.00    +0.000 C 
ATOM     24  C   UNL     1       6.930   5.168  18.444  0.00  0.00    +0.000 C 
ATOM     25  C   UNL     1       7.787   6.450  18.594  0.00  0.00    +0.000 C 
ATOM     26  C   UNL     1       7.557   7.400  17.401  0.00  0.00    +0.000 C 
ATOM     27  C   UNL     1       6.067   7.777  17.352  0.00  0.00    +0.000 C 
ATOM     28  C   UNL     1       5.195   6.508  17.208  0.00  0.00    +0.000 C 
ATOM     29  C   UNL     1       5.601   5.807  15.894  0.00  0.00    +0.000 C 
ATOM     30  C   UNL     1       7.087   5.422  15.930  0.00  0.00    +0.000 C 
ATOM     31  C   UNL     1       7.935   6.695  16.087  0.00  0.00    +0.000 C 
ATOM     32  C   UNL     1       7.360   4.497  17.125  0.00  0.00    +0.000 C 
BRANCH  30  33
ATOM     33  O   UNL     1       7.431   4.743  14.730  0.00  0.00    +0.000 OA
ATOM     34  H   UNL     1       7.716   5.406  14.075  0.00  0.00    +0.000 HD
ENDBRANCH  30  33
ENDBRANCH  21  23
ENDBRANCH   4  21
TORSDOF 5
ENDMDL
MODEL 9
REMARK VINA RESULT:      -7.6      0.526      1.110
REMARK  Name = 
REMARK  6 active torsions:
REMARK  status: ('A' for Active; 'I' for Inactive)
REMARK    1  A    between atoms: C_1  and  N_2
REMARK    2  A    between atoms: C_6  and  C_7
REMARK    3  A    between atoms: C_10  and  N_11
REMARK    4  A    between atoms: N_11  and  C_12
REMARK    5  A    between atoms: C_19  and  O_20
REMARK    6  A    between atoms: C_23  and  C_24
REMARK                            x       y       z     vdW  Elec       q    Type
REMARK                         _______ _______ _______ _____ _____    ______ ____
ROOT
ATOM      1  C   UNL     1       5.737   3.980  13.779  0.00  0.00    +0.000 A 
ATOM      2  C   UNL     1       5.344   3.588  15.077  0.00  0.00    +0.000 A 
ATOM      3  C   UNL     1       5.948   4.441  15.992  0.00  0.00    +0.000 A 
ATOM      4  C   UNL     1       5.946   4.484  17.418  0.00  0.00    +0.000 A 
ATOM      5  C   UNL     1       6.836   5.342  17.966  0.00  0.00    +0.000 A 
ATOM      6  C   UNL     1       7.519   6.305  17.050  0.00  0.00    +0.000 A 
ATOM      7  N   UNL     1       7.483   6.316  15.755  0.00  0.00    +0.000 NA
ATOM      8  N   UNL     1       6.706   5.331  15.256  0.00  0.00    +0.000 N 
ATOM      9  C   UNL     1       6.595   5.044  13.920  0.00  0.00    +0.000 A 
ENDROOT
BRANCH   1  15
ATOM     10  C   UNL     1       7.511   2.279  11.817  0.00  0.00    +0.000 C 
ATOM     11  N   UNL     1       6.140   2.688  11.612  0.00  0.00    +0.000 N 
ATOM     12  N   UNL     1       5.485   2.268  10.506  0.00  0.00    +0.000 NA
ATOM     13  C   UNL     1       4.226   2.653  10.723  0.00  0.00    +0.000 A 
ATOM     14  C   UNL     1       4.064   3.311  11.957  0.00  0.00    +0.000 A 
ATOM     15  C   UNL     1       5.329   3.351  12.501  0.00  0.00    +0.000 A 
ENDBRANCH   1  15
BRANCH   5  16
ATOM     16  C   UNL     1       7.282   5.343  19.379  0.00  0.00    +0.000 C 
ATOM     17  N   UNL     1       8.397   6.077  19.650  0.00  0.00    +0.000 N 
ATOM     18  O   UNL     1       6.601   4.872  20.282  0.00  0.00    +0.000 OA
ATOM     19  H   UNL     1       8.877   6.591  18.925  0.00  0.00    +0.000 HD
ATOM     20  H   UNL     1       8.596   6.290  20.618  0.00  0.00    +0.000 HD
ENDBRANCH   5  16
BRANCH   4  21
ATOM     21  N   UNL     1       5.165   3.535  18.079  0.00  0.00    +0.000 N 
ATOM     22  H   UNL     1       5.666   3.028  18.802  0.00  0.00    +0.000 HD
BRANCH  21  23
ATOM     23  C   UNL     1       3.734   3.238  17.928  0.00  0.00    +0.000 C 
ATOM     24  C   UNL     1       3.173   2.252  18.991  0.00  0.00    +0.000 C 
ATOM     25  C   UNL     1       1.688   1.958  18.661  0.00  0.00    +0.000 C 
ATOM     26  C   UNL     1       0.853   3.252  18.723  0.00  0.00    +0.000 C 
ATOM     27  C   UNL     1       1.421   4.256  17.705  0.00  0.00    +0.000 C 
ATOM     28  C   UNL     1       2.905   4.556  18.017  0.00  0.00    +0.000 C 
ATOM     29  C   UNL     1       2.974   5.156  19.437  0.00  0.00    +0.000 C 
ATOM     30  C   UNL     1       2.411   4.163  20.465  0.00  0.00    +0.000 C 
ATOM     31  C   UNL     1       0.940   3.869  20.130  0.00  0.00    +0.000 C 
ATOM     32  C   UNL     1       3.203   2.849  20.412  0.00  0.00    +0.000 C 
BRANCH  30  33
ATOM     33  O   UNL     1       2.520   4.717  21.770  0.00  0.00    +0.000 OA
ATOM     34  H   UNL     1       3.187   5.427  21.745  0.00  0.00    +0.000 HD
ENDBRANCH  30  33
ENDBRANCH  21  23
ENDBRANCH   4  21
TORSDOF 5
ENDMDL
