MODEL 1
REMARK VINA RESULT:      -7.8      0.000      0.000
REMARK  Name = 
REMARK  5 active torsions:
REMARK  status: ('A' for Active; 'I' for Inactive)
REMARK    1  A    between atoms: C_1  and  O_2
REMARK    2  A    between atoms: O_2  and  C_3
REMARK    3  A    between atoms: C_6  and  C_7
REMARK    4  A    between atoms: N_9  and  C_10
REMARK    5  A    between atoms: C_10  and  C_11
REMARK                            x       y       z     vdW  Elec       q    Type
REMARK                         _______ _______ _______ _____ _____    ______ ____
ROOT
ATOM      1  C   UNL     1       2.300   7.097  19.384  0.00  0.00    +0.000 C 
ATOM      2  O   UNL     1       2.174   7.047  18.161  0.00  0.00    +0.000 OA
ATOM      3  N   UNL     1       2.989   6.096  20.100  0.00  0.00    +0.000 N 
ATOM      4  H   UNL     1       2.971   6.098  21.105  0.00  0.00    +0.000 HD
ENDROOT
BRANCH   1   8
ATOM      5  C   UNL     1       0.452  10.462  21.563  0.00  0.00    +0.000 A 
ATOM      6  C   UNL     1       0.952   9.341  22.229  0.00  0.00    +0.000 A 
ATOM      7  C   UNL     1       1.539   8.276  21.523  0.00  0.00    +0.000 A 
ATOM      8  C   UNL     1       1.650   8.281  20.108  0.00  0.00    +0.000 A 
ATOM      9  C   UNL     1       1.126   9.403  19.444  0.00  0.00    +0.000 A 
ATOM     10  C   UNL     1       0.527  10.470  20.170  0.00  0.00    +0.000 A 
BRANCH   5  12
ATOM     11  C   UNL     1      -1.350  11.105  23.000  0.00  0.00    +0.000 C 
ATOM     12  O   UNL     1      -0.115  11.421  22.362  0.00  0.00    +0.000 OA
ENDBRANCH   5  12
ENDBRANCH   1   8
BRANCH   3  13
ATOM     13  C   UNL     1       3.589   4.891  19.414  0.00  0.00    +0.000 C 
BRANCH  13  14
ATOM     14  C   UNL     1       4.971   5.019  18.603  0.00  0.00    +0.000 C 
ATOM     15  N   UNL     1       6.013   4.965  19.655  0.00  0.00    +0.000 NA
ATOM     16  C   UNL     1       7.229   5.645  19.221  0.00  0.00    +0.000 C 
ATOM     17  C   UNL     1       7.857   4.845  18.107  0.00  0.00    +0.000 C 
ATOM     18  C   UNL     1       6.895   4.805  16.953  0.00  0.00    +0.000 A 
ATOM     19  C   UNL     1       7.418   5.002  15.663  0.00  0.00    +0.000 A 
ATOM     20  C   UNL     1       6.643   4.688  14.566  0.00  0.00    +0.000 A 
ATOM     21  C   UNL     1       5.381   4.136  14.786  0.00  0.00    +0.000 A 
ATOM     22  C   UNL     1       4.798   4.071  16.090  0.00  0.00    +0.000 A 
ATOM     23  C   UNL     1       5.519   4.496  17.214  0.00  0.00    +0.000 A 
ATOM     24  H   UNL     1       6.204   3.985  19.849  0.00  0.00    +0.000 HD
ENDBRANCH  13  14
ENDBRANCH   3  13
TORSDOF 4
ENDMDL
MODEL 2
REMARK VINA RESULT:      -7.5      2.147      3.728
REMARK  Name = 
REMARK  5 active torsions:
REMARK  status: ('A' for Active; 'I' for Inactive)
REMARK    1  A    between atoms: C_1  and  O_2
REMARK    2  A    between atoms: O_2  and  C_3
REMARK    3  A    between atoms: C_6  and  C_7
REMARK    4  A    between atoms: N_9  and  C_10
REMARK    5  A    between atoms: C_10  and  C_11
REMARK                            x       y       z     vdW  Elec       q    Type
REMARK                         _______ _______ _______ _____ _____    ______ ____
ROOT
ATOM      1  C   UNL     1       1.360   9.057  19.021  0.00  0.00    +0.000 C 
ATOM      2  O   UNL     1       1.055   9.533  17.928  0.00  0.00    +0.000 OA
ATOM      3  N   UNL     1       2.323   8.033  19.142  0.00  0.00    +0.000 N 
ATOM      4  H   UNL     1       2.462   7.580  20.029  0.00  0.00    +0.000 HD
ENDROOT
BRANCH   1   8
ATOM      5  C   UNL     1      -0.771  10.717  22.512  0.00  0.00    +0.000 A 
ATOM      6  C   UNL     1      -0.494  11.492  21.383  0.00  0.00    +0.000 A 
ATOM      7  C   UNL     1       0.184  10.950  20.278  0.00  0.00    +0.000 A 
ATOM      8  C   UNL     1       0.626   9.601  20.251  0.00  0.00    +0.000 A 
ATOM      9  C   UNL     1       0.362   8.835  21.398  0.00  0.00    +0.000 A 
ATOM     10  C   UNL     1      -0.319   9.398  22.514  0.00  0.00    +0.000 A 
BRANCH   5  12
ATOM     11  C   UNL     1      -2.596  12.101  23.205  0.00  0.00    +0.000 C 
ATOM     12  O   UNL     1      -1.418  11.367  23.531  0.00  0.00    +0.000 OA
ENDBRANCH   5  12
ENDBRANCH   1   8
BRANCH   3  13
ATOM     13  C   UNL     1       3.016   7.441  17.938  0.00  0.00    +0.000 C 
BRANCH  13  14
ATOM     14  C   UNL     1       3.116   5.847  17.757  0.00  0.00    +0.000 C 
ATOM     15  N   UNL     1       4.475   5.631  17.206  0.00  0.00    +0.000 NA
ATOM     16  C   UNL     1       4.535   4.392  16.437  0.00  0.00    +0.000 C 
ATOM     17  C   UNL     1       4.385   3.228  17.385  0.00  0.00    +0.000 C 
ATOM     18  C   UNL     1       3.033   3.320  18.035  0.00  0.00    +0.000 A 
ATOM     19  C   UNL     1       2.288   2.134  18.157  0.00  0.00    +0.000 A 
ATOM     20  C   UNL     1       1.192   2.109  18.993  0.00  0.00    +0.000 A 
ATOM     21  C   UNL     1       0.897   3.257  19.728  0.00  0.00    +0.000 A 
ATOM     22  C   UNL     1       1.566   4.499  19.496  0.00  0.00    +0.000 A 
ATOM     23  C   UNL     1       2.607   4.583  18.562  0.00  0.00    +0.000 A 
ATOM     24  H   UNL     1       5.122   5.594  17.991  0.00  0.00    +0.000 HD
ENDBRANCH  13  14
ENDBRANCH   3  13
TORSDOF 4
ENDMDL
MODEL 3
REMARK VINA RESULT:      -7.5      0.455      1.109
REMARK  Name = 
REMARK  5 active torsions:
REMARK  status: ('A' for Active; 'I' for Inactive)
REMARK    1  A    between atoms: C_1  and  O_2
REMARK    2  A    between atoms: O_2  and  C_3
REMARK    3  A    between atoms: C_6  and  C_7
REMARK    4  A    between atoms: N_9  and  C_10
REMARK    5  A    between atoms: C_10  and  C_11
REMARK                            x       y       z     vdW  Elec       q    Type
REMARK                         _______ _______ _______ _____ _____    ______ ____
ROOT
ATOM      1  C   UNL     1       2.500   6.953  19.358  0.00  0.00    +0.000 C 
ATOM      2  O   UNL     1       2.815   7.029  18.171  0.00  0.00    +0.000 OA
ATOM      3  N   UNL     1       2.860   5.845  20.152  0.00  0.00    +0.000 N 
ATOM      4  H   UNL     1       2.486   5.752  21.081  0.00  0.00    +0.000 HD
ENDROOT
BRANCH   1   8
ATOM      5  C   UNL     1       0.098  10.308  20.927  0.00  0.00    +0.000 A 
ATOM      6  C   UNL     1       0.500  10.254  19.590  0.00  0.00    +0.000 A 
ATOM      7  C   UNL     1       1.264   9.179  19.103  0.00  0.00    +0.000 A 
ATOM      8  C   UNL     1       1.669   8.104  19.937  0.00  0.00    +0.000 A 
ATOM      9  C   UNL     1       1.279   8.176  21.284  0.00  0.00    +0.000 A 
ATOM     10  C   UNL     1       0.512   9.274  21.766  0.00  0.00    +0.000 A 
BRANCH   5  12
ATOM     11  C   UNL     1      -0.933  11.592  22.663  0.00  0.00    +0.000 C 
ATOM     12  O   UNL     1      -0.624  11.418  21.283  0.00  0.00    +0.000 OA
ENDBRANCH   5  12
ENDBRANCH   1   8
BRANCH   3  13
ATOM     13  C   UNL     1       3.629   4.673  19.588  0.00  0.00    +0.000 C 
BRANCH  13  14
ATOM     14  C   UNL     1       4.969   4.914  18.733  0.00  0.00    +0.000 C 
ATOM     15  N   UNL     1       6.054   4.858  19.740  0.00  0.00    +0.000 NA
ATOM     16  C   UNL     1       7.217   5.620  19.298  0.00  0.00    +0.000 C 
ATOM     17  C   UNL     1       7.838   4.912  18.119  0.00  0.00    +0.000 C 
ATOM     18  C   UNL     1       6.832   4.885  17.002  0.00  0.00    +0.000 A 
ATOM     19  C   UNL     1       7.292   5.175  15.705  0.00  0.00    +0.000 A 
ATOM     20  C   UNL     1       6.489   4.879  14.624  0.00  0.00    +0.000 A 
ATOM     21  C   UNL     1       5.266   4.253  14.861  0.00  0.00    +0.000 A 
ATOM     22  C   UNL     1       4.741   4.091  16.181  0.00  0.00    +0.000 A 
ATOM     23  C   UNL     1       5.485   4.492  17.298  0.00  0.00    +0.000 A 
ATOM     24  H   UNL     1       6.301   3.880  19.873  0.00  0.00    +0.000 HD
ENDBRANCH  13  14
ENDBRANCH   3  13
TORSDOF 4
ENDMDL
MODEL 4
REMARK VINA RESULT:      -7.4      4.621      6.547
REMARK  Name = 
REMARK  5 active torsions:
REMARK  status: ('A' for Active; 'I' for Inactive)
REMARK    1  A    between atoms: C_1  and  O_2
REMARK    2  A    between atoms: O_2  and  C_3
REMARK    3  A    between atoms: C_6  and  C_7
REMARK    4  A    between atoms: N_9  and  C_10
REMARK    5  A    between atoms: C_10  and  C_11
REMARK                            x       y       z     vdW  Elec       q    Type
REMARK                         _______ _______ _______ _____ _____    ______ ____
ROOT
ATOM      1  C   UNL     1       8.243   8.179  18.132  0.00  0.00    +0.000 C 
ATOM      2  O   UNL     1       7.742   7.853  17.056  0.00  0.00    +0.000 OA
ATOM      3  N   UNL     1       8.478   7.237  19.155  0.00  0.00    +0.000 N 
ATOM      4  H   UNL     1       8.773   7.550  20.064  0.00  0.00    +0.000 HD
ENDROOT
BRANCH   1   8
ATOM      5  C   UNL     1       9.265  12.423  18.786  0.00  0.00    +0.000 A 
ATOM      6  C   UNL     1       9.705  11.420  19.652  0.00  0.00    +0.000 A 
ATOM      7  C   UNL     1       9.373  10.071  19.431  0.00  0.00    +0.000 A 
ATOM      8  C   UNL     1       8.576   9.661  18.330  0.00  0.00    +0.000 A 
ATOM      9  C   UNL     1       8.121  10.679  17.476  0.00  0.00    +0.000 A 
ATOM     10  C   UNL     1       8.457  12.041  17.714  0.00  0.00    +0.000 A 
BRANCH   5  12
ATOM     11  C   UNL     1       9.195  14.761  18.278  0.00  0.00    +0.000 C 
ATOM     12  O   UNL     1       9.637  13.699  19.121  0.00  0.00    +0.000 OA
ENDBRANCH   5  12
ENDBRANCH   1   8
BRANCH   3  13
ATOM     13  C   UNL     1       8.106   5.782  19.004  0.00  0.00    +0.000 C 
BRANCH  13  14
ATOM     14  C   UNL     1       6.845   5.353  18.102  0.00  0.00    +0.000 C 
ATOM     15  N   UNL     1       7.455   4.700  16.919  0.00  0.00    +0.000 NA
ATOM     16  C   UNL     1       6.571   4.788  15.761  0.00  0.00    +0.000 C 
ATOM     17  C   UNL     1       5.359   3.926  16.013  0.00  0.00    +0.000 C 
ATOM     18  C   UNL     1       4.632   4.472  17.211  0.00  0.00    +0.000 A 
ATOM     19  C   UNL     1       3.231   4.556  17.138  0.00  0.00    +0.000 A 
ATOM     20  C   UNL     1       2.508   4.767  18.293  0.00  0.00    +0.000 A 
ATOM     21  C   UNL     1       3.200   4.837  19.501  0.00  0.00    +0.000 A 
ATOM     22  C   UNL     1       4.628   4.895  19.556  0.00  0.00    +0.000 A 
ATOM     23  C   UNL     1       5.389   4.803  18.382  0.00  0.00    +0.000 A 
ATOM     24  H   UNL     1       7.629   3.727  17.160  0.00  0.00    +0.000 HD
ENDBRANCH  13  14
ENDBRANCH   3  13
TORSDOF 4
ENDMDL
MODEL 5
REMARK VINA RESULT:      -7.4      2.179      3.658
REMARK  Name = 
REMARK  5 active torsions:
REMARK  status: ('A' for Active; 'I' for Inactive)
REMARK    1  A    between atoms: C_1  and  O_2
REMARK    2  A    between atoms: O_2  and  C_3
REMARK    3  A    between atoms: C_6  and  C_7
REMARK    4  A    between atoms: N_9  and  C_10
REMARK    5  A    between atoms: C_10  and  C_11
REMARK                            x       y       z     vdW  Elec       q    Type
REMARK                         _______ _______ _______ _____ _____    ______ ____
ROOT
ATOM      1  C   UNL     1       1.374   9.067  18.844  0.00  0.00    +0.000 C 
ATOM      2  O   UNL     1       1.016   9.395  17.714  0.00  0.00    +0.000 OA
ATOM      3  N   UNL     1       2.410   8.133  19.052  0.00  0.00    +0.000 N 
ATOM      4  H   UNL     1       2.598   7.792  19.979  0.00  0.00    +0.000 HD
ENDROOT
BRANCH   1   8
ATOM      5  C   UNL     1      -0.743  10.793  22.313  0.00  0.00    +0.000 A 
ATOM      6  C   UNL     1      -0.023   9.600  22.410  0.00  0.00    +0.000 A 
ATOM      7  C   UNL     1       0.648   9.062  21.298  0.00  0.00    +0.000 A 
ATOM      8  C   UNL     1       0.625   9.692  20.026  0.00  0.00    +0.000 A 
ATOM      9  C   UNL     1      -0.119  10.880  19.932  0.00  0.00    +0.000 A 
ATOM     10  C   UNL     1      -0.799  11.410  21.063  0.00  0.00    +0.000 A 
BRANCH   5  12
ATOM     11  C   UNL     1      -2.535  12.011  23.328  0.00  0.00    +0.000 C 
ATOM     12  O   UNL     1      -1.369  11.201  23.462  0.00  0.00    +0.000 OA
ENDBRANCH   5  12
ENDBRANCH   1   8
BRANCH   3  13
ATOM     13  C   UNL     1       3.123   7.461  17.903  0.00  0.00    +0.000 C 
BRANCH  13  14
ATOM     14  C   UNL     1       3.145   5.857  17.784  0.00  0.00    +0.000 C 
ATOM     15  N   UNL     1       4.474   5.557  17.202  0.00  0.00    +0.000 NA
ATOM     16  C   UNL     1       4.454   4.288  16.482  0.00  0.00    +0.000 C 
ATOM     17  C   UNL     1       4.283   3.170  17.480  0.00  0.00    +0.000 C 
ATOM     18  C   UNL     1       2.957   3.350  18.166  0.00  0.00    +0.000 A 
ATOM     19  C   UNL     1       2.164   2.205  18.358  0.00  0.00    +0.000 A 
ATOM     20  C   UNL     1       1.095   2.264  19.228  0.00  0.00    +0.000 A 
ATOM     21  C   UNL     1       0.876   3.452  19.925  0.00  0.00    +0.000 A 
ATOM     22  C   UNL     1       1.592   4.652  19.622  0.00  0.00    +0.000 A 
ATOM     23  C   UNL     1       2.606   4.651  18.655  0.00  0.00    +0.000 A 
ATOM     24  H   UNL     1       5.144   5.521  17.967  0.00  0.00    +0.000 HD
ENDBRANCH  13  14
ENDBRANCH   3  13
TORSDOF 4
ENDMDL
MODEL 6
REMARK VINA RESULT:      -7.3      4.624      6.810
REMARK  Name = 
REMARK  5 active torsions:
REMARK  status: ('A' for Active; 'I' for Inactive)
REMARK    1  A    between atoms: C_1  and  O_2
REMARK    2  A    between atoms: O_2  and  C_3
REMARK    3  A    between atoms: C_6  and  C_7
REMARK    4  A    between atoms: N_9  and  C_10
REMARK    5  A    between atoms: C_10  and  C_11
REMARK                            x       y       z     vdW  Elec       q    Type
REMARK                         _______ _______ _______ _____ _____    ______ ____
ROOT
ATOM      1  C   UNL     1       8.231   8.196  18.119  0.00  0.00    +0.000 C 
ATOM      2  O   UNL     1       7.755   7.960  17.010  0.00  0.00    +0.000 OA
ATOM      3  N   UNL     1       8.382   7.187  19.092  0.00  0.00    +0.000 N 
ATOM      4  H   UNL     1       8.659   7.431  20.027  0.00  0.00    +0.000 HD
ENDROOT
BRANCH   1   8
ATOM      5  C   UNL     1       9.322  12.404  18.890  0.00  0.00    +0.000 A 
ATOM      6  C   UNL     1       8.596  12.029  17.757  0.00  0.00    +0.000 A 
ATOM      7  C   UNL     1       8.254  10.685  17.524  0.00  0.00    +0.000 A 
ATOM      8  C   UNL     1       8.630   9.646  18.416  0.00  0.00    +0.000 A 
ATOM      9  C   UNL     1       9.377  10.030  19.542  0.00  0.00    +0.000 A 
ATOM     10  C   UNL     1       9.723  11.392  19.762  0.00  0.00    +0.000 A 
BRANCH   5  12
ATOM     11  C   UNL     1      10.766  14.222  18.310  0.00  0.00    +0.000 C 
ATOM     12  O   UNL     1       9.610  13.741  18.991  0.00  0.00    +0.000 OA
ENDBRANCH   5  12
ENDBRANCH   1   8
BRANCH   3  13
ATOM     13  C   UNL     1       7.943   5.763  18.842  0.00  0.00    +0.000 C 
BRANCH  13  14
ATOM     14  C   UNL     1       6.559   5.459  18.083  0.00  0.00    +0.000 C 
ATOM     15  N   UNL     1       6.980   4.884  16.784  0.00  0.00    +0.000 NA
ATOM     16  C   UNL     1       5.961   5.101  15.763  0.00  0.00    +0.000 C 
ATOM     17  C   UNL     1       4.750   4.268  16.104  0.00  0.00    +0.000 C 
ATOM     18  C   UNL     1       4.209   4.741  17.425  0.00  0.00    +0.000 A 
ATOM     19  C   UNL     1       2.816   4.884  17.543  0.00  0.00    +0.000 A 
ATOM     20  C   UNL     1       2.258   5.027  18.796  0.00  0.00    +0.000 A 
ATOM     21  C   UNL     1       3.101   4.970  19.905  0.00  0.00    +0.000 A 
ATOM     22  C   UNL     1       4.526   4.969  19.776  0.00  0.00    +0.000 A 
ATOM     23  C   UNL     1       5.125   4.945  18.509  0.00  0.00    +0.000 A 
ATOM     24  H   UNL     1       7.135   3.888  16.924  0.00  0.00    +0.000 HD
ENDBRANCH  13  14
ENDBRANCH   3  13
TORSDOF 4
ENDMDL
MODEL 7
REMARK VINA RESULT:      -7.3      3.047      4.738
REMARK  Name = 
REMARK  5 active torsions:
REMARK  status: ('A' for Active; 'I' for Inactive)
REMARK    1  A    between atoms: C_1  and  O_2
REMARK    2  A    between atoms: O_2  and  C_3
REMARK    3  A    between atoms: C_6  and  C_7
REMARK    4  A    between atoms: N_9  and  C_10
REMARK    5  A    between atoms: C_10  and  C_11
REMARK                            x       y       z     vdW  Elec       q    Type
REMARK                         _______ _______ _______ _____ _____    ______ ____
ROOT
ATOM      1  C   UNL     1       0.984   9.371  18.898  0.00  0.00    +0.000 C 
ATOM      2  O   UNL     1       1.456   9.353  20.034  0.00  0.00    +0.000 OA
ATOM      3  N   UNL     1       1.647   8.768  17.809  0.00  0.00    +0.000 N 
ATOM      4  H   UNL     1       1.300   8.903  16.876  0.00  0.00    +0.000 HD
ENDROOT
BRANCH   1   8
ATOM      5  C   UNL     1      -2.869  11.427  18.253  0.00  0.00    +0.000 A 
ATOM      6  C   UNL     1      -2.365  10.505  17.333  0.00  0.00    +0.000 A 
ATOM      7  C   UNL     1      -1.137   9.856  17.551  0.00  0.00    +0.000 A 
ATOM      8  C   UNL     1      -0.347  10.106  18.705  0.00  0.00    +0.000 A 
ATOM      9  C   UNL     1      -0.852  11.049  19.614  0.00  0.00    +0.000 A 
ATOM     10  C   UNL     1      -2.092  11.705  19.378  0.00  0.00    +0.000 A 
BRANCH   5  12
ATOM     11  C   UNL     1      -4.808  11.419  16.850  0.00  0.00    +0.000 C 
ATOM     12  O   UNL     1      -4.065  12.007  17.915  0.00  0.00    +0.000 OA
ENDBRANCH   5  12
ENDBRANCH   1   8
BRANCH   3  13
ATOM     13  C   UNL     1       2.986   8.089  17.965  0.00  0.00    +0.000 C 
BRANCH  13  14
ATOM     14  C   UNL     1       3.086   6.485  18.021  0.00  0.00    +0.000 C 
ATOM     15  N   UNL     1       4.387   6.182  17.380  0.00  0.00    +0.000 NA
ATOM     16  C   UNL     1       4.387   4.841  16.807  0.00  0.00    +0.000 C 
ATOM     17  C   UNL     1       4.343   3.835  17.930  0.00  0.00    +0.000 C 
ATOM     18  C   UNL     1       3.058   4.030  18.688  0.00  0.00    +0.000 A 
ATOM     19  C   UNL     1       2.342   2.880  19.060  0.00  0.00    +0.000 A 
ATOM     20  C   UNL     1       1.332   2.987  19.993  0.00  0.00    +0.000 A 
ATOM     21  C   UNL     1       1.097   4.235  20.570  0.00  0.00    +0.000 A 
ATOM     22  C   UNL     1       1.726   5.425  20.087  0.00  0.00    +0.000 A 
ATOM     23  C   UNL     1       2.672   5.361  19.055  0.00  0.00    +0.000 A 
ATOM     24  H   UNL     1       5.108   6.263  18.094  0.00  0.00    +0.000 HD
ENDBRANCH  13  14
ENDBRANCH   3  13
TORSDOF 4
ENDMDL
MODEL 8
REMARK VINA RESULT:      -7.2      2.817      4.410
REMARK  Name = 
REMARK  5 active torsions:
REMARK  status: ('A' for Active; 'I' for Inactive)
REMARK    1  A    between atoms: C_1  and  O_2
REMARK    2  A    between atoms: O_2  and  C_3
REMARK    3  A    between atoms: C_6  and  C_7
REMARK    4  A    between atoms: N_9  and  C_10
REMARK    5  A    between atoms: C_10  and  C_11
REMARK                            x       y       z     vdW  Elec       q    Type
REMARK                         _______ _______ _______ _____ _____    ______ ____
ROOT
ATOM      1  C   UNL     1       1.511   9.725  18.167  0.00  0.00    +0.000 C 
ATOM      2  O   UNL     1       2.377  10.418  17.635  0.00  0.00    +0.000 OA
ATOM      3  N   UNL     1       1.706   8.350  18.410  0.00  0.00    +0.000 N 
ATOM      4  H   UNL     1       0.940   7.785  18.732  0.00  0.00    +0.000 HD
ENDROOT
BRANCH   1   8
ATOM      5  C   UNL     1      -2.344  11.642  19.143  0.00  0.00    +0.000 A 
ATOM      6  C   UNL     1      -2.226  10.716  18.104  0.00  0.00    +0.000 A 
ATOM      7  C   UNL     1      -0.993  10.112  17.805  0.00  0.00    +0.000 A 
ATOM      8  C   UNL     1       0.190  10.412  18.531  0.00  0.00    +0.000 A 
ATOM      9  C   UNL     1       0.067  11.359  19.561  0.00  0.00    +0.000 A 
ATOM     10  C   UNL     1      -1.186  11.969  19.849  0.00  0.00    +0.000 A 
BRANCH   5  12
ATOM     11  C   UNL     1      -3.798  13.024  20.449  0.00  0.00    +0.000 C 
ATOM     12  O   UNL     1      -3.595  12.175  19.322  0.00  0.00    +0.000 OA
ENDBRANCH   5  12
ENDBRANCH   1   8
BRANCH   3  13
ATOM     13  C   UNL     1       2.977   7.639  18.007  0.00  0.00    +0.000 C 
BRANCH  13  14
ATOM     14  C   UNL     1       3.063   6.034  18.055  0.00  0.00    +0.000 C 
ATOM     15  N   UNL     1       4.343   5.722  17.377  0.00  0.00    +0.000 NA
ATOM     16  C   UNL     1       4.315   4.383  16.799  0.00  0.00    +0.000 C 
ATOM     17  C   UNL     1       4.293   3.374  17.920  0.00  0.00    +0.000 C 
ATOM     18  C   UNL     1       3.032   3.578  18.714  0.00  0.00    +0.000 A 
ATOM     19  C   UNL     1       2.316   2.432  19.102  0.00  0.00    +0.000 A 
ATOM     20  C   UNL     1       1.334   2.546  20.064  0.00  0.00    +0.000 A 
ATOM     21  C   UNL     1       1.126   3.793  20.651  0.00  0.00    +0.000 A 
ATOM     22  C   UNL     1       1.752   4.979  20.154  0.00  0.00    +0.000 A 
ATOM     23  C   UNL     1       2.668   4.911  19.096  0.00  0.00    +0.000 A 
ATOM     24  H   UNL     1       5.084   5.794  18.070  0.00  0.00    +0.000 HD
ENDBRANCH  13  14
ENDBRANCH   3  13
TORSDOF 4
ENDMDL
MODEL 9
REMARK VINA RESULT:      -7.2      2.424      3.953
REMARK  Name = 
REMARK  5 active torsions:
REMARK  status: ('A' for Active; 'I' for Inactive)
REMARK    1  A    between atoms: C_1  and  O_2
REMARK    2  A    between atoms: O_2  and  C_3
REMARK    3  A    between atoms: C_6  and  C_7
REMARK    4  A    between atoms: N_9  and  C_10
REMARK    5  A    between atoms: C_10  and  C_11
REMARK                            x       y       z     vdW  Elec       q    Type
REMARK                         _______ _______ _______ _____ _____    ______ ____
ROOT
ATOM      1  C   UNL     1       1.634   9.408  18.398  0.00  0.00    +0.000 C 
ATOM      2  O   UNL     1       1.978   9.905  17.326  0.00  0.00    +0.000 OA
ATOM      3  N   UNL     1       2.145   8.169  18.839  0.00  0.00    +0.000 N 
ATOM      4  H   UNL     1       1.756   7.730  19.655  0.00  0.00    +0.000 HD
ENDROOT
BRANCH   1   8
ATOM      5  C   UNL     1      -1.282  11.609  20.875  0.00  0.00    +0.000 A 
ATOM      6  C   UNL     1      -0.160  10.994  21.434  0.00  0.00    +0.000 A 
ATOM      7  C   UNL     1       0.762  10.297  20.633  0.00  0.00    +0.000 A 
ATOM      8  C   UNL     1       0.600  10.176  19.228  0.00  0.00    +0.000 A 
ATOM      9  C   UNL     1      -0.542  10.780  18.677  0.00  0.00    +0.000 A 
ATOM     10  C   UNL     1      -1.472  11.476  19.499  0.00  0.00    +0.000 A 
BRANCH   5  12
ATOM     11  C   UNL     1      -2.107  11.784  23.114  0.00  0.00    +0.000 C 
ATOM     12  O   UNL     1      -2.116  12.239  21.763  0.00  0.00    +0.000 OA
ENDBRANCH   5  12
ENDBRANCH   1   8
BRANCH   3  13
ATOM     13  C   UNL     1       3.121   7.366  18.011  0.00  0.00    +0.000 C 
BRANCH  13  14
ATOM     14  C   UNL     1       3.072   5.759  18.026  0.00  0.00    +0.000 C 
ATOM     15  N   UNL     1       4.298   5.355  17.297  0.00  0.00    +0.000 NA
ATOM     16  C   UNL     1       4.136   4.036  16.696  0.00  0.00    +0.000 C 
ATOM     17  C   UNL     1       4.066   3.008  17.798  0.00  0.00    +0.000 C 
ATOM     18  C   UNL     1       2.855   3.300  18.639  0.00  0.00    +0.000 A 
ATOM     19  C   UNL     1       2.057   2.211  19.032  0.00  0.00    +0.000 A 
ATOM     20  C   UNL     1       1.121   2.386  20.029  0.00  0.00    +0.000 A 
ATOM     21  C   UNL     1       1.040   3.634  20.646  0.00  0.00    +0.000 A 
ATOM     22  C   UNL     1       1.747   4.773  20.150  0.00  0.00    +0.000 A 
ATOM     23  C   UNL     1       2.618   4.651  19.059  0.00  0.00    +0.000 A 
ATOM     24  H   UNL     1       5.065   5.350  17.966  0.00  0.00    +0.000 HD
ENDBRANCH  13  14
ENDBRANCH   3  13
TORSDOF 4
ENDMDL
