MODEL 1
REMARK VINA RESULT:      -8.2      0.000      0.000
REMARK  Name = 
REMARK  8 active torsions:
REMARK  status: ('A' for Active; 'I' for Inactive)
REMARK    1  A    between atoms: C_2  and  C_3
REMARK    2  A    between atoms: C_3  and  C_4
REMARK    3  A    between atoms: C_4  and  C_5
REMARK    4  A    between atoms: N_9  and  C_10
REMARK    5  A    between atoms: C_10  and  C_11
REMARK    6  A    between atoms: N_26  and  C_27
REMARK    7  A    between atoms: C_27  and  C_28
REMARK    8  A    between atoms: C_28  and  N_29
REMARK                            x       y       z     vdW  Elec       q    Type
REMARK                         _______ _______ _______ _____ _____    ______ ____
ROOT
ATOM      1  C   UNL     1       3.038   7.519  17.982  0.00  0.00    +0.000 A 
ATOM      2  N   UNL     1       4.022   7.924  17.201  0.00  0.00    +0.000 NA
ATOM      3  N   UNL     1       5.006   6.985  17.202  0.00  0.00    +0.000 NA
ATOM      4  C   UNL     1       4.625   6.003  17.987  0.00  0.00    +0.000 A 
ATOM      5  N   UNL     1       5.361   4.873  18.303  0.00  0.00    +0.000 N 
ATOM      6  C   UNL     1       4.832   3.959  19.201  0.00  0.00    +0.000 A 
ATOM      7  O   UNL     1       5.458   2.990  19.626  0.00  0.00    +0.000 OA
ATOM      8  C   UNL     1       3.425   4.158  19.645  0.00  0.00    +0.000 A 
ATOM      9  C   UNL     1       2.834   3.139  20.408  0.00  0.00    +0.000 A 
ATOM     10  C   UNL     1       1.511   3.252  20.820  0.00  0.00    +0.000 A 
ATOM     11  C   UNL     1       0.778   4.391  20.472  0.00  0.00    +0.000 A 
ATOM     12  C   UNL     1       1.363   5.415  19.715  0.00  0.00    +0.000 A 
ATOM     13  C   UNL     1       2.690   5.304  19.291  0.00  0.00    +0.000 A 
ATOM     14  N   UNL     1       3.355   6.258  18.482  0.00  0.00    +0.000 N 
ENDROOT
BRANCH   1  15
ATOM     15  C   UNL     1       1.866   8.411  18.253  0.00  0.00    +0.000 C 
BRANCH  15  16
ATOM     16  C   UNL     1       2.250   9.882  18.139  0.00  0.00    +0.000 C 
BRANCH  16  18
ATOM     17  O   UNL     1       1.219  12.007  18.519  0.00  0.00    +0.000 OA
ATOM     18  C   UNL     1       1.142  10.789  18.643  0.00  0.00    +0.000 C 
ATOM     19  N   UNL     1       0.067  10.132  19.203  0.00  0.00    +0.000 N 
ATOM     20  H   UNL     1       0.227   9.191  19.544  0.00  0.00    +0.000 HD
BRANCH  19  21
ATOM     21  C   UNL     1      -1.135  10.802  19.707  0.00  0.00    +0.000 C 
BRANCH  21  22
ATOM     22  C   UNL     1      -2.134  11.237  18.611  0.00  0.00    +0.000 C 
BRANCH  22  23
ATOM     23  N   UNL     1      -3.004  10.172  18.061  0.00  0.00    +0.000 NA
ATOM     24  C   UNL     1      -2.518   9.771  16.712  0.00  0.00    +0.000 C 
ATOM     25  C   UNL     1      -2.760  10.832  15.618  0.00  0.00    +0.000 C 
ATOM     26  O   UNL     1      -4.143  11.199  15.539  0.00  0.00    +0.000 OA
ATOM     27  C   UNL     1      -4.627  11.657  16.808  0.00  0.00    +0.000 C 
ATOM     28  C   UNL     1      -4.415  10.591  17.898  0.00  0.00    +0.000 C 
ENDBRANCH  22  23
ENDBRANCH  21  22
ENDBRANCH  19  21
ENDBRANCH  16  18
ENDBRANCH  15  16
ENDBRANCH   1  15
BRANCH   5  29
ATOM     29  C   UNL     1       6.643   4.582  17.667  0.00  0.00    +0.000 C 
BRANCH  29  30
ATOM     30  C   UNL     1       6.497   4.490  16.161  0.00  0.00    +0.000 A 
ATOM     31  C   UNL     1       5.467   3.726  15.596  0.00  0.00    +0.000 A 
ATOM     32  C   UNL     1       5.394   3.543  14.214  0.00  0.00    +0.000 A 
ATOM     33  C   UNL     1       6.348   4.126  13.382  0.00  0.00    +0.000 A 
ATOM     34  C   UNL     1       7.363   4.911  13.928  0.00  0.00    +0.000 A 
ATOM     35  C   UNL     1       7.437   5.095  15.310  0.00  0.00    +0.000 A 
ENDBRANCH  29  30
ENDBRANCH   5  29
TORSDOF 8
ENDMDL
MODEL 2
REMARK VINA RESULT:      -8.2      0.951      1.263
REMARK  Name = 
REMARK  8 active torsions:
REMARK  status: ('A' for Active; 'I' for Inactive)
REMARK    1  A    between atoms: C_2  and  C_3
REMARK    2  A    between atoms: C_3  and  C_4
REMARK    3  A    between atoms: C_4  and  C_5
REMARK    4  A    between atoms: N_9  and  C_10
REMARK    5  A    between atoms: C_10  and  C_11
REMARK    6  A    between atoms: N_26  and  C_27
REMARK    7  A    between atoms: C_27  and  C_28
REMARK    8  A    between atoms: C_28  and  N_29
REMARK                            x       y       z     vdW  Elec       q    Type
REMARK                         _______ _______ _______ _____ _____    ______ ____
ROOT
ATOM      1  C   UNL     1       2.837   7.300  18.113  0.00  0.00    +0.000 A 
ATOM      2  N   UNL     1       3.821   7.812  17.398  0.00  0.00    +0.000 NA
ATOM      3  N   UNL     1       4.870   6.945  17.400  0.00  0.00    +0.000 NA
ATOM      4  C   UNL     1       4.528   5.901  18.118  0.00  0.00    +0.000 A 
ATOM      5  N   UNL     1       5.330   4.811  18.414  0.00  0.00    +0.000 N 
ATOM      6  C   UNL     1       4.831   3.818  19.242  0.00  0.00    +0.000 A 
ATOM      7  O   UNL     1       5.507   2.874  19.649  0.00  0.00    +0.000 OA
ATOM      8  C   UNL     1       3.395   3.894  19.630  0.00  0.00    +0.000 A 
ATOM      9  C   UNL     1       2.848   2.799  20.317  0.00  0.00    +0.000 A 
ATOM     10  C   UNL     1       1.504   2.798  20.672  0.00  0.00    +0.000 A 
ATOM     11  C   UNL     1       0.706   3.898  20.346  0.00  0.00    +0.000 A 
ATOM     12  C   UNL     1       1.247   4.999  19.666  0.00  0.00    +0.000 A 
ATOM     13  C   UNL     1       2.596   5.003  19.298  0.00  0.00    +0.000 A 
ATOM     14  N   UNL     1       3.223   6.040  18.567  0.00  0.00    +0.000 N 
ENDROOT
BRANCH   1  15
ATOM     15  C   UNL     1       1.593   8.092  18.372  0.00  0.00    +0.000 C 
BRANCH  15  16
ATOM     16  C   UNL     1       1.667   8.820  19.711  0.00  0.00    +0.000 C 
BRANCH  16  18
ATOM     17  O   UNL     1      -0.381   9.394  20.803  0.00  0.00    +0.000 OA
ATOM     18  C   UNL     1       0.444   9.687  19.944  0.00  0.00    +0.000 C 
ATOM     19  N   UNL     1       0.371  10.810  19.147  0.00  0.00    +0.000 N 
ATOM     20  H   UNL     1       0.900  10.799  18.283  0.00  0.00    +0.000 HD
BRANCH  19  21
ATOM     21  C   UNL     1      -0.694  11.814  19.236  0.00  0.00    +0.000 C 
BRANCH  21  22
ATOM     22  C   UNL     1      -1.714  11.772  18.077  0.00  0.00    +0.000 C 
BRANCH  22  23
ATOM     23  N   UNL     1      -2.892  10.896  18.276  0.00  0.00    +0.000 NA
ATOM     24  C   UNL     1      -2.713   9.629  17.513  0.00  0.00    +0.000 C 
ATOM     25  C   UNL     1      -2.827   9.798  15.984  0.00  0.00    +0.000 C 
ATOM     26  O   UNL     1      -4.069  10.407  15.613  0.00  0.00    +0.000 OA
ATOM     27  C   UNL     1      -4.244  11.665  16.278  0.00  0.00    +0.000 C 
ATOM     28  C   UNL     1      -4.160  11.500  17.806  0.00  0.00    +0.000 C 
ENDBRANCH  22  23
ENDBRANCH  21  22
ENDBRANCH  19  21
ENDBRANCH  16  18
ENDBRANCH  15  16
ENDBRANCH   1  15
BRANCH   5  29
ATOM     29  C   UNL     1       6.655   4.644  17.824  0.00  0.00    +0.000 C 
BRANCH  29  30
ATOM     30  C   UNL     1       6.562   4.410  16.329  0.00  0.00    +0.000 A 
ATOM     31  C   UNL     1       7.391   5.120  15.450  0.00  0.00    +0.000 A 
ATOM     32  C   UNL     1       7.234   4.995  14.069  0.00  0.00    +0.000 A 
ATOM     33  C   UNL     1       6.249   4.155  13.551  0.00  0.00    +0.000 A 
ATOM     34  C   UNL     1       5.436   3.422  14.414  0.00  0.00    +0.000 A 
ATOM     35  C   UNL     1       5.592   3.546  15.796  0.00  0.00    +0.000 A 
ENDBRANCH  29  30
ENDBRANCH   5  29
TORSDOF 8
ENDMDL
MODEL 3
REMARK VINA RESULT:      -8.0      2.141      3.471
REMARK  Name = 
REMARK  8 active torsions:
REMARK  status: ('A' for Active; 'I' for Inactive)
REMARK    1  A    between atoms: C_2  and  C_3
REMARK    2  A    between atoms: C_3  and  C_4
REMARK    3  A    between atoms: C_4  and  C_5
REMARK    4  A    between atoms: N_9  and  C_10
REMARK    5  A    between atoms: C_10  and  C_11
REMARK    6  A    between atoms: N_26  and  C_27
REMARK    7  A    between atoms: C_27  and  C_28
REMARK    8  A    between atoms: C_28  and  N_29
REMARK                            x       y       z     vdW  Elec       q    Type
REMARK                         _______ _______ _______ _____ _____    ______ ____
ROOT
ATOM      1  C   UNL     1       2.818   7.312  18.246  0.00  0.00    +0.000 A 
ATOM      2  N   UNL     1       3.786   7.824  17.509  0.00  0.00    +0.000 NA
ATOM      3  N   UNL     1       4.822   6.945  17.462  0.00  0.00    +0.000 NA
ATOM      4  C   UNL     1       4.491   5.892  18.173  0.00  0.00    +0.000 A 
ATOM      5  N   UNL     1       5.287   4.787  18.424  0.00  0.00    +0.000 N 
ATOM      6  C   UNL     1       4.802   3.786  19.250  0.00  0.00    +0.000 A 
ATOM      7  O   UNL     1       5.479   2.827  19.618  0.00  0.00    +0.000 OA
ATOM      8  C   UNL     1       3.381   3.873  19.685  0.00  0.00    +0.000 A 
ATOM      9  C   UNL     1       2.842   2.772  20.369  0.00  0.00    +0.000 A 
ATOM     10  C   UNL     1       1.510   2.781  20.767  0.00  0.00    +0.000 A 
ATOM     11  C   UNL     1       0.716   3.897  20.486  0.00  0.00    +0.000 A 
ATOM     12  C   UNL     1       1.249   5.002  19.808  0.00  0.00    +0.000 A 
ATOM     13  C   UNL     1       2.585   4.997  19.397  0.00  0.00    +0.000 A 
ATOM     14  N   UNL     1       3.202   6.039  18.665  0.00  0.00    +0.000 N 
ENDROOT
BRANCH   1  15
ATOM     15  C   UNL     1       1.593   8.114  18.558  0.00  0.00    +0.000 C 
BRANCH  15  16
ATOM     16  C   UNL     1       1.667   9.505  17.937  0.00  0.00    +0.000 C 
BRANCH  16  18
ATOM     17  O   UNL     1       1.041  10.533  20.004  0.00  0.00    +0.000 OA
ATOM     18  C   UNL     1       0.938  10.534  18.782  0.00  0.00    +0.000 C 
ATOM     19  N   UNL     1       0.203  11.454  18.065  0.00  0.00    +0.000 N 
ATOM     20  H   UNL     1      -0.076  11.193  17.126  0.00  0.00    +0.000 HD
BRANCH  19  21
ATOM     21  C   UNL     1      -0.537  12.566  18.668  0.00  0.00    +0.000 C 
BRANCH  21  22
ATOM     22  C   UNL     1       0.211  13.917  18.655  0.00  0.00    +0.000 C 
BRANCH  22  23
ATOM     23  N   UNL     1       1.319  14.059  19.629  0.00  0.00    +0.000 NA
ATOM     24  C   UNL     1       1.287  15.419  20.235  0.00  0.00    +0.000 C 
ATOM     25  C   UNL     1       1.705  16.546  19.268  0.00  0.00    +0.000 C 
ATOM     26  O   UNL     1       3.001  16.303  18.708  0.00  0.00    +0.000 OA
ATOM     27  C   UNL     1       3.049  15.028  18.055  0.00  0.00    +0.000 C 
ATOM     28  C   UNL     1       2.660  13.896  19.022  0.00  0.00    +0.000 C 
ENDBRANCH  22  23
ENDBRANCH  21  22
ENDBRANCH  19  21
ENDBRANCH  16  18
ENDBRANCH  15  16
ENDBRANCH   1  15
BRANCH   5  29
ATOM     29  C   UNL     1       6.591   4.614  17.789  0.00  0.00    +0.000 C 
BRANCH  29  30
ATOM     30  C   UNL     1       6.456   4.510  16.282  0.00  0.00    +0.000 A 
ATOM     31  C   UNL     1       5.478   3.680  15.717  0.00  0.00    +0.000 A 
ATOM     32  C   UNL     1       5.421   3.490  14.335  0.00  0.00    +0.000 A 
ATOM     33  C   UNL     1       6.339   4.130  13.504  0.00  0.00    +0.000 A 
ATOM     34  C   UNL     1       7.300   4.980  14.051  0.00  0.00    +0.000 A 
ATOM     35  C   UNL     1       7.358   5.171  15.433  0.00  0.00    +0.000 A 
ENDBRANCH  29  30
ENDBRANCH   5  29
TORSDOF 8
ENDMDL
MODEL 4
REMARK VINA RESULT:      -8.0      1.888      2.679
REMARK  Name = 
REMARK  8 active torsions:
REMARK  status: ('A' for Active; 'I' for Inactive)
REMARK    1  A    between atoms: C_2  and  C_3
REMARK    2  A    between atoms: C_3  and  C_4
REMARK    3  A    between atoms: C_4  and  C_5
REMARK    4  A    between atoms: N_9  and  C_10
REMARK    5  A    between atoms: C_10  and  C_11
REMARK    6  A    between atoms: N_26  and  C_27
REMARK    7  A    between atoms: C_27  and  C_28
REMARK    8  A    between atoms: C_28  and  N_29
REMARK                            x       y       z     vdW  Elec       q    Type
REMARK                         _______ _______ _______ _____ _____    ______ ____
ROOT
ATOM      1  C   UNL     1       2.951   7.315  18.281  0.00  0.00    +0.000 A 
ATOM      2  N   UNL     1       3.939   7.788  17.545  0.00  0.00    +0.000 NA
ATOM      3  N   UNL     1       4.932   6.860  17.483  0.00  0.00    +0.000 NA
ATOM      4  C   UNL     1       4.553   5.817  18.185  0.00  0.00    +0.000 A 
ATOM      5  N   UNL     1       5.296   4.672  18.420  0.00  0.00    +0.000 N 
ATOM      6  C   UNL     1       4.767   3.687  19.238  0.00  0.00    +0.000 A 
ATOM      7  O   UNL     1       5.399   2.693  19.594  0.00  0.00    +0.000 OA
ATOM      8  C   UNL     1       3.354   3.837  19.681  0.00  0.00    +0.000 A 
ATOM      9  C   UNL     1       2.766   2.757  20.356  0.00  0.00    +0.000 A 
ATOM     10  C   UNL     1       1.437   2.825  20.761  0.00  0.00    +0.000 A 
ATOM     11  C   UNL     1       0.697   3.981  20.496  0.00  0.00    +0.000 A 
ATOM     12  C   UNL     1       1.280   5.067  19.827  0.00  0.00    +0.000 A 
ATOM     13  C   UNL     1       2.612   5.001  19.409  0.00  0.00    +0.000 A 
ATOM     14  N   UNL     1       3.275   6.021  18.685  0.00  0.00    +0.000 N 
ENDROOT
BRANCH   1  15
ATOM     15  C   UNL     1       1.767   8.171  18.608  0.00  0.00    +0.000 C 
BRANCH  15  16
ATOM     16  C   UNL     1       1.749   9.439  17.760  0.00  0.00    +0.000 C 
BRANCH  16  18
ATOM     17  O   UNL     1       1.674  11.567  18.850  0.00  0.00    +0.000 OA
ATOM     18  C   UNL     1       1.050  10.580  18.476  0.00  0.00    +0.000 C 
ATOM     19  N   UNL     1      -0.311  10.417  18.630  0.00  0.00    +0.000 N 
ATOM     20  H   UNL     1      -0.672   9.471  18.586  0.00  0.00    +0.000 HD
BRANCH  19  21
ATOM     21  C   UNL     1      -1.194  11.413  19.244  0.00  0.00    +0.000 C 
BRANCH  21  22
ATOM     22  C   UNL     1      -1.172  11.425  20.789  0.00  0.00    +0.000 C 
BRANCH  22  23
ATOM     23  N   UNL     1      -1.305  12.753  21.433  0.00  0.00    +0.000 NA
ATOM     24  C   UNL     1      -1.380  12.591  22.911  0.00  0.00    +0.000 C 
ATOM     25  C   UNL     1      -2.706  11.977  23.408  0.00  0.00    +0.000 C 
ATOM     26  O   UNL     1      -3.837  12.729  22.952  0.00  0.00    +0.000 OA
ATOM     27  C   UNL     1      -3.834  12.846  21.523  0.00  0.00    +0.000 C 
ATOM     28  C   UNL     1      -2.526  13.485  21.022  0.00  0.00    +0.000 C 
ENDBRANCH  22  23
ENDBRANCH  21  22
ENDBRANCH  19  21
ENDBRANCH  16  18
ENDBRANCH  15  16
ENDBRANCH   1  15
BRANCH   5  29
ATOM     29  C   UNL     1       6.587   4.444  17.777  0.00  0.00    +0.000 C 
BRANCH  29  30
ATOM     30  C   UNL     1       6.449   4.417  16.268  0.00  0.00    +0.000 A 
ATOM     31  C   UNL     1       5.453   3.640  15.663  0.00  0.00    +0.000 A 
ATOM     32  C   UNL     1       5.390   3.520  14.274  0.00  0.00    +0.000 A 
ATOM     33  C   UNL     1       6.322   4.180  13.474  0.00  0.00    +0.000 A 
ATOM     34  C   UNL     1       7.303   4.978  14.061  0.00  0.00    +0.000 A 
ATOM     35  C   UNL     1       7.366   5.099  15.451  0.00  0.00    +0.000 A 
ENDBRANCH  29  30
ENDBRANCH   5  29
TORSDOF 8
ENDMDL
MODEL 5
REMARK VINA RESULT:      -8.0      2.606      3.547
REMARK  Name = 
REMARK  8 active torsions:
REMARK  status: ('A' for Active; 'I' for Inactive)
REMARK    1  A    between atoms: C_2  and  C_3
REMARK    2  A    between atoms: C_3  and  C_4
REMARK    3  A    between atoms: C_4  and  C_5
REMARK    4  A    between atoms: N_9  and  C_10
REMARK    5  A    between atoms: C_10  and  C_11
REMARK    6  A    between atoms: N_26  and  C_27
REMARK    7  A    between atoms: C_27  and  C_28
REMARK    8  A    between atoms: C_28  and  N_29
REMARK                            x       y       z     vdW  Elec       q    Type
REMARK                         _______ _______ _______ _____ _____    ______ ____
ROOT
ATOM      1  C   UNL     1       2.836   7.291  18.304  0.00  0.00    +0.000 A 
ATOM      2  N   UNL     1       3.811   7.818  17.587  0.00  0.00    +0.000 NA
ATOM      3  N   UNL     1       4.853   6.943  17.542  0.00  0.00    +0.000 NA
ATOM      4  C   UNL     1       4.516   5.881  18.235  0.00  0.00    +0.000 A 
ATOM      5  N   UNL     1       5.314   4.775  18.483  0.00  0.00    +0.000 N 
ATOM      6  C   UNL     1       4.823   3.762  19.290  0.00  0.00    +0.000 A 
ATOM      7  O   UNL     1       5.499   2.801  19.656  0.00  0.00    +0.000 OA
ATOM      8  C   UNL     1       3.396   3.837  19.707  0.00  0.00    +0.000 A 
ATOM      9  C   UNL     1       2.853   2.726  20.371  0.00  0.00    +0.000 A 
ATOM     10  C   UNL     1       1.516   2.724  20.752  0.00  0.00    +0.000 A 
ATOM     11  C   UNL     1       0.720   3.840  20.474  0.00  0.00    +0.000 A 
ATOM     12  C   UNL     1       1.257   4.956  19.817  0.00  0.00    +0.000 A 
ATOM     13  C   UNL     1       2.599   4.961  19.423  0.00  0.00    +0.000 A 
ATOM     14  N   UNL     1       3.221   6.016  18.713  0.00  0.00    +0.000 N 
ENDROOT
BRANCH   1  15
ATOM     15  C   UNL     1       1.604   8.084  18.611  0.00  0.00    +0.000 C 
BRANCH  15  16
ATOM     16  C   UNL     1       1.505   9.322  17.724  0.00  0.00    +0.000 C 
BRANCH  16  18
ATOM     17  O   UNL     1       1.072  10.637  19.674  0.00  0.00    +0.000 OA
ATOM     18  C   UNL     1       1.543  10.599  18.542  0.00  0.00    +0.000 C 
ATOM     19  N   UNL     1       2.166  11.663  17.924  0.00  0.00    +0.000 N 
ATOM     20  H   UNL     1       2.232  11.637  16.913  0.00  0.00    +0.000 HD
BRANCH  19  21
ATOM     21  C   UNL     1       2.364  12.975  18.546  0.00  0.00    +0.000 C 
BRANCH  21  22
ATOM     22  C   UNL     1       1.106  13.874  18.562  0.00  0.00    +0.000 C 
BRANCH  22  23
ATOM     23  N   UNL     1       1.034  14.875  19.652  0.00  0.00    +0.000 NA
ATOM     24  C   UNL     1      -0.261  15.607  19.580  0.00  0.00    +0.000 C 
ATOM     25  C   UNL     1      -0.365  16.579  18.387  0.00  0.00    +0.000 C 
ATOM     26  O   UNL     1       0.716  17.520  18.381  0.00  0.00    +0.000 OA
ATOM     27  C   UNL     1       1.983  16.848  18.381  0.00  0.00    +0.000 C 
ATOM     28  C   UNL     1       2.104  15.896  19.585  0.00  0.00    +0.000 C 
ENDBRANCH  22  23
ENDBRANCH  21  22
ENDBRANCH  19  21
ENDBRANCH  16  18
ENDBRANCH  15  16
ENDBRANCH   1  15
BRANCH   5  29
ATOM     29  C   UNL     1       6.627   4.617  17.863  0.00  0.00    +0.000 C 
BRANCH  29  30
ATOM     30  C   UNL     1       6.503   4.408  16.367  0.00  0.00    +0.000 A 
ATOM     31  C   UNL     1       7.403   5.029  15.490  0.00  0.00    +0.000 A 
ATOM     32  C   UNL     1       7.229   4.935  14.109  0.00  0.00    +0.000 A 
ATOM     33  C   UNL     1       6.154   4.215  13.588  0.00  0.00    +0.000 A 
ATOM     34  C   UNL     1       5.267   3.570  14.448  0.00  0.00    +0.000 A 
ATOM     35  C   UNL     1       5.440   3.663  15.831  0.00  0.00    +0.000 A 
ENDBRANCH  29  30
ENDBRANCH   5  29
TORSDOF 8
ENDMDL
MODEL 6
REMARK VINA RESULT:      -8.0      2.422      4.020
REMARK  Name = 
REMARK  8 active torsions:
REMARK  status: ('A' for Active; 'I' for Inactive)
REMARK    1  A    between atoms: C_2  and  C_3
REMARK    2  A    between atoms: C_3  and  C_4
REMARK    3  A    between atoms: C_4  and  C_5
REMARK    4  A    between atoms: N_9  and  C_10
REMARK    5  A    between atoms: C_10  and  C_11
REMARK    6  A    between atoms: N_26  and  C_27
REMARK    7  A    between atoms: C_27  and  C_28
REMARK    8  A    between atoms: C_28  and  N_29
REMARK                            x       y       z     vdW  Elec       q    Type
REMARK                         _______ _______ _______ _____ _____    ______ ____
ROOT
ATOM      1  C   UNL     1       2.933   7.318  18.160  0.00  0.00    +0.000 A 
ATOM      2  N   UNL     1       3.922   7.798  17.429  0.00  0.00    +0.000 NA
ATOM      3  N   UNL     1       4.945   6.900  17.420  0.00  0.00    +0.000 NA
ATOM      4  C   UNL     1       4.583   5.870  18.148  0.00  0.00    +0.000 A 
ATOM      5  N   UNL     1       5.357   4.758  18.438  0.00  0.00    +0.000 N 
ATOM      6  C   UNL     1       4.841   3.784  19.278  0.00  0.00    +0.000 A 
ATOM      7  O   UNL     1       5.495   2.823  19.680  0.00  0.00    +0.000 OA
ATOM      8  C   UNL     1       3.414   3.904  19.686  0.00  0.00    +0.000 A 
ATOM      9  C   UNL     1       2.845   2.828  20.385  0.00  0.00    +0.000 A 
ATOM     10  C   UNL     1       1.507   2.868  20.760  0.00  0.00    +0.000 A 
ATOM     11  C   UNL     1       0.737   3.989  20.440  0.00  0.00    +0.000 A 
ATOM     12  C   UNL     1       1.300   5.070  19.747  0.00  0.00    +0.000 A 
ATOM     13  C   UNL     1       2.643   5.034  19.359  0.00  0.00    +0.000 A 
ATOM     14  N   UNL     1       3.289   6.049  18.615  0.00  0.00    +0.000 N 
ENDROOT
BRANCH   1  15
ATOM     15  C   UNL     1       1.717   8.147  18.433  0.00  0.00    +0.000 C 
BRANCH  15  16
ATOM     16  C   UNL     1       1.870   9.558  17.874  0.00  0.00    +0.000 C 
BRANCH  16  18
ATOM     17  O   UNL     1       0.084  10.148  19.352  0.00  0.00    +0.000 OA
ATOM     18  C   UNL     1       0.951  10.540  18.577  0.00  0.00    +0.000 C 
ATOM     19  N   UNL     1       1.199  11.867  18.296  0.00  0.00    +0.000 N 
ATOM     20  H   UNL     1       1.695  12.072  17.436  0.00  0.00    +0.000 HD
BRANCH  19  21
ATOM     21  C   UNL     1       0.471  12.986  18.900  0.00  0.00    +0.000 C 
BRANCH  21  22
ATOM     22  C   UNL     1       1.365  14.159  19.360  0.00  0.00    +0.000 C 
BRANCH  22  23
ATOM     23  N   UNL     1       2.804  14.051  19.029  0.00  0.00    +0.000 NA
ATOM     24  C   UNL     1       3.624  14.489  20.192  0.00  0.00    +0.000 C 
ATOM     25  C   UNL     1       3.577  16.009  20.455  0.00  0.00    +0.000 C 
ATOM     26  O   UNL     1       3.960  16.755  19.294  0.00  0.00    +0.000 OA
ATOM     27  C   UNL     1       3.144  16.408  18.167  0.00  0.00    +0.000 C 
ATOM     28  C   UNL     1       3.209  14.897  17.882  0.00  0.00    +0.000 C 
ENDBRANCH  22  23
ENDBRANCH  21  22
ENDBRANCH  19  21
ENDBRANCH  16  18
ENDBRANCH  15  16
ENDBRANCH   1  15
BRANCH   5  29
ATOM     29  C   UNL     1       6.668   4.550  17.830  0.00  0.00    +0.000 C 
BRANCH  29  30
ATOM     30  C   UNL     1       6.553   4.373  16.329  0.00  0.00    +0.000 A 
ATOM     31  C   UNL     1       7.437   5.039  15.469  0.00  0.00    +0.000 A 
ATOM     32  C   UNL     1       7.268   4.972  14.086  0.00  0.00    +0.000 A 
ATOM     33  C   UNL     1       6.214   4.236  13.546  0.00  0.00    +0.000 A 
ATOM     34  C   UNL     1       5.343   3.547  14.389  0.00  0.00    +0.000 A 
ATOM     35  C   UNL     1       5.511   3.613  15.773  0.00  0.00    +0.000 A 
ENDBRANCH  29  30
ENDBRANCH   5  29
TORSDOF 8
ENDMDL
MODEL 7
REMARK VINA RESULT:      -7.9      2.045      2.911
REMARK  Name = 
REMARK  8 active torsions:
REMARK  status: ('A' for Active; 'I' for Inactive)
REMARK    1  A    between atoms: C_2  and  C_3
REMARK    2  A    between atoms: C_3  and  C_4
REMARK    3  A    between atoms: C_4  and  C_5
REMARK    4  A    between atoms: N_9  and  C_10
REMARK    5  A    between atoms: C_10  and  C_11
REMARK    6  A    between atoms: N_26  and  C_27
REMARK    7  A    between atoms: C_27  and  C_28
REMARK    8  A    between atoms: C_28  and  N_29
REMARK                            x       y       z     vdW  Elec       q    Type
REMARK                         _______ _______ _______ _____ _____    ______ ____
ROOT
ATOM      1  C   UNL     1       2.871   7.289  18.206  0.00  0.00    +0.000 A 
ATOM      2  N   UNL     1       3.851   7.784  17.473  0.00  0.00    +0.000 NA
ATOM      3  N   UNL     1       4.884   6.898  17.455  0.00  0.00    +0.000 NA
ATOM      4  C   UNL     1       4.537   5.861  18.180  0.00  0.00    +0.000 A 
ATOM      5  N   UNL     1       5.324   4.756  18.462  0.00  0.00    +0.000 N 
ATOM      6  C   UNL     1       4.823   3.772  19.299  0.00  0.00    +0.000 A 
ATOM      7  O   UNL     1       5.490   2.817  19.694  0.00  0.00    +0.000 OA
ATOM      8  C   UNL     1       3.397   3.874  19.713  0.00  0.00    +0.000 A 
ATOM      9  C   UNL     1       2.843   2.789  20.410  0.00  0.00    +0.000 A 
ATOM     10  C   UNL     1       1.506   2.811  20.790  0.00  0.00    +0.000 A 
ATOM     11  C   UNL     1       0.721   3.926  20.478  0.00  0.00    +0.000 A 
ATOM     12  C   UNL     1       1.269   5.016  19.788  0.00  0.00    +0.000 A 
ATOM     13  C   UNL     1       2.611   4.996  19.395  0.00  0.00    +0.000 A 
ATOM     14  N   UNL     1       3.243   6.023  18.653  0.00  0.00    +0.000 N 
ENDROOT
BRANCH   1  15
ATOM     15  C   UNL     1       1.646   8.103  18.487  0.00  0.00    +0.000 C 
BRANCH  15  16
ATOM     16  C   UNL     1       1.766   9.507  17.902  0.00  0.00    +0.000 C 
BRANCH  16  18
ATOM     17  O   UNL     1      -0.478  10.087  18.493  0.00  0.00    +0.000 OA
ATOM     18  C   UNL     1       0.698  10.434  18.452  0.00  0.00    +0.000 C 
ATOM     19  N   UNL     1       1.167  11.646  18.915  0.00  0.00    +0.000 N 
ATOM     20  H   UNL     1       2.062  11.962  18.559  0.00  0.00    +0.000 HD
BRANCH  19  21
ATOM     21  C   UNL     1       0.323  12.672  19.535  0.00  0.00    +0.000 C 
BRANCH  21  22
ATOM     22  C   UNL     1      -0.064  12.384  21.002  0.00  0.00    +0.000 C 
BRANCH  22  23
ATOM     23  N   UNL     1      -0.790  13.465  21.709  0.00  0.00    +0.000 NA
ATOM     24  C   UNL     1      -1.186  13.002  23.068  0.00  0.00    +0.000 C 
ATOM     25  C   UNL     1      -2.315  11.950  23.066  0.00  0.00    +0.000 C 
ATOM     26  O   UNL     1      -3.472  12.422  22.366  0.00  0.00    +0.000 OA
ATOM     27  C   UNL     1      -3.140  12.813  21.028  0.00  0.00    +0.000 C 
ATOM     28  C   UNL     1      -2.034  13.884  21.023  0.00  0.00    +0.000 C 
ENDBRANCH  22  23
ENDBRANCH  21  22
ENDBRANCH  19  21
ENDBRANCH  16  18
ENDBRANCH  15  16
ENDBRANCH   1  15
BRANCH   5  29
ATOM     29  C   UNL     1       6.635   4.566  17.848  0.00  0.00    +0.000 C 
BRANCH  29  30
ATOM     30  C   UNL     1       6.515   4.379  16.348  0.00  0.00    +0.000 A 
ATOM     31  C   UNL     1       7.392   5.043  15.481  0.00  0.00    +0.000 A 
ATOM     32  C   UNL     1       7.217   4.967  14.098  0.00  0.00    +0.000 A 
ATOM     33  C   UNL     1       6.165   4.222  13.567  0.00  0.00    +0.000 A 
ATOM     34  C   UNL     1       5.301   3.534  14.418  0.00  0.00    +0.000 A 
ATOM     35  C   UNL     1       5.475   3.609  15.802  0.00  0.00    +0.000 A 
ENDBRANCH  29  30
ENDBRANCH   5  29
TORSDOF 8
ENDMDL
MODEL 8
REMARK VINA RESULT:      -7.9      1.990      2.914
REMARK  Name = 
REMARK  8 active torsions:
REMARK  status: ('A' for Active; 'I' for Inactive)
REMARK    1  A    between atoms: C_2  and  C_3
REMARK    2  A    between atoms: C_3  and  C_4
REMARK    3  A    between atoms: C_4  and  C_5
REMARK    4  A    between atoms: N_9  and  C_10
REMARK    5  A    between atoms: C_10  and  C_11
REMARK    6  A    between atoms: N_26  and  C_27
REMARK    7  A    between atoms: C_27  and  C_28
REMARK    8  A    between atoms: C_28  and  N_29
REMARK                            x       y       z     vdW  Elec       q    Type
REMARK                         _______ _______ _______ _____ _____    ______ ____
ROOT
ATOM      1  C   UNL     1       2.924   7.276  18.345  0.00  0.00    +0.000 A 
ATOM      2  N   UNL     1       3.909   7.792  17.634  0.00  0.00    +0.000 NA
ATOM      3  N   UNL     1       4.931   6.896  17.573  0.00  0.00    +0.000 NA
ATOM      4  C   UNL     1       4.573   5.830  18.251  0.00  0.00    +0.000 A 
ATOM      5  N   UNL     1       5.347   4.704  18.480  0.00  0.00    +0.000 N 
ATOM      6  C   UNL     1       4.835   3.690  19.273  0.00  0.00    +0.000 A 
ATOM      7  O   UNL     1       5.491   2.709  19.622  0.00  0.00    +0.000 OA
ATOM      8  C   UNL     1       3.411   3.790  19.694  0.00  0.00    +0.000 A 
ATOM      9  C   UNL     1       2.845   2.680  20.342  0.00  0.00    +0.000 A 
ATOM     10  C   UNL     1       1.509   2.702  20.725  0.00  0.00    +0.000 A 
ATOM     11  C   UNL     1       0.737   3.839  20.466  0.00  0.00    +0.000 A 
ATOM     12  C   UNL     1       1.297   4.953  19.826  0.00  0.00    +0.000 A 
ATOM     13  C   UNL     1       2.638   4.935  19.429  0.00  0.00    +0.000 A 
ATOM     14  N   UNL     1       3.281   5.986  18.733  0.00  0.00    +0.000 N 
ENDROOT
BRANCH   1  15
ATOM     15  C   UNL     1       1.710   8.091  18.667  0.00  0.00    +0.000 C 
BRANCH  15  16
ATOM     16  C   UNL     1       1.580   9.288  17.729  0.00  0.00    +0.000 C 
BRANCH  16  18
ATOM     17  O   UNL     1      -0.561  10.233  18.223  0.00  0.00    +0.000 OA
ATOM     18  C   UNL     1       0.658  10.348  18.301  0.00  0.00    +0.000 C 
ATOM     19  N   UNL     1       1.301  11.398  18.923  0.00  0.00    +0.000 N 
ATOM     20  H   UNL     1       2.266  11.567  18.666  0.00  0.00    +0.000 HD
BRANCH  19  21
ATOM     21  C   UNL     1       0.611  12.506  19.591  0.00  0.00    +0.000 C 
BRANCH  21  22
ATOM     22  C   UNL     1       0.359  12.289  21.100  0.00  0.00    +0.000 C 
BRANCH  22  23
ATOM     23  N   UNL     1      -0.948  11.696  21.464  0.00  0.00    +0.000 NA
ATOM     24  C   UNL     1      -2.038  12.378  20.712  0.00  0.00    +0.000 C 
ATOM     25  C   UNL     1      -2.317  13.820  21.183  0.00  0.00    +0.000 C 
ATOM     26  O   UNL     1      -2.603  13.869  22.586  0.00  0.00    +0.000 OA
ATOM     27  C   UNL     1      -1.540  13.281  23.348  0.00  0.00    +0.000 C 
ATOM     28  C   UNL     1      -1.275  11.832  22.903  0.00  0.00    +0.000 C 
ENDBRANCH  22  23
ENDBRANCH  21  22
ENDBRANCH  19  21
ENDBRANCH  16  18
ENDBRANCH  15  16
ENDBRANCH   1  15
BRANCH   5  29
ATOM     29  C   UNL     1       6.654   4.526  17.855  0.00  0.00    +0.000 C 
BRANCH  29  30
ATOM     30  C   UNL     1       6.524   4.354  16.354  0.00  0.00    +0.000 A 
ATOM     31  C   UNL     1       7.398   5.024  15.487  0.00  0.00    +0.000 A 
ATOM     32  C   UNL     1       7.214   4.961  14.105  0.00  0.00    +0.000 A 
ATOM     33  C   UNL     1       6.157   4.224  13.574  0.00  0.00    +0.000 A 
ATOM     34  C   UNL     1       5.296   3.531  14.424  0.00  0.00    +0.000 A 
ATOM     35  C   UNL     1       5.478   3.592  15.807  0.00  0.00    +0.000 A 
ENDBRANCH  29  30
ENDBRANCH   5  29
TORSDOF 8
ENDMDL
MODEL 9
REMARK VINA RESULT:      -7.9      3.774     10.829
REMARK  Name = 
REMARK  8 active torsions:
REMARK  status: ('A' for Active; 'I' for Inactive)
REMARK    1  A    between atoms: C_2  and  C_3
REMARK    2  A    between atoms: C_3  and  C_4
REMARK    3  A    between atoms: C_4  and  C_5
REMARK    4  A    between atoms: N_9  and  C_10
REMARK    5  A    between atoms: C_10  and  C_11
REMARK    6  A    between atoms: N_26  and  C_27
REMARK    7  A    between atoms: C_27  and  C_28
REMARK    8  A    between atoms: C_28  and  N_29
REMARK                            x       y       z     vdW  Elec       q    Type
REMARK                         _______ _______ _______ _____ _____    ______ ____
ROOT
ATOM      1  C   UNL     1       0.535   9.867  21.856  0.00  0.00    +0.000 A 
ATOM      2  N   UNL     1       0.450   9.913  23.172  0.00  0.00    +0.000 NA
ATOM      3  N   UNL     1      -0.616  10.683  23.523  0.00  0.00    +0.000 NA
ATOM      4  C   UNL     1      -1.183  11.112  22.419  0.00  0.00    +0.000 A 
ATOM      5  N   UNL     1      -2.270  11.967  22.334  0.00  0.00    +0.000 N 
ATOM      6  C   UNL     1      -2.707  12.371  21.083  0.00  0.00    +0.000 A 
ATOM      7  O   UNL     1      -3.587  13.214  20.914  0.00  0.00    +0.000 OA
ATOM      8  C   UNL     1      -2.092  11.725  19.891  0.00  0.00    +0.000 A 
ATOM      9  C   UNL     1      -2.658  12.002  18.636  0.00  0.00    +0.000 A 
ATOM     10  C   UNL     1      -2.149  11.399  17.492  0.00  0.00    +0.000 A 
ATOM     11  C   UNL     1      -1.066  10.522  17.601  0.00  0.00    +0.000 A 
ATOM     12  C   UNL     1      -0.491  10.246  18.849  0.00  0.00    +0.000 A 
ATOM     13  C   UNL     1      -1.003  10.842  20.005  0.00  0.00    +0.000 A 
ATOM     14  N   UNL     1      -0.527  10.590  21.314  0.00  0.00    +0.000 N 
ENDROOT
BRANCH   1  15
ATOM     15  C   UNL     1       1.684   9.175  21.191  0.00  0.00    +0.000 C 
BRANCH  15  16
ATOM     16  C   UNL     1       1.334   7.732  20.839  0.00  0.00    +0.000 C 
BRANCH  16  18
ATOM     17  O   UNL     1       2.216   7.689  18.617  0.00  0.00    +0.000 OA
ATOM     18  C   UNL     1       2.229   7.193  19.738  0.00  0.00    +0.000 C 
ATOM     19  N   UNL     1       3.050   6.152  20.119  0.00  0.00    +0.000 N 
ATOM     20  H   UNL     1       2.772   5.618  20.934  0.00  0.00    +0.000 HD
BRANCH  19  21
ATOM     21  C   UNL     1       4.030   5.513  19.236  0.00  0.00    +0.000 C 
BRANCH  21  22
ATOM     22  C   UNL     1       3.424   4.530  18.209  0.00  0.00    +0.000 C 
BRANCH  22  23
ATOM     23  N   UNL     1       3.754   3.099  18.404  0.00  0.00    +0.000 NA
ATOM     24  C   UNL     1       2.680   2.250  17.819  0.00  0.00    +0.000 C 
ATOM     25  C   UNL     1       1.358   2.276  18.614  0.00  0.00    +0.000 C 
ATOM     26  O   UNL     1       1.561   1.911  19.984  0.00  0.00    +0.000 OA
ATOM     27  C   UNL     1       2.543   2.755  20.601  0.00  0.00    +0.000 C 
ATOM     28  C   UNL     1       3.874   2.712  19.828  0.00  0.00    +0.000 C 
ENDBRANCH  22  23
ENDBRANCH  21  22
ENDBRANCH  19  21
ENDBRANCH  16  18
ENDBRANCH  15  16
ENDBRANCH   1  15
BRANCH   5  29
ATOM     29  C   UNL     1      -3.008  12.398  23.518  0.00  0.00    +0.000 C 
BRANCH  29  30
ATOM     30  C   UNL     1      -2.671  13.832  23.880  0.00  0.00    +0.000 A 
ATOM     31  C   UNL     1      -1.347  14.284  23.816  0.00  0.00    +0.000 A 
ATOM     32  C   UNL     1      -1.012  15.566  24.255  0.00  0.00    +0.000 A 
ATOM     33  C   UNL     1      -2.000  16.411  24.760  0.00  0.00    +0.000 A 
ATOM     34  C   UNL     1      -3.326  15.983  24.804  0.00  0.00    +0.000 A 
ATOM     35  C   UNL     1      -3.662  14.701  24.365  0.00  0.00    +0.000 A 
ENDBRANCH  29  30
ENDBRANCH   5  29
TORSDOF 8
ENDMDL
