MODEL 1
REMARK VINA RESULT:     -10.4      0.000      0.000
REMARK  Name = 
REMARK  5 active torsions:
REMARK  status: ('A' for Active; 'I' for Inactive)
REMARK    1  A    between atoms: C_2  and  O_3
REMARK    2  A    between atoms: C_2  and  C_24
REMARK    3  A    between atoms: O_3  and  C_4
REMARK    4  A    between atoms: C_4  and  C_5
REMARK    5  A    between atoms: C_15  and  C_16
REMARK                            x       y       z     vdW  Elec       q    Type
REMARK                         _______ _______ _______ _____ _____    ______ ____
ROOT
ATOM      1  C   UNL     1       3.773   4.544  19.841  0.00  0.00    +0.000 C 
ATOM      2  C   UNL     1       3.112   5.763  18.940  0.00  0.00    +0.000 C 
ATOM      3  C   UNL     1       1.994   5.219  17.989  0.00  0.00    +0.000 C 
ATOM      4  C   UNL     1       1.327   4.129  18.839  0.00  0.00    +0.000 C 
ATOM      5  C   UNL     1       1.135   2.621  18.950  0.00  0.00    +0.000 C 
ATOM      6  C   UNL     1       2.020   2.344  20.217  0.00  0.00    +0.000 C 
ATOM      7  C   UNL     1       2.636   3.720  20.644  0.00  0.00    +0.000 C 
ATOM      8  N   UNL     1       1.403   4.442  20.321  0.00  0.00    +0.000 NA
ATOM      9  C   UNL     1       1.493   5.823  20.790  0.00  0.00    +0.000 C 
ATOM     10  C   UNL     1       2.271   6.664  19.832  0.00  0.00    +0.000 C 
ATOM     11  C   UNL     1       2.064   7.984  19.651  0.00  0.00    +0.000 C 
ENDROOT
BRANCH  11  12
ATOM     12  C   UNL     1       1.152   8.772  20.498  0.00  0.00    +0.000 A 
ATOM     13  C   UNL     1       1.188   8.688  21.898  0.00  0.00    +0.000 A 
ATOM     14  C   UNL     1       0.371   9.517  22.679  0.00  0.00    +0.000 A 
ATOM     15  C   UNL     1      -0.494  10.428  22.066  0.00  0.00    +0.000 A 
ATOM     16 CL   UNL     1      -1.467  11.429  23.085  0.00  0.00    +0.000 Cl
ATOM     17  C   UNL     1      -0.539  10.508  20.671  0.00  0.00    +0.000 A 
ATOM     18 CL   UNL     1      -1.576  11.613  19.840  0.00  0.00    +0.000 Cl
ATOM     19  C   UNL     1       0.284   9.684  19.893  0.00  0.00    +0.000 A 
ENDBRANCH  11  12
BRANCH   1  20
ATOM     20  C   UNL     1       4.722   3.666  19.004  0.00  0.00    +0.000 C 
BRANCH  20  21
ATOM     21  O   UNL     1       6.088   4.140  19.060  0.00  0.00    +0.000 OA
BRANCH  21  23
ATOM     22  O   UNL     1       6.639   6.298  18.553  0.00  0.00    +0.000 OA
ATOM     23  C   UNL     1       6.359   5.158  18.220  0.00  0.00    +0.000 C 
BRANCH  23  24
ATOM     24  C   UNL     1       6.334   4.737  16.782  0.00  0.00    +0.000 A 
ATOM     25  C   UNL     1       5.389   3.775  16.426  0.00  0.00    +0.000 A 
ATOM     26  C   UNL     1       5.273   3.362  15.099  0.00  0.00    +0.000 A 
ATOM     27  C   UNL     1       6.102   3.904  14.110  0.00  0.00    +0.000 A 
ATOM     28  C   UNL     1       5.956   3.522  12.768  0.00  0.00    +0.000 A 
ATOM     29  C   UNL     1       6.772   4.071  11.779  0.00  0.00    +0.000 A 
ATOM     30  C   UNL     1       7.752   4.998  12.126  0.00  0.00    +0.000 A 
ATOM     31  C   UNL     1       7.913   5.382  13.461  0.00  0.00    +0.000 A 
ATOM     32  C   UNL     1       7.092   4.852  14.466  0.00  0.00    +0.000 A 
ATOM     33  C   UNL     1       7.203   5.258  15.819  0.00  0.00    +0.000 A 
ENDBRANCH  23  24
ENDBRANCH  21  23
ENDBRANCH  20  21
ENDBRANCH   1  20
TORSDOF 5
ENDMDL
MODEL 2
REMARK VINA RESULT:     -10.4      0.601      1.313
REMARK  Name = 
REMARK  5 active torsions:
REMARK  status: ('A' for Active; 'I' for Inactive)
REMARK    1  A    between atoms: C_2  and  O_3
REMARK    2  A    between atoms: C_2  and  C_24
REMARK    3  A    between atoms: O_3  and  C_4
REMARK    4  A    between atoms: C_4  and  C_5
REMARK    5  A    between atoms: C_15  and  C_16
REMARK                            x       y       z     vdW  Elec       q    Type
REMARK                         _______ _______ _______ _____ _____    ______ ____
ROOT
ATOM      1  C   UNL     1       3.441   4.123  20.214  0.00  0.00    +0.000 C 
ATOM      2  C   UNL     1       3.088   5.423  19.255  0.00  0.00    +0.000 C 
ATOM      3  C   UNL     1       2.097   5.027  18.110  0.00  0.00    +0.000 C 
ATOM      4  C   UNL     1       1.174   4.011  18.798  0.00  0.00    +0.000 C 
ATOM      5  C   UNL     1       0.797   2.534  18.823  0.00  0.00    +0.000 C 
ATOM      6  C   UNL     1       1.412   2.138  20.212  0.00  0.00    +0.000 C 
ATOM      7  C   UNL     1       2.097   3.426  20.783  0.00  0.00    +0.000 C 
ATOM      8  N   UNL     1       1.028   4.292  20.280  0.00  0.00    +0.000 NA
ATOM      9  C   UNL     1       1.191   5.647  20.804  0.00  0.00    +0.000 C 
ATOM     10  C   UNL     1       2.213   6.403  20.021  0.00  0.00    +0.000 C 
ATOM     11  C   UNL     1       2.191   7.742  19.853  0.00  0.00    +0.000 C 
ENDROOT
BRANCH  11  12
ATOM     12  C   UNL     1       1.241   8.619  20.559  0.00  0.00    +0.000 A 
ATOM     13  C   UNL     1       1.198   8.685  21.959  0.00  0.00    +0.000 A 
ATOM     14  C   UNL     1       0.347   9.595  22.600  0.00  0.00    +0.000 A 
ATOM     15  C   UNL     1      -0.473  10.439  21.846  0.00  0.00    +0.000 A 
ATOM     16 CL   UNL     1      -1.492  11.547  22.696  0.00  0.00    +0.000 Cl
ATOM     17  C   UNL     1      -0.440  10.369  20.450  0.00  0.00    +0.000 A 
ATOM     18 CL   UNL     1      -1.419  11.383  19.449  0.00  0.00    +0.000 Cl
ATOM     19  C   UNL     1       0.417   9.465  19.812  0.00  0.00    +0.000 A 
ENDBRANCH  11  12
BRANCH   1  20
ATOM     20  C   UNL     1       4.415   3.151  19.521  0.00  0.00    +0.000 C 
BRANCH  20  21
ATOM     21  O   UNL     1       4.728   3.569  18.172  0.00  0.00    +0.000 OA
BRANCH  21  23
ATOM     22  O   UNL     1       6.559   4.667  18.983  0.00  0.00    +0.000 OA
ATOM     23  C   UNL     1       5.874   4.267  18.056  0.00  0.00    +0.000 C 
BRANCH  23  24
ATOM     24  C   UNL     1       6.277   4.475  16.627  0.00  0.00    +0.000 A 
ATOM     25  C   UNL     1       7.256   5.437  16.385  0.00  0.00    +0.000 A 
ATOM     26  C   UNL     1       7.717   5.659  15.088  0.00  0.00    +0.000 A 
ATOM     27  C   UNL     1       7.204   4.922  14.015  0.00  0.00    +0.000 A 
ATOM     28  C   UNL     1       7.698   5.114  12.716  0.00  0.00    +0.000 A 
ATOM     29  C   UNL     1       7.198   4.371  11.647  0.00  0.00    +0.000 A 
ATOM     30  C   UNL     1       6.186   3.439  11.865  0.00  0.00    +0.000 A 
ATOM     31  C   UNL     1       5.679   3.243  13.154  0.00  0.00    +0.000 A 
ATOM     32  C   UNL     1       6.181   3.970  14.242  0.00  0.00    +0.000 A 
ATOM     33  C   UNL     1       5.718   3.759  15.565  0.00  0.00    +0.000 A 
ENDBRANCH  23  24
ENDBRANCH  21  23
ENDBRANCH  20  21
ENDBRANCH   1  20
TORSDOF 5
ENDMDL
MODEL 3
REMARK VINA RESULT:     -10.3      0.845      1.795
REMARK  Name = 
REMARK  5 active torsions:
REMARK  status: ('A' for Active; 'I' for Inactive)
REMARK    1  A    between atoms: C_2  and  O_3
REMARK    2  A    between atoms: C_2  and  C_24
REMARK    3  A    between atoms: O_3  and  C_4
REMARK    4  A    between atoms: C_4  and  C_5
REMARK    5  A    between atoms: C_15  and  C_16
REMARK                            x       y       z     vdW  Elec       q    Type
REMARK                         _______ _______ _______ _____ _____    ______ ____
ROOT
ATOM      1  C   UNL     1       3.517   4.376  20.243  0.00  0.00    +0.000 C 
ATOM      2  C   UNL     1       3.061   5.438  19.061  0.00  0.00    +0.000 C 
ATOM      3  C   UNL     1       1.966   4.813  18.133  0.00  0.00    +0.000 C 
ATOM      4  C   UNL     1       1.123   3.987  19.114  0.00  0.00    +0.000 C 
ATOM      5  C   UNL     1       0.761   2.557  19.501  0.00  0.00    +0.000 C 
ATOM      6  C   UNL     1       1.513   2.468  20.876  0.00  0.00    +0.000 C 
ATOM      7  C   UNL     1       2.241   3.841  21.080  0.00  0.00    +0.000 C 
ATOM      8  N   UNL     1       1.121   4.590  20.505  0.00  0.00    +0.000 NA
ATOM      9  C   UNL     1       1.324   6.024  20.699  0.00  0.00    +0.000 C 
ATOM     10  C   UNL     1       2.258   6.575  19.672  0.00  0.00    +0.000 C 
ATOM     11  C   UNL     1       2.210   7.844  19.216  0.00  0.00    +0.000 C 
ENDROOT
BRANCH  11  12
ATOM     12  C   UNL     1       1.328   8.868  19.800  0.00  0.00    +0.000 A 
ATOM     13  C   UNL     1       0.670   9.818  19.005  0.00  0.00    +0.000 A 
ATOM     14  C   UNL     1      -0.233  10.722  19.579  0.00  0.00    +0.000 A 
ATOM     15  C   UNL     1      -0.480  10.688  20.955  0.00  0.00    +0.000 A 
ATOM     16 CL   UNL     1      -1.613  11.821  21.601  0.00  0.00    +0.000 Cl
ATOM     17  C   UNL     1       0.181   9.749  21.753  0.00  0.00    +0.000 A 
ATOM     18 CL   UNL     1      -0.076   9.641  23.459  0.00  0.00    +0.000 Cl
ATOM     19  C   UNL     1       1.077   8.842  21.175  0.00  0.00    +0.000 A 
ENDBRANCH  11  12
BRANCH   1  20
ATOM     20  C   UNL     1       4.425   3.261  19.690  0.00  0.00    +0.000 C 
BRANCH  20  21
ATOM     21  O   UNL     1       4.806   3.507  18.316  0.00  0.00    +0.000 OA
BRANCH  21  23
ATOM     22  O   UNL     1       6.586   4.718  19.080  0.00  0.00    +0.000 OA
ATOM     23  C   UNL     1       5.912   4.262  18.171  0.00  0.00    +0.000 C 
BRANCH  23  24
ATOM     24  C   UNL     1       6.287   4.458  16.733  0.00  0.00    +0.000 A 
ATOM     25  C   UNL     1       7.289   5.391  16.467  0.00  0.00    +0.000 A 
ATOM     26  C   UNL     1       7.725   5.600  15.159  0.00  0.00    +0.000 A 
ATOM     27  C   UNL     1       7.165   4.880  14.099  0.00  0.00    +0.000 A 
ATOM     28  C   UNL     1       7.633   5.058  12.788  0.00  0.00    +0.000 A 
ATOM     29  C   UNL     1       7.085   4.332  11.732  0.00  0.00    +0.000 A 
ATOM     30  C   UNL     1       6.052   3.430  11.974  0.00  0.00    +0.000 A 
ATOM     31  C   UNL     1       5.570   3.248  13.274  0.00  0.00    +0.000 A 
ATOM     32  C   UNL     1       6.119   3.959  14.350  0.00  0.00    +0.000 A 
ATOM     33  C   UNL     1       5.682   3.761  15.684  0.00  0.00    +0.000 A 
ENDBRANCH  23  24
ENDBRANCH  21  23
ENDBRANCH  20  21
ENDBRANCH   1  20
TORSDOF 5
ENDMDL
MODEL 4
REMARK VINA RESULT:     -10.3      1.603      1.803
REMARK  Name = 
REMARK  5 active torsions:
REMARK  status: ('A' for Active; 'I' for Inactive)
REMARK    1  A    between atoms: C_2  and  O_3
REMARK    2  A    between atoms: C_2  and  C_24
REMARK    3  A    between atoms: O_3  and  C_4
REMARK    4  A    between atoms: C_4  and  C_5
REMARK    5  A    between atoms: C_15  and  C_16
REMARK                            x       y       z     vdW  Elec       q    Type
REMARK                         _______ _______ _______ _____ _____    ______ ____
ROOT
ATOM      1  C   UNL     1       3.890   5.108  19.530  0.00  0.00    +0.000 C 
ATOM      2  C   UNL     1       3.083   5.700  18.215  0.00  0.00    +0.000 C 
ATOM      3  C   UNL     1       1.804   4.851  17.908  0.00  0.00    +0.000 C 
ATOM      4  C   UNL     1       1.298   4.485  19.310  0.00  0.00    +0.000 C 
ATOM      5  C   UNL     1       1.118   3.313  20.269  0.00  0.00    +0.000 C 
ATOM      6  C   UNL     1       2.220   3.679  21.326  0.00  0.00    +0.000 C 
ATOM      7  C   UNL     1       2.915   4.987  20.816  0.00  0.00    +0.000 C 
ATOM      8  N   UNL     1       1.649   5.545  20.334  0.00  0.00    +0.000 NA
ATOM      9  C   UNL     1       1.836   6.939  19.934  0.00  0.00    +0.000 C 
ATOM     10  C   UNL     1       2.429   7.027  18.567  0.00  0.00    +0.000 C 
ATOM     11  C   UNL     1       2.203   8.048  17.714  0.00  0.00    +0.000 C 
ENDROOT
BRANCH  11  12
ATOM     12  C   UNL     1       1.470   9.265  18.104  0.00  0.00    +0.000 A 
ATOM     13  C   UNL     1       2.136  10.425  18.525  0.00  0.00    +0.000 A 
ATOM     14  C   UNL     1       1.416  11.595  18.802  0.00  0.00    +0.000 A 
ATOM     15  C   UNL     1       0.025  11.611  18.668  0.00  0.00    +0.000 A 
ATOM     16 CL   UNL     1      -0.803  13.088  19.014  0.00  0.00    +0.000 Cl
ATOM     17  C   UNL     1      -0.644  10.454  18.258  0.00  0.00    +0.000 A 
ATOM     18 CL   UNL     1      -2.360  10.397  18.062  0.00  0.00    +0.000 Cl
ATOM     19  C   UNL     1       0.079   9.288  17.974  0.00  0.00    +0.000 A 
ENDBRANCH  11  12
BRANCH   1  20
ATOM     20  C   UNL     1       4.660   3.817  19.194  0.00  0.00    +0.000 C 
BRANCH  20  21
ATOM     21  O   UNL     1       6.084   4.051  19.083  0.00  0.00    +0.000 OA
BRANCH  21  23
ATOM     22  O   UNL     1       6.750   6.187  18.623  0.00  0.00    +0.000 OA
ATOM     23  C   UNL     1       6.419   5.068  18.266  0.00  0.00    +0.000 C 
BRANCH  23  24
ATOM     24  C   UNL     1       6.397   4.674  16.820  0.00  0.00    +0.000 A 
ATOM     25  C   UNL     1       5.483   3.686  16.453  0.00  0.00    +0.000 A 
ATOM     26  C   UNL     1       5.370   3.295  15.119  0.00  0.00    +0.000 A 
ATOM     27  C   UNL     1       6.171   3.885  14.135  0.00  0.00    +0.000 A 
ATOM     28  C   UNL     1       6.027   3.523  12.787  0.00  0.00    +0.000 A 
ATOM     29  C   UNL     1       6.814   4.119  11.802  0.00  0.00    +0.000 A 
ATOM     30  C   UNL     1       7.764   5.074  12.159  0.00  0.00    +0.000 A 
ATOM     31  C   UNL     1       7.923   5.438  13.499  0.00  0.00    +0.000 A 
ATOM     32  C   UNL     1       7.130   4.860  14.500  0.00  0.00    +0.000 A 
ATOM     33  C   UNL     1       7.238   5.243  15.860  0.00  0.00    +0.000 A 
ENDBRANCH  23  24
ENDBRANCH  21  23
ENDBRANCH  20  21
ENDBRANCH   1  20
TORSDOF 5
ENDMDL
MODEL 5
REMARK VINA RESULT:     -10.1      0.687      1.278
REMARK  Name = 
REMARK  5 active torsions:
REMARK  status: ('A' for Active; 'I' for Inactive)
REMARK    1  A    between atoms: C_2  and  O_3
REMARK    2  A    between atoms: C_2  and  C_24
REMARK    3  A    between atoms: O_3  and  C_4
REMARK    4  A    between atoms: C_4  and  C_5
REMARK    5  A    between atoms: C_15  and  C_16
REMARK                            x       y       z     vdW  Elec       q    Type
REMARK                         _______ _______ _______ _____ _____    ______ ____
ROOT
ATOM      1  C   UNL     1       3.808   4.701  19.877  0.00  0.00    +0.000 C 
ATOM      2  C   UNL     1       3.095   5.667  18.740  0.00  0.00    +0.000 C 
ATOM      3  C   UNL     1       1.920   4.922  18.022  0.00  0.00    +0.000 C 
ATOM      4  C   UNL     1       1.304   4.091  19.156  0.00  0.00    +0.000 C 
ATOM      5  C   UNL     1       1.117   2.661  19.651  0.00  0.00    +0.000 C 
ATOM      6  C   UNL     1       2.077   2.694  20.893  0.00  0.00    +0.000 C 
ATOM      7  C   UNL     1       2.721   4.122  20.925  0.00  0.00    +0.000 C 
ATOM      8  N   UNL     1       1.471   4.762  20.505  0.00  0.00    +0.000 NA
ATOM      9  C   UNL     1       1.593   6.215  20.608  0.00  0.00    +0.000 C 
ATOM     10  C   UNL     1       2.311   6.776  19.426  0.00  0.00    +0.000 C 
ATOM     11  C   UNL     1       2.097   8.014  18.934  0.00  0.00    +0.000 C 
ENDROOT
BRANCH  11  12
ATOM     12  C   UNL     1       1.240   9.003  19.609  0.00  0.00    +0.000 A 
ATOM     13  C   UNL     1       0.546   9.990  18.895  0.00  0.00    +0.000 A 
ATOM     14  C   UNL     1      -0.332  10.859  19.555  0.00  0.00    +0.000 A 
ATOM     15  C   UNL     1      -0.517  10.753  20.937  0.00  0.00    +0.000 A 
ATOM     16 CL   UNL     1      -1.621  11.847  21.691  0.00  0.00    +0.000 Cl
ATOM     17  C   UNL     1       0.181   9.777  21.655  0.00  0.00    +0.000 A 
ATOM     18 CL   UNL     1       0.001   9.579  23.362  0.00  0.00    +0.000 Cl
ATOM     19  C   UNL     1       1.051   8.904  20.990  0.00  0.00    +0.000 A 
ENDBRANCH  11  12
BRANCH   1  20
ATOM     20  C   UNL     1       4.702   3.626  19.231  0.00  0.00    +0.000 C 
BRANCH  20  21
ATOM     21  O   UNL     1       6.083   4.048  19.152  0.00  0.00    +0.000 OA
BRANCH  21  23
ATOM     22  O   UNL     1       6.522   6.242  18.689  0.00  0.00    +0.000 OA
ATOM     23  C   UNL     1       6.299   5.095  18.333  0.00  0.00    +0.000 C 
BRANCH  23  24
ATOM     24  C   UNL     1       6.291   4.703  16.886  0.00  0.00    +0.000 A 
ATOM     25  C   UNL     1       5.360   3.739  16.503  0.00  0.00    +0.000 A 
ATOM     26  C   UNL     1       5.259   3.352  15.167  0.00  0.00    +0.000 A 
ATOM     27  C   UNL     1       6.090   3.923  14.196  0.00  0.00    +0.000 A 
ATOM     28  C   UNL     1       5.960   3.567  12.846  0.00  0.00    +0.000 A 
ATOM     29  C   UNL     1       6.778   4.144  11.875  0.00  0.00    +0.000 A 
ATOM     30  C   UNL     1       7.745   5.074  12.249  0.00  0.00    +0.000 A 
ATOM     31  C   UNL     1       7.891   5.433  13.592  0.00  0.00    +0.000 A 
ATOM     32  C   UNL     1       7.068   4.874  14.579  0.00  0.00    +0.000 A 
ATOM     33  C   UNL     1       7.162   5.253  15.942  0.00  0.00    +0.000 A 
ENDBRANCH  23  24
ENDBRANCH  21  23
ENDBRANCH  20  21
ENDBRANCH   1  20
TORSDOF 5
ENDMDL
MODEL 6
REMARK VINA RESULT:     -10.0      1.588      2.030
REMARK  Name = 
REMARK  5 active torsions:
REMARK  status: ('A' for Active; 'I' for Inactive)
REMARK    1  A    between atoms: C_2  and  O_3
REMARK    2  A    between atoms: C_2  and  C_24
REMARK    3  A    between atoms: O_3  and  C_4
REMARK    4  A    between atoms: C_4  and  C_5
REMARK    5  A    between atoms: C_15  and  C_16
REMARK                            x       y       z     vdW  Elec       q    Type
REMARK                         _______ _______ _______ _____ _____    ______ ____
ROOT
ATOM      1  C   UNL     1       3.978   5.402  19.430  0.00  0.00    +0.000 C 
ATOM      2  C   UNL     1       3.190   5.980  18.097  0.00  0.00    +0.000 C 
ATOM      3  C   UNL     1       1.924   5.118  17.771  0.00  0.00    +0.000 C 
ATOM      4  C   UNL     1       1.396   4.753  19.165  0.00  0.00    +0.000 C 
ATOM      5  C   UNL     1       1.209   3.585  20.127  0.00  0.00    +0.000 C 
ATOM      6  C   UNL     1       2.288   3.966  21.202  0.00  0.00    +0.000 C 
ATOM      7  C   UNL     1       2.981   5.278  20.698  0.00  0.00    +0.000 C 
ATOM      8  N   UNL     1       1.719   5.822  20.190  0.00  0.00    +0.000 NA
ATOM      9  C   UNL     1       1.900   7.215  19.787  0.00  0.00    +0.000 C 
ATOM     10  C   UNL     1       2.517   7.303  18.430  0.00  0.00    +0.000 C 
ATOM     11  C   UNL     1       2.297   8.317  17.568  0.00  0.00    +0.000 C 
ENDROOT
BRANCH  11  12
ATOM     12  C   UNL     1       1.546   9.529  17.938  0.00  0.00    +0.000 A 
ATOM     13  C   UNL     1       0.146   9.534  18.020  0.00  0.00    +0.000 A 
ATOM     14  C   UNL     1      -0.535  10.676  18.463  0.00  0.00    +0.000 A 
ATOM     15  C   UNL     1       0.179  11.824  18.818  0.00  0.00    +0.000 A 
ATOM     16 CL   UNL     1      -0.718  13.195  19.366  0.00  0.00    +0.000 Cl
ATOM     17  C   UNL     1       1.574  11.826  18.729  0.00  0.00    +0.000 A 
ATOM     18 CL   UNL     1       2.526  13.204  19.156  0.00  0.00    +0.000 Cl
ATOM     19  C   UNL     1       2.252  10.681  18.294  0.00  0.00    +0.000 A 
ENDBRANCH  11  12
BRANCH   1  20
ATOM     20  C   UNL     1       4.766   4.117  19.115  0.00  0.00    +0.000 C 
BRANCH  20  21
ATOM     21  O   UNL     1       6.195   4.320  19.218  0.00  0.00    +0.000 OA
BRANCH  21  23
ATOM     22  O   UNL     1       7.210   6.291  18.664  0.00  0.00    +0.000 OA
ATOM     23  C   UNL     1       6.691   5.230  18.357  0.00  0.00    +0.000 C 
BRANCH  23  24
ATOM     24  C   UNL     1       6.591   4.782  16.930  0.00  0.00    +0.000 A 
ATOM     25  C   UNL     1       5.700   3.745  16.658  0.00  0.00    +0.000 A 
ATOM     26  C   UNL     1       5.517   3.301  15.349  0.00  0.00    +0.000 A 
ATOM     27  C   UNL     1       6.224   3.888  14.293  0.00  0.00    +0.000 A 
ATOM     28  C   UNL     1       6.009   3.472  12.971  0.00  0.00    +0.000 A 
ATOM     29  C   UNL     1       6.702   4.064  11.916  0.00  0.00    +0.000 A 
ATOM     30  C   UNL     1       7.630   5.070  12.176  0.00  0.00    +0.000 A 
ATOM     31  C   UNL     1       7.861   5.489  13.490  0.00  0.00    +0.000 A 
ATOM     32  C   UNL     1       7.162   4.915  14.561  0.00  0.00    +0.000 A 
ATOM     33  C   UNL     1       7.342   5.352  15.897  0.00  0.00    +0.000 A 
ENDBRANCH  23  24
ENDBRANCH  21  23
ENDBRANCH  20  21
ENDBRANCH   1  20
TORSDOF 5
ENDMDL
MODEL 7
REMARK VINA RESULT:      -9.7      3.938      9.492
REMARK  Name = 
REMARK  5 active torsions:
REMARK  status: ('A' for Active; 'I' for Inactive)
REMARK    1  A    between atoms: C_2  and  O_3
REMARK    2  A    between atoms: C_2  and  C_24
REMARK    3  A    between atoms: O_3  and  C_4
REMARK    4  A    between atoms: C_4  and  C_5
REMARK    5  A    between atoms: C_15  and  C_16
REMARK                            x       y       z     vdW  Elec       q    Type
REMARK                         _______ _______ _______ _____ _____    ______ ____
ROOT
ATOM      1  C   UNL     1       2.609   5.137  18.424  0.00  0.00    +0.000 C 
ATOM      2  C   UNL     1       4.109   5.712  18.034  0.00  0.00    +0.000 C 
ATOM      3  C   UNL     1       5.204   5.123  18.985  0.00  0.00    +0.000 C 
ATOM      4  C   UNL     1       4.714   3.688  19.217  0.00  0.00    +0.000 C 
ATOM      5  C   UNL     1       4.139   2.756  20.279  0.00  0.00    +0.000 C 
ATOM      6  C   UNL     1       2.674   2.619  19.732  0.00  0.00    +0.000 C 
ATOM      7  C   UNL     1       2.586   3.520  18.453  0.00  0.00    +0.000 C 
ATOM      8  N   UNL     1       3.940   3.154  18.028  0.00  0.00    +0.000 NA
ATOM      9  C   UNL     1       4.196   3.661  16.681  0.00  0.00    +0.000 C 
ATOM     10  C   UNL     1       4.566   5.107  16.715  0.00  0.00    +0.000 C 
ATOM     11  C   UNL     1       5.377   5.697  15.813  0.00  0.00    +0.000 C 
ENDROOT
BRANCH  11  12
ATOM     12  C   UNL     1       5.860   5.008  14.605  0.00  0.00    +0.000 A 
ATOM     13  C   UNL     1       7.228   4.825  14.355  0.00  0.00    +0.000 A 
ATOM     14  C   UNL     1       7.655   4.086  13.243  0.00  0.00    +0.000 A 
ATOM     15  C   UNL     1       6.716   3.532  12.368  0.00  0.00    +0.000 A 
ATOM     16 CL   UNL     1       7.305   2.623  11.022  0.00  0.00    +0.000 Cl
ATOM     17  C   UNL     1       5.351   3.721  12.608  0.00  0.00    +0.000 A 
ATOM     18 CL   UNL     1       4.131   3.062  11.576  0.00  0.00    +0.000 Cl
ATOM     19  C   UNL     1       4.928   4.452  13.724  0.00  0.00    +0.000 A 
ENDBRANCH  11  12
BRANCH   1  20
ATOM     20  C   UNL     1       2.056   5.802  19.697  0.00  0.00    +0.000 C 
BRANCH  20  21
ATOM     21  O   UNL     1       2.585   7.136  19.883  0.00  0.00    +0.000 OA
BRANCH  21  23
ATOM     22  O   UNL     1       1.871   8.337  18.076  0.00  0.00    +0.000 OA
ATOM     23  C   UNL     1       1.876   8.106  19.274  0.00  0.00    +0.000 C 
BRANCH  23  24
ATOM     24  C   UNL     1       1.020   8.879  20.232  0.00  0.00    +0.000 A 
ATOM     25  C   UNL     1       1.057   8.481  21.568  0.00  0.00    +0.000 A 
ATOM     26  C   UNL     1       0.324   9.177  22.529  0.00  0.00    +0.000 A 
ATOM     27  C   UNL     1      -0.459  10.278  22.165  0.00  0.00    +0.000 A 
ATOM     28  C   UNL     1      -1.163  11.005  23.137  0.00  0.00    +0.000 A 
ATOM     29  C   UNL     1      -1.932  12.112  22.780  0.00  0.00    +0.000 A 
ATOM     30  C   UNL     1      -2.017  12.494  21.443  0.00  0.00    +0.000 A 
ATOM     31  C   UNL     1      -1.327  11.773  20.463  0.00  0.00    +0.000 A 
ATOM     32  C   UNL     1      -0.537  10.668  20.806  0.00  0.00    +0.000 A 
ATOM     33  C   UNL     1       0.210   9.948  19.840  0.00  0.00    +0.000 A 
ENDBRANCH  23  24
ENDBRANCH  21  23
ENDBRANCH  20  21
ENDBRANCH   1  20
TORSDOF 5
ENDMDL
MODEL 8
REMARK VINA RESULT:      -9.7      1.928      3.259
REMARK  Name = 
REMARK  5 active torsions:
REMARK  status: ('A' for Active; 'I' for Inactive)
REMARK    1  A    between atoms: C_2  and  O_3
REMARK    2  A    between atoms: C_2  and  C_24
REMARK    3  A    between atoms: O_3  and  C_4
REMARK    4  A    between atoms: C_4  and  C_5
REMARK    5  A    between atoms: C_15  and  C_16
REMARK                            x       y       z     vdW  Elec       q    Type
REMARK                         _______ _______ _______ _____ _____    ______ ____
ROOT
ATOM      1  C   UNL     1       3.802   4.447  19.623  0.00  0.00    +0.000 C 
ATOM      2  C   UNL     1       3.097   5.659  18.748  0.00  0.00    +0.000 C 
ATOM      3  C   UNL     1       1.930   5.110  17.860  0.00  0.00    +0.000 C 
ATOM      4  C   UNL     1       1.307   4.029  18.753  0.00  0.00    +0.000 C 
ATOM      5  C   UNL     1       1.119   2.521  18.885  0.00  0.00    +0.000 C 
ATOM      6  C   UNL     1       2.067   2.253  20.107  0.00  0.00    +0.000 C 
ATOM      7  C   UNL     1       2.707   3.631  20.490  0.00  0.00    +0.000 C 
ATOM      8  N   UNL     1       1.460   4.353  20.225  0.00  0.00    +0.000 NA
ATOM      9  C   UNL     1       1.576   5.738  20.678  0.00  0.00    +0.000 C 
ATOM     10  C   UNL     1       2.304   6.569  19.674  0.00  0.00    +0.000 C 
ATOM     11  C   UNL     1       2.091   7.889  19.494  0.00  0.00    +0.000 C 
ENDROOT
BRANCH  11  12
ATOM     12  C   UNL     1       1.225   8.685  20.380  0.00  0.00    +0.000 A 
ATOM     13  C   UNL     1       1.292   8.569  21.776  0.00  0.00    +0.000 A 
ATOM     14  C   UNL     1       0.520   9.404  22.596  0.00  0.00    +0.000 A 
ATOM     15  C   UNL     1      -0.329  10.356  22.025  0.00  0.00    +0.000 A 
ATOM     16 CL   UNL     1      -1.246  11.363  23.089  0.00  0.00    +0.000 Cl
ATOM     17  C   UNL     1      -0.406  10.468  20.633  0.00  0.00    +0.000 A 
ATOM     18 CL   UNL     1      -1.427  11.624  19.853  0.00  0.00    +0.000 Cl
ATOM     19  C   UNL     1       0.372   9.638  19.817  0.00  0.00    +0.000 A 
ENDBRANCH  11  12
BRANCH   1  20
ATOM     20  C   UNL     1       4.705   3.560  18.745  0.00  0.00    +0.000 C 
BRANCH  20  21
ATOM     21  O   UNL     1       4.497   3.806  17.335  0.00  0.00    +0.000 OA
BRANCH  21  23
ATOM     22  O   UNL     1       5.968   3.562  15.604  0.00  0.00    +0.000 OA
ATOM     23  C   UNL     1       5.620   4.091  16.648  0.00  0.00    +0.000 C 
BRANCH  23  24
ATOM     24  C   UNL     1       6.414   5.194  17.279  0.00  0.00    +0.000 A 
ATOM     25  C   UNL     1       7.348   4.822  18.244  0.00  0.00    +0.000 A 
ATOM     26  C   UNL     1       8.158   5.785  18.847  0.00  0.00    +0.000 A 
ATOM     27  C   UNL     1       8.042   7.134  18.493  0.00  0.00    +0.000 A 
ATOM     28  C   UNL     1       8.885   8.097  19.066  0.00  0.00    +0.000 A 
ATOM     29  C   UNL     1       8.781   9.440  18.705  0.00  0.00    +0.000 A 
ATOM     30  C   UNL     1       7.820   9.835  17.776  0.00  0.00    +0.000 A 
ATOM     31  C   UNL     1       6.968   8.886  17.203  0.00  0.00    +0.000 A 
ATOM     32  C   UNL     1       7.069   7.530  17.543  0.00  0.00    +0.000 A 
ATOM     33  C   UNL     1       6.250   6.541  16.943  0.00  0.00    +0.000 A 
ENDBRANCH  23  24
ENDBRANCH  21  23
ENDBRANCH  20  21
ENDBRANCH   1  20
TORSDOF 5
ENDMDL
MODEL 9
REMARK VINA RESULT:      -9.5      1.703      2.202
REMARK  Name = 
REMARK  5 active torsions:
REMARK  status: ('A' for Active; 'I' for Inactive)
REMARK    1  A    between atoms: C_2  and  O_3
REMARK    2  A    between atoms: C_2  and  C_24
REMARK    3  A    between atoms: O_3  and  C_4
REMARK    4  A    between atoms: C_4  and  C_5
REMARK    5  A    between atoms: C_15  and  C_16
REMARK                            x       y       z     vdW  Elec       q    Type
REMARK                         _______ _______ _______ _____ _____    ______ ____
ROOT
ATOM      1  C   UNL     1       3.742   4.792  19.392  0.00  0.00    +0.000 C 
ATOM      2  C   UNL     1       2.900   5.421  18.115  0.00  0.00    +0.000 C 
ATOM      3  C   UNL     1       1.545   4.666  17.905  0.00  0.00    +0.000 C 
ATOM      4  C   UNL     1       1.102   4.363  19.342  0.00  0.00    +0.000 C 
ATOM      5  C   UNL     1       0.896   3.225  20.336  0.00  0.00    +0.000 C 
ATOM      6  C   UNL     1       2.085   3.524  21.316  0.00  0.00    +0.000 C 
ATOM      7  C   UNL     1       2.843   4.767  20.736  0.00  0.00    +0.000 C 
ATOM      8  N   UNL     1       1.594   5.411  20.320  0.00  0.00    +0.000 NA
ATOM      9  C   UNL     1       1.858   6.779  19.879  0.00  0.00    +0.000 C 
ATOM     10  C   UNL     1       2.370   6.800  18.477  0.00  0.00    +0.000 C 
ATOM     11  C   UNL     1       2.167   7.820  17.618  0.00  0.00    +0.000 C 
ENDROOT
BRANCH  11  12
ATOM     12  C   UNL     1       1.552   9.095  18.025  0.00  0.00    +0.000 A 
ATOM     13  C   UNL     1       2.326  10.225  18.326  0.00  0.00    +0.000 A 
ATOM     14  C   UNL     1       1.710  11.449  18.622  0.00  0.00    +0.000 A 
ATOM     15  C   UNL     1       0.316  11.549  18.627  0.00  0.00    +0.000 A 
ATOM     16 CL   UNL     1      -0.383  13.087  18.989  0.00  0.00    +0.000 Cl
ATOM     17  C   UNL     1      -0.459  10.421  18.337  0.00  0.00    +0.000 A 
ATOM     18 CL   UNL     1      -2.187  10.467  18.316  0.00  0.00    +0.000 Cl
ATOM     19  C   UNL     1       0.159   9.202  18.033  0.00  0.00    +0.000 A 
ENDBRANCH  11  12
BRANCH   1  20
ATOM     20  C   UNL     1       4.392   3.442  19.037  0.00  0.00    +0.000 C 
BRANCH  20  21
ATOM     21  O   UNL     1       5.806   3.578  18.765  0.00  0.00    +0.000 OA
BRANCH  21  23
ATOM     22  O   UNL     1       6.324   5.793  18.976  0.00  0.00    +0.000 OA
ATOM     23  C   UNL     1       6.170   4.789  18.300  0.00  0.00    +0.000 C 
BRANCH  23  24
ATOM     24  C   UNL     1       6.429   4.781  16.824  0.00  0.00    +0.000 A 
ATOM     25  C   UNL     1       7.505   5.545  16.371  0.00  0.00    +0.000 A 
ATOM     26  C   UNL     1       7.838   5.556  15.017  0.00  0.00    +0.000 A 
ATOM     27  C   UNL     1       7.099   4.805  14.097  0.00  0.00    +0.000 A 
ATOM     28  C   UNL     1       7.460   4.781  12.741  0.00  0.00    +0.000 A 
ATOM     29  C   UNL     1       6.734   4.022  11.824  0.00  0.00    +0.000 A 
ATOM     30  C   UNL     1       5.628   3.291  12.253  0.00  0.00    +0.000 A 
ATOM     31  C   UNL     1       5.252   3.312  13.599  0.00  0.00    +0.000 A 
ATOM     32  C   UNL     1       5.980   4.057  14.537  0.00  0.00    +0.000 A 
ATOM     33  C   UNL     1       5.649   4.060  15.915  0.00  0.00    +0.000 A 
ENDBRANCH  23  24
ENDBRANCH  21  23
ENDBRANCH  20  21
ENDBRANCH   1  20
TORSDOF 5
ENDMDL
