MODEL 1
REMARK VINA RESULT:      -7.9      0.000      0.000
REMARK  Name = 
REMARK  5 active torsions:
REMARK  status: ('A' for Active; 'I' for Inactive)
REMARK    1  A    between atoms: C_1  and  C_2
REMARK    2  A    between atoms: C_7  and  N_8
REMARK    3  A    between atoms: C_9  and  C_11
REMARK    4  A    between atoms: C_14  and  C_15
REMARK    5  A    between atoms: C_15  and  N_16
REMARK                            x       y       z     vdW  Elec       q    Type
REMARK                         _______ _______ _______ _____ _____    ______ ____
ROOT
ATOM      1  C   UNL     1       3.609   6.498  18.306  0.00  0.00    +0.000 A 
ATOM      2  C   UNL     1       4.192   5.287  18.703  0.00  0.00    +0.000 A 
ATOM      3  C   UNL     1       5.302   4.779  18.036  0.00  0.00    +0.000 A 
ATOM      4  C   UNL     1       5.855   5.463  16.942  0.00  0.00    +0.000 A 
ATOM      5  C   UNL     1       5.239   6.638  16.501  0.00  0.00    +0.000 A 
ATOM      6  C   UNL     1       4.116   7.152  17.180  0.00  0.00    +0.000 A 
ENDROOT
BRANCH   1   8
ATOM      7  N   UNL     1       2.242   8.385  19.063  0.00  0.00    +0.000 N 
ATOM      8  C   UNL     1       2.489   7.026  19.142  0.00  0.00    +0.000 C 
ATOM      9  O   UNL     1       1.851   6.244  19.844  0.00  0.00    +0.000 OA
ATOM     10  H   UNL     1       2.553   8.886  18.243  0.00  0.00    +0.000 HD
BRANCH   7  17
ATOM     11  C   UNL     1       0.031   9.515  23.357  0.00  0.00    +0.000 C 
ATOM     12  C   UNL     1       0.082   9.580  21.858  0.00  0.00    +0.000 A 
ATOM     13  C   UNL     1      -0.859  10.325  21.133  0.00  0.00    +0.000 A 
ATOM     14  C   UNL     1      -0.765  10.422  19.745  0.00  0.00    +0.000 A 
ATOM     15  C   UNL     1       0.282   9.790  19.084  0.00  0.00    +0.000 A 
ATOM     16  F   UNL     1       0.370   9.889  17.748  0.00  0.00    +0.000 F 
ATOM     17  C   UNL     1       1.201   9.006  19.781  0.00  0.00    +0.000 A 
ATOM     18  C   UNL     1       1.099   8.898  21.169  0.00  0.00    +0.000 A 
ENDBRANCH   7  17
ENDBRANCH   1   8
BRANCH   4  19
ATOM     19  C   UNL     1       7.102   4.950  16.268  0.00  0.00    +0.000 C 
BRANCH  19  20
ATOM     20  N   UNL     1       6.911   4.693  14.847  0.00  0.00    +0.000 N 
ATOM     21  C   UNL     1       6.115   3.723  14.299  0.00  0.00    +0.000 A 
ATOM     22  C   UNL     1       6.397   3.720  12.956  0.00  0.00    +0.000 A 
ATOM     23 CL   UNL     1       5.761   2.716  11.755  0.00  0.00    +0.000 Cl
ATOM     24  C   UNL     1       7.360   4.728  12.782  0.00  0.00    +0.000 A 
ATOM     25  N   UNL     1       7.687   5.323  13.936  0.00  0.00    +0.000 NA
ENDBRANCH  19  20
ENDBRANCH   4  19
TORSDOF 4
ENDMDL
MODEL 2
REMARK VINA RESULT:      -7.9      6.232      7.950
REMARK  Name = 
REMARK  5 active torsions:
REMARK  status: ('A' for Active; 'I' for Inactive)
REMARK    1  A    between atoms: C_1  and  C_2
REMARK    2  A    between atoms: C_7  and  N_8
REMARK    3  A    between atoms: C_9  and  C_11
REMARK    4  A    between atoms: C_14  and  C_15
REMARK    5  A    between atoms: C_15  and  N_16
REMARK                            x       y       z     vdW  Elec       q    Type
REMARK                         _______ _______ _______ _____ _____    ______ ____
ROOT
ATOM      1  C   UNL     1       7.924   8.051  18.111  0.00  0.00    +0.000 A 
ATOM      2  C   UNL     1       6.980   7.868  17.091  0.00  0.00    +0.000 A 
ATOM      3  C   UNL     1       6.359   6.637  16.908  0.00  0.00    +0.000 A 
ATOM      4  C   UNL     1       6.673   5.547  17.734  0.00  0.00    +0.000 A 
ATOM      5  C   UNL     1       7.661   5.705  18.711  0.00  0.00    +0.000 A 
ATOM      6  C   UNL     1       8.287   6.954  18.896  0.00  0.00    +0.000 A 
ENDROOT
BRANCH   1   8
ATOM      7  N   UNL     1       9.331   9.613  19.368  0.00  0.00    +0.000 N 
ATOM      8  C   UNL     1       8.462   9.431  18.307  0.00  0.00    +0.000 C 
ATOM      9  O   UNL     1       8.117  10.320  17.532  0.00  0.00    +0.000 OA
ATOM     10  H   UNL     1       9.825   8.811  19.732  0.00  0.00    +0.000 HD
BRANCH   7  17
ATOM     11  C   UNL     1      12.320  13.359  18.088  0.00  0.00    +0.000 C 
ATOM     12  C   UNL     1      11.383  12.713  19.067  0.00  0.00    +0.000 A 
ATOM     13  C   UNL     1      11.013  13.363  20.253  0.00  0.00    +0.000 A 
ATOM     14  C   UNL     1      10.097  12.773  21.125  0.00  0.00    +0.000 A 
ATOM     15  C   UNL     1       9.537  11.543  20.800  0.00  0.00    +0.000 A 
ATOM     16  F   UNL     1       8.655  10.981  21.641  0.00  0.00    +0.000 F 
ATOM     17  C   UNL     1       9.927  10.858  19.649  0.00  0.00    +0.000 A 
ATOM     18  C   UNL     1      10.853  11.443  18.783  0.00  0.00    +0.000 A 
ENDBRANCH   7  17
ENDBRANCH   1   8
BRANCH   4  19
ATOM     19  C   UNL     1       5.946   4.235  17.583  0.00  0.00    +0.000 C 
BRANCH  19  20
ATOM     20  N   UNL     1       4.636   4.238  18.222  0.00  0.00    +0.000 N 
ATOM     21  C   UNL     1       4.232   5.062  19.238  0.00  0.00    +0.000 A 
ATOM     22  C   UNL     1       3.016   4.580  19.651  0.00  0.00    +0.000 A 
ATOM     23 CL   UNL     1       2.033   5.152  20.902  0.00  0.00    +0.000 Cl
ATOM     24  C   UNL     1       2.758   3.477  18.820  0.00  0.00    +0.000 A 
ATOM     25  N   UNL     1       3.749   3.255  17.947  0.00  0.00    +0.000 NA
ENDBRANCH  19  20
ENDBRANCH   4  19
TORSDOF 4
ENDMDL
MODEL 3
REMARK VINA RESULT:      -7.8      3.820      9.087
REMARK  Name = 
REMARK  5 active torsions:
REMARK  status: ('A' for Active; 'I' for Inactive)
REMARK    1  A    between atoms: C_1  and  C_2
REMARK    2  A    between atoms: C_7  and  N_8
REMARK    3  A    between atoms: C_9  and  C_11
REMARK    4  A    between atoms: C_14  and  C_15
REMARK    5  A    between atoms: C_15  and  N_16
REMARK                            x       y       z     vdW  Elec       q    Type
REMARK                         _______ _______ _______ _____ _____    ______ ____
ROOT
ATOM      1  C   UNL     1       2.395   7.699  18.604  0.00  0.00    +0.000 A 
ATOM      2  C   UNL     1       2.153   8.770  17.732  0.00  0.00    +0.000 A 
ATOM      3  C   UNL     1       1.447   9.890  18.159  0.00  0.00    +0.000 A 
ATOM      4  C   UNL     1       0.954   9.969  19.470  0.00  0.00    +0.000 A 
ATOM      5  C   UNL     1       1.136   8.877  20.325  0.00  0.00    +0.000 A 
ATOM      6  C   UNL     1       1.853   7.743  19.891  0.00  0.00    +0.000 A 
ENDROOT
BRANCH   1   8
ATOM      7  N   UNL     1       4.416   6.944  17.445  0.00  0.00    +0.000 N 
ATOM      8  C   UNL     1       3.251   6.584  18.098  0.00  0.00    +0.000 C 
ATOM      9  O   UNL     1       2.890   5.425  18.286  0.00  0.00    +0.000 OA
ATOM     10  H   UNL     1       4.812   7.855  17.627  0.00  0.00    +0.000 HD
BRANCH   7  17
ATOM     11  C   UNL     1       6.045   4.059  13.753  0.00  0.00    +0.000 C 
ATOM     12  C   UNL     1       6.154   4.559  15.164  0.00  0.00    +0.000 A 
ATOM     13  C   UNL     1       7.207   4.153  15.997  0.00  0.00    +0.000 A 
ATOM     14  C   UNL     1       7.326   4.671  17.287  0.00  0.00    +0.000 A 
ATOM     15  C   UNL     1       6.404   5.609  17.736  0.00  0.00    +0.000 A 
ATOM     16  F   UNL     1       6.525   6.106  18.977  0.00  0.00    +0.000 F 
ATOM     17  C   UNL     1       5.324   5.990  16.941  0.00  0.00    +0.000 A 
ATOM     18  C   UNL     1       5.197   5.463  15.655  0.00  0.00    +0.000 A 
ENDBRANCH   7  17
ENDBRANCH   1   8
BRANCH   4  19
ATOM     19  C   UNL     1       0.256  11.214  19.954  0.00  0.00    +0.000 C 
BRANCH  19  20
ATOM     20  N   UNL     1      -1.124  11.304  19.494  0.00  0.00    +0.000 N 
ATOM     21  C   UNL     1      -1.633  10.753  18.349  0.00  0.00    +0.000 A 
ATOM     22  C   UNL     1      -2.903  11.257  18.222  0.00  0.00    +0.000 A 
ATOM     23 CL   UNL     1      -4.022  10.978  16.987  0.00  0.00    +0.000 Cl
ATOM     24  C   UNL     1      -3.080  12.089  19.341  0.00  0.00    +0.000 A 
ATOM     25  N   UNL     1      -1.992  12.129  20.121  0.00  0.00    +0.000 NA
ENDBRANCH  19  20
ENDBRANCH   4  19
TORSDOF 4
ENDMDL
MODEL 4
REMARK VINA RESULT:      -7.8      1.508      1.810
REMARK  Name = 
REMARK  5 active torsions:
REMARK  status: ('A' for Active; 'I' for Inactive)
REMARK    1  A    between atoms: C_1  and  C_2
REMARK    2  A    between atoms: C_7  and  N_8
REMARK    3  A    between atoms: C_9  and  C_11
REMARK    4  A    between atoms: C_14  and  C_15
REMARK    5  A    between atoms: C_15  and  N_16
REMARK                            x       y       z     vdW  Elec       q    Type
REMARK                         _______ _______ _______ _____ _____    ______ ____
ROOT
ATOM      1  C   UNL     1       2.776   7.354  18.814  0.00  0.00    +0.000 A 
ATOM      2  C   UNL     1       3.123   6.216  19.555  0.00  0.00    +0.000 A 
ATOM      3  C   UNL     1       4.152   5.380  19.134  0.00  0.00    +0.000 A 
ATOM      4  C   UNL     1       4.859   5.652  17.953  0.00  0.00    +0.000 A 
ATOM      5  C   UNL     1       4.475   6.749  17.176  0.00  0.00    +0.000 A 
ATOM      6  C   UNL     1       3.433   7.597  17.605  0.00  0.00    +0.000 A 
ENDROOT
BRANCH   1   8
ATOM      7  N   UNL     1       1.373   9.354  18.630  0.00  0.00    +0.000 N 
ATOM      8  C   UNL     1       1.733   8.256  19.391  0.00  0.00    +0.000 C 
ATOM      9  O   UNL     1       1.252   7.983  20.488  0.00  0.00    +0.000 OA
ATOM     10  H   UNL     1       1.537   9.328  17.635  0.00  0.00    +0.000 HD
BRANCH   7  17
ATOM     11  C   UNL     1      -0.115  13.062  21.570  0.00  0.00    +0.000 C 
ATOM     12  C   UNL     1      -0.387  12.081  20.467  0.00  0.00    +0.000 A 
ATOM     13  C   UNL     1      -1.602  12.099  19.766  0.00  0.00    +0.000 A 
ATOM     14  C   UNL     1      -1.818  11.218  18.706  0.00  0.00    +0.000 A 
ATOM     15  C   UNL     1      -0.811  10.335  18.334  0.00  0.00    +0.000 A 
ATOM     16  F   UNL     1      -1.022   9.491  17.311  0.00  0.00    +0.000 F 
ATOM     17  C   UNL     1       0.386  10.269  19.048  0.00  0.00    +0.000 A 
ATOM     18  C   UNL     1       0.596  11.142  20.117  0.00  0.00    +0.000 A 
ENDBRANCH   7  17
ENDBRANCH   1   8
BRANCH   4  19
ATOM     19  C   UNL     1       6.022   4.788  17.539  0.00  0.00    +0.000 C 
BRANCH  19  20
ATOM     20  N   UNL     1       6.212   4.749  16.095  0.00  0.00    +0.000 N 
ATOM     21  C   UNL     1       5.528   3.962  15.209  0.00  0.00    +0.000 A 
ATOM     22  C   UNL     1       6.168   4.108  14.004  0.00  0.00    +0.000 A 
ATOM     23 CL   UNL     1       5.814   3.357  12.532  0.00  0.00    +0.000 Cl
ATOM     24  C   UNL     1       7.215   5.011  14.254  0.00  0.00    +0.000 A 
ATOM     25  N   UNL     1       7.254   5.403  15.533  0.00  0.00    +0.000 NA
ENDBRANCH  19  20
ENDBRANCH   4  19
TORSDOF 4
ENDMDL
MODEL 5
REMARK VINA RESULT:      -7.8      6.518      7.753
REMARK  Name = 
REMARK  5 active torsions:
REMARK  status: ('A' for Active; 'I' for Inactive)
REMARK    1  A    between atoms: C_1  and  C_2
REMARK    2  A    between atoms: C_7  and  N_8
REMARK    3  A    between atoms: C_9  and  C_11
REMARK    4  A    between atoms: C_14  and  C_15
REMARK    5  A    between atoms: C_15  and  N_16
REMARK                            x       y       z     vdW  Elec       q    Type
REMARK                         _______ _______ _______ _____ _____    ______ ____
ROOT
ATOM      1  C   UNL     1       8.093   8.655  18.153  0.00  0.00    +0.000 A 
ATOM      2  C   UNL     1       8.509   7.670  19.059  0.00  0.00    +0.000 A 
ATOM      3  C   UNL     1       8.143   6.339  18.881  0.00  0.00    +0.000 A 
ATOM      4  C   UNL     1       7.341   5.957  17.795  0.00  0.00    +0.000 A 
ATOM      5  C   UNL     1       6.870   6.945  16.925  0.00  0.00    +0.000 A 
ATOM      6  C   UNL     1       7.244   8.291  17.106  0.00  0.00    +0.000 A 
ENDROOT
BRANCH   1   8
ATOM      7  N   UNL     1       9.506  10.217  19.404  0.00  0.00    +0.000 N 
ATOM      8  C   UNL     1       8.619  10.039  18.358  0.00  0.00    +0.000 C 
ATOM      9  O   UNL     1       8.248  10.934  17.601  0.00  0.00    +0.000 OA
ATOM     10  H   UNL     1      10.017   9.417  19.746  0.00  0.00    +0.000 HD
BRANCH   7  17
ATOM     11  C   UNL     1       9.681  14.402  22.062  0.00  0.00    +0.000 C 
ATOM     12  C   UNL     1      10.215  13.531  20.962  0.00  0.00    +0.000 A 
ATOM     13  C   UNL     1      11.360  13.897  20.241  0.00  0.00    +0.000 A 
ATOM     14  C   UNL     1      11.877  13.049  19.260  0.00  0.00    +0.000 A 
ATOM     15  C   UNL     1      11.260  11.828  19.016  0.00  0.00    +0.000 A 
ATOM     16  F   UNL     1      11.763  11.014  18.074  0.00  0.00    +0.000 F 
ATOM     17  C   UNL     1      10.093  11.466  19.690  0.00  0.00    +0.000 A 
ATOM     18  C   UNL     1       9.569  12.320  20.662  0.00  0.00    +0.000 A 
ENDBRANCH   7  17
ENDBRANCH   1   8
BRANCH   4  19
ATOM     19  C   UNL     1       7.008   4.505  17.561  0.00  0.00    +0.000 C 
BRANCH  19  20
ATOM     20  N   UNL     1       5.654   4.162  17.974  0.00  0.00    +0.000 N 
ATOM     21  C   UNL     1       4.534   4.196  17.188  0.00  0.00    +0.000 A 
ATOM     22  C   UNL     1       3.474   3.992  18.036  0.00  0.00    +0.000 A 
ATOM     23 CL   UNL     1       1.825   3.966  17.663  0.00  0.00    +0.000 Cl
ATOM     24  C   UNL     1       4.048   3.830  19.308  0.00  0.00    +0.000 A 
ATOM     25  N   UNL     1       5.382   3.940  19.281  0.00  0.00    +0.000 NA
ENDBRANCH  19  20
ENDBRANCH   4  19
TORSDOF 4
ENDMDL
MODEL 6
REMARK VINA RESULT:      -7.8      4.097      8.976
REMARK  Name = 
REMARK  5 active torsions:
REMARK  status: ('A' for Active; 'I' for Inactive)
REMARK    1  A    between atoms: C_1  and  C_2
REMARK    2  A    between atoms: C_7  and  N_8
REMARK    3  A    between atoms: C_9  and  C_11
REMARK    4  A    between atoms: C_14  and  C_15
REMARK    5  A    between atoms: C_15  and  N_16
REMARK                            x       y       z     vdW  Elec       q    Type
REMARK                         _______ _______ _______ _____ _____    ______ ____
ROOT
ATOM      1  C   UNL     1       2.328   7.527  18.727  0.00  0.00    +0.000 A 
ATOM      2  C   UNL     1       1.898   8.520  17.836  0.00  0.00    +0.000 A 
ATOM      3  C   UNL     1       1.158   9.608  18.287  0.00  0.00    +0.000 A 
ATOM      4  C   UNL     1       0.816   9.729  19.642  0.00  0.00    +0.000 A 
ATOM      5  C   UNL     1       1.186   8.709  20.524  0.00  0.00    +0.000 A 
ATOM      6  C   UNL     1       1.938   7.609  20.066  0.00  0.00    +0.000 A 
ENDROOT
BRANCH   1   8
ATOM      7  N   UNL     1       4.372   6.859  17.553  0.00  0.00    +0.000 N 
ATOM      8  C   UNL     1       3.209   6.450  18.180  0.00  0.00    +0.000 C 
ATOM      9  O   UNL     1       2.867   5.277  18.314  0.00  0.00    +0.000 OA
ATOM     10  H   UNL     1       4.749   7.768  17.778  0.00  0.00    +0.000 HD
BRANCH   7  17
ATOM     11  C   UNL     1       6.019   4.087  13.784  0.00  0.00    +0.000 C 
ATOM     12  C   UNL     1       6.141   4.570  15.200  0.00  0.00    +0.000 A 
ATOM     13  C   UNL     1       7.225   4.188  16.004  0.00  0.00    +0.000 A 
ATOM     14  C   UNL     1       7.354   4.691  17.299  0.00  0.00    +0.000 A 
ATOM     15  C   UNL     1       6.410   5.590  17.782  0.00  0.00    +0.000 A 
ATOM     16  F   UNL     1       6.540   6.073  19.027  0.00  0.00    +0.000 F 
ATOM     17  C   UNL     1       5.300   5.945  17.015  0.00  0.00    +0.000 A 
ATOM     18  C   UNL     1       5.164   5.432  15.724  0.00  0.00    +0.000 A 
ENDBRANCH   7  17
ENDBRANCH   1   8
BRANCH   4  19
ATOM     19  C   UNL     1       0.079  10.946  20.141  0.00  0.00    +0.000 C 
BRANCH  19  20
ATOM     20  N   UNL     1       0.639  12.193  19.637  0.00  0.00    +0.000 N 
ATOM     21  C   UNL     1       1.815  12.771  20.032  0.00  0.00    +0.000 A 
ATOM     22  C   UNL     1       1.838  14.012  19.448  0.00  0.00    +0.000 A 
ATOM     23 CL   UNL     1       3.016  15.216  19.592  0.00  0.00    +0.000 Cl
ATOM     24  C   UNL     1       0.646  14.091  18.708  0.00  0.00    +0.000 A 
ATOM     25  N   UNL     1      -0.098  12.984  18.824  0.00  0.00    +0.000 NA
ENDBRANCH  19  20
ENDBRANCH   4  19
TORSDOF 4
ENDMDL
MODEL 7
REMARK VINA RESULT:      -7.7      6.528      7.869
REMARK  Name = 
REMARK  5 active torsions:
REMARK  status: ('A' for Active; 'I' for Inactive)
REMARK    1  A    between atoms: C_1  and  C_2
REMARK    2  A    between atoms: C_7  and  N_8
REMARK    3  A    between atoms: C_9  and  C_11
REMARK    4  A    between atoms: C_14  and  C_15
REMARK    5  A    between atoms: C_15  and  N_16
REMARK                            x       y       z     vdW  Elec       q    Type
REMARK                         _______ _______ _______ _____ _____    ______ ____
ROOT
ATOM      1  C   UNL     1       8.148   8.334  18.286  0.00  0.00    +0.000 A 
ATOM      2  C   UNL     1       7.295   8.075  17.204  0.00  0.00    +0.000 A 
ATOM      3  C   UNL     1       6.738   6.813  17.023  0.00  0.00    +0.000 A 
ATOM      4  C   UNL     1       7.026   5.769  17.915  0.00  0.00    +0.000 A 
ATOM      5  C   UNL     1       7.927   6.004  18.958  0.00  0.00    +0.000 A 
ATOM      6  C   UNL     1       8.489   7.283  19.141  0.00  0.00    +0.000 A 
ENDROOT
BRANCH   1   8
ATOM      7  N   UNL     1       9.459   9.982  19.538  0.00  0.00    +0.000 N 
ATOM      8  C   UNL     1       8.617   9.741  18.467  0.00  0.00    +0.000 C 
ATOM      9  O   UNL     1       8.243  10.600  17.672  0.00  0.00    +0.000 OA
ATOM     10  H   UNL     1       9.985   9.210  19.922  0.00  0.00    +0.000 HD
BRANCH   7  17
ATOM     11  C   UNL     1       9.462  14.198  22.150  0.00  0.00    +0.000 C 
ATOM     12  C   UNL     1      10.028  13.340  21.057  0.00  0.00    +0.000 A 
ATOM     13  C   UNL     1      11.151  13.749  20.324  0.00  0.00    +0.000 A 
ATOM     14  C   UNL     1      11.700  12.915  19.349  0.00  0.00    +0.000 A 
ATOM     15  C   UNL     1      11.137  11.664  19.122  0.00  0.00    +0.000 A 
ATOM     16  F   UNL     1      11.670  10.864  18.186  0.00  0.00    +0.000 F 
ATOM     17  C   UNL     1       9.991  11.258  19.807  0.00  0.00    +0.000 A 
ATOM     18  C   UNL     1       9.435  12.099  20.773  0.00  0.00    +0.000 A 
ENDBRANCH   7  17
ENDBRANCH   1   8
BRANCH   4  19
ATOM     19  C   UNL     1       6.363   4.424  17.761  0.00  0.00    +0.000 C 
BRANCH  19  20
ATOM     20  N   UNL     1       4.964   4.434  18.168  0.00  0.00    +0.000 N 
ATOM     21  C   UNL     1       4.463   4.946  19.334  0.00  0.00    +0.000 A 
ATOM     22  C   UNL     1       3.147   4.560  19.380  0.00  0.00    +0.000 A 
ATOM     23 CL   UNL     1       2.010   4.855  20.596  0.00  0.00    +0.000 Cl
ATOM     24  C   UNL     1       2.938   3.833  18.195  0.00  0.00    +0.000 A 
ATOM     25  N   UNL     1       4.047   3.745  17.451  0.00  0.00    +0.000 NA
ENDBRANCH  19  20
ENDBRANCH   4  19
TORSDOF 4
ENDMDL
MODEL 8
REMARK VINA RESULT:      -7.7      4.199      9.157
REMARK  Name = 
REMARK  5 active torsions:
REMARK  status: ('A' for Active; 'I' for Inactive)
REMARK    1  A    between atoms: C_1  and  C_2
REMARK    2  A    between atoms: C_7  and  N_8
REMARK    3  A    between atoms: C_9  and  C_11
REMARK    4  A    between atoms: C_14  and  C_15
REMARK    5  A    between atoms: C_15  and  N_16
REMARK                            x       y       z     vdW  Elec       q    Type
REMARK                         _______ _______ _______ _____ _____    ______ ____
ROOT
ATOM      1  C   UNL     1       2.427   7.753  18.554  0.00  0.00    +0.000 A 
ATOM      2  C   UNL     1       2.041   7.711  19.900  0.00  0.00    +0.000 A 
ATOM      3  C   UNL     1       1.183   8.672  20.425  0.00  0.00    +0.000 A 
ATOM      4  C   UNL     1       0.693   9.711  19.620  0.00  0.00    +0.000 A 
ATOM      5  C   UNL     1       1.126   9.795  18.293  0.00  0.00    +0.000 A 
ATOM      6  C   UNL     1       1.994   8.819  17.762  0.00  0.00    +0.000 A 
ENDROOT
BRANCH   1   8
ATOM      7  N   UNL     1       4.449   6.963  17.419  0.00  0.00    +0.000 N 
ATOM      8  C   UNL     1       3.263   6.624  18.045  0.00  0.00    +0.000 C 
ATOM      9  O   UNL     1       2.868   5.471  18.206  0.00  0.00    +0.000 OA
ATOM     10  H   UNL     1       4.865   7.860  17.624  0.00  0.00    +0.000 HD
BRANCH   7  17
ATOM     11  C   UNL     1       6.041   4.063  13.723  0.00  0.00    +0.000 C 
ATOM     12  C   UNL     1       6.152   4.554  15.137  0.00  0.00    +0.000 A 
ATOM     13  C   UNL     1       7.192   4.123  15.974  0.00  0.00    +0.000 A 
ATOM     14  C   UNL     1       7.314   4.633  17.267  0.00  0.00    +0.000 A 
ATOM     15  C   UNL     1       6.409   5.587  17.715  0.00  0.00    +0.000 A 
ATOM     16  F   UNL     1       6.532   6.076  18.959  0.00  0.00    +0.000 F 
ATOM     17  C   UNL     1       5.340   5.994  16.916  0.00  0.00    +0.000 A 
ATOM     18  C   UNL     1       5.211   5.474  15.627  0.00  0.00    +0.000 A 
ENDBRANCH   7  17
ENDBRANCH   1   8
BRANCH   4  19
ATOM     19  C   UNL     1      -0.295  10.707  20.170  0.00  0.00    +0.000 C 
BRANCH  19  20
ATOM     20  N   UNL     1      -0.007  12.075  19.759  0.00  0.00    +0.000 N 
ATOM     21  C   UNL     1       0.946  12.899  20.296  0.00  0.00    +0.000 A 
ATOM     22  C   UNL     1       0.726  14.136  19.746  0.00  0.00    +0.000 A 
ATOM     23 CL   UNL     1       1.555  15.579  20.047  0.00  0.00    +0.000 Cl
ATOM     24  C   UNL     1      -0.366  13.963  18.880  0.00  0.00    +0.000 A 
ATOM     25  N   UNL     1      -0.826  12.706  18.887  0.00  0.00    +0.000 NA
ENDBRANCH  19  20
ENDBRANCH   4  19
TORSDOF 4
ENDMDL
MODEL 9
REMARK VINA RESULT:      -7.7      6.375      7.855
REMARK  Name = 
REMARK  5 active torsions:
REMARK  status: ('A' for Active; 'I' for Inactive)
REMARK    1  A    between atoms: C_1  and  C_2
REMARK    2  A    between atoms: C_7  and  N_8
REMARK    3  A    between atoms: C_9  and  C_11
REMARK    4  A    between atoms: C_14  and  C_15
REMARK    5  A    between atoms: C_15  and  N_16
REMARK                            x       y       z     vdW  Elec       q    Type
REMARK                         _______ _______ _______ _____ _____    ______ ____
ROOT
ATOM      1  C   UNL     1       8.298   8.600  18.398  0.00  0.00    +0.000 A 
ATOM      2  C   UNL     1       8.565   7.516  19.246  0.00  0.00    +0.000 A 
ATOM      3  C   UNL     1       8.105   6.240  18.936  0.00  0.00    +0.000 A 
ATOM      4  C   UNL     1       7.355   6.012  17.773  0.00  0.00    +0.000 A 
ATOM      5  C   UNL     1       7.030   7.100  16.956  0.00  0.00    +0.000 A 
ATOM      6  C   UNL     1       7.499   8.392  17.271  0.00  0.00    +0.000 A 
ENDROOT
BRANCH   1   8
ATOM      7  N   UNL     1       9.158  10.785  17.702  0.00  0.00    +0.000 N 
ATOM      8  C   UNL     1       8.919   9.913  18.748  0.00  0.00    +0.000 C 
ATOM      9  O   UNL     1       9.180  10.152  19.925  0.00  0.00    +0.000 OA
ATOM     10  H   UNL     1       8.623  10.679  16.852  0.00  0.00    +0.000 HD
BRANCH   7  17
ATOM     11  C   UNL     1       8.634  15.651  18.510  0.00  0.00    +0.000 C 
ATOM     12  C   UNL     1       9.509  14.451  18.290  0.00  0.00    +0.000 A 
ATOM     13  C   UNL     1      10.906  14.553  18.352  0.00  0.00    +0.000 A 
ATOM     14  C   UNL     1      11.703  13.417  18.201  0.00  0.00    +0.000 A 
ATOM     15  C   UNL     1      11.102  12.179  18.010  0.00  0.00    +0.000 A 
ATOM     16  F   UNL     1      11.873  11.089  17.869  0.00  0.00    +0.000 F 
ATOM     17  C   UNL     1       9.716  12.064  17.898  0.00  0.00    +0.000 A 
ATOM     18  C   UNL     1       8.919  13.202  18.036  0.00  0.00    +0.000 A 
ENDBRANCH   7  17
ENDBRANCH   1   8
BRANCH   4  19
ATOM     19  C   UNL     1       6.922   4.617  17.400  0.00  0.00    +0.000 C 
BRANCH  19  20
ATOM     20  N   UNL     1       5.568   4.308  17.841  0.00  0.00    +0.000 N 
ATOM     21  C   UNL     1       4.416   4.523  17.133  0.00  0.00    +0.000 A 
ATOM     22  C   UNL     1       3.387   4.273  18.005  0.00  0.00    +0.000 A 
ATOM     23 CL   UNL     1       1.724   4.406  17.729  0.00  0.00    +0.000 Cl
ATOM     24  C   UNL     1       4.009   3.900  19.208  0.00  0.00    +0.000 A 
ATOM     25  N   UNL     1       5.345   3.926  19.119  0.00  0.00    +0.000 NA
ENDBRANCH  19  20
ENDBRANCH   4  19
TORSDOF 4
ENDMDL
