MODEL 1
REMARK VINA RESULT:      -7.3      0.000      0.000
REMARK  Name = 
REMARK  8 active torsions:
REMARK  status: ('A' for Active; 'I' for Inactive)
REMARK    1  A    between atoms: C_1  and  N_2
REMARK    2  A    between atoms: N_2  and  C_3
REMARK    3  A    between atoms: C_3  and  C_4
REMARK    4  A    between atoms: C_7  and  C_8
REMARK    5  A    between atoms: C_8  and  O_10
REMARK    6  A    between atoms: C_13  and  C_15
REMARK    7  A    between atoms: C_19  and  O_20
REMARK    8  A    between atoms: O_20  and  C_21
REMARK                            x       y       z     vdW  Elec       q    Type
REMARK                         _______ _______ _______ _____ _____    ______ ____
ROOT
ATOM      1  C   UNL     1       1.782   4.144  18.609  0.00  0.00    +0.000 C 
ATOM      2  N   UNL     1       3.052   4.849  18.708  0.00  0.00    +0.000 N 
ATOM      3  C   UNL     1       3.990   4.620  17.681  0.00  0.00    +0.000 C 
ATOM      4  O   UNL     1       3.683   3.880  16.743  0.00  0.00    +0.000 OA
ENDROOT
BRANCH   3   5
ATOM      5  C   UNL     1       5.300   5.267  17.701  0.00  0.00    +0.000 A 
ATOM      6  S   UNL     1       6.227   5.224  19.168  0.00  0.00    +0.000 S 
ATOM      7  C   UNL     1       7.503   6.124  18.506  0.00  0.00    +0.000 A 
ATOM      8  C   UNL     1       7.336   6.298  17.156  0.00  0.00    +0.000 A 
ATOM      9  C   UNL     1       6.085   5.785  16.677  0.00  0.00    +0.000 A 
BRANCH   9  10
ATOM     10  O   UNL     1       5.859   5.834  15.338  0.00  0.00    +0.000 OA
BRANCH  10  11
ATOM     11  C   UNL     1       6.257   4.734  14.543  0.00  0.00    +0.000 C 
ATOM     12  F   UNL     1       5.208   4.261  13.826  0.00  0.00    +0.000 F 
ATOM     13  F   UNL     1       7.144   5.220  13.632  0.00  0.00    +0.000 F 
ENDBRANCH  10  11
ENDBRANCH   9  10
ENDBRANCH   3   5
BRANCH   2  14
ATOM     14  C   UNL     1       3.140   5.893  19.733  0.00  0.00    +0.000 C 
BRANCH  14  15
ATOM     15  C   UNL     1       2.423   7.191  19.397  0.00  0.00    +0.000 A 
ATOM     16  C   UNL     1       2.431   7.766  18.116  0.00  0.00    +0.000 A 
ATOM     17  C   UNL     1       1.738   8.952  17.855  0.00  0.00    +0.000 A 
ATOM     18  C   UNL     1       1.036   9.597  18.876  0.00  0.00    +0.000 A 
ATOM     19  C   UNL     1       0.986   9.019  20.148  0.00  0.00    +0.000 A 
ATOM     20  C   UNL     1       1.683   7.831  20.406  0.00  0.00    +0.000 A 
BRANCH  18  21
ATOM     21  C   UNL     1       0.337  10.868  18.549  0.00  0.00    +0.000 C 
ATOM     22  O   UNL     1       0.685  11.950  18.987  0.00  0.00    +0.000 OA
BRANCH  21  23
ATOM     23  O   UNL     1      -0.752  10.707  17.769  0.00  0.00    +0.000 OA
ATOM     24  H   UNL     1      -1.573  10.488  18.245  0.00  0.00    +0.000 HD
ENDBRANCH  21  23
ENDBRANCH  18  21
ENDBRANCH  14  15
ENDBRANCH   2  14
TORSDOF 7
ENDMDL
MODEL 2
REMARK VINA RESULT:      -7.1      1.398      1.920
REMARK  Name = 
REMARK  8 active torsions:
REMARK  status: ('A' for Active; 'I' for Inactive)
REMARK    1  A    between atoms: C_1  and  N_2
REMARK    2  A    between atoms: N_2  and  C_3
REMARK    3  A    between atoms: C_3  and  C_4
REMARK    4  A    between atoms: C_7  and  C_8
REMARK    5  A    between atoms: C_8  and  O_10
REMARK    6  A    between atoms: C_13  and  C_15
REMARK    7  A    between atoms: C_19  and  O_20
REMARK    8  A    between atoms: O_20  and  C_21
REMARK                            x       y       z     vdW  Elec       q    Type
REMARK                         _______ _______ _______ _____ _____    ______ ____
ROOT
ATOM      1  C   UNL     1       1.736   4.761  17.894  0.00  0.00    +0.000 C 
ATOM      2  N   UNL     1       2.981   5.514  17.866  0.00  0.00    +0.000 N 
ATOM      3  C   UNL     1       4.176   4.770  17.807  0.00  0.00    +0.000 C 
ATOM      4  O   UNL     1       4.114   3.539  17.740  0.00  0.00    +0.000 OA
ENDROOT
BRANCH   3   5
ATOM      5  C   UNL     1       5.478   5.435  17.793  0.00  0.00    +0.000 A 
ATOM      6  S   UNL     1       6.417   5.455  19.253  0.00  0.00    +0.000 S 
ATOM      7  C   UNL     1       7.675   6.348  18.550  0.00  0.00    +0.000 A 
ATOM      8  C   UNL     1       7.495   6.473  17.196  0.00  0.00    +0.000 A 
ATOM      9  C   UNL     1       6.247   5.927  16.745  0.00  0.00    +0.000 A 
BRANCH   9  10
ATOM     10  O   UNL     1       6.010   5.926  15.408  0.00  0.00    +0.000 OA
BRANCH  10  11
ATOM     11  C   UNL     1       6.265   4.744  14.675  0.00  0.00    +0.000 C 
ATOM     12  F   UNL     1       5.123   4.280  14.109  0.00  0.00    +0.000 F 
ATOM     13  F   UNL     1       7.076   5.099  13.641  0.00  0.00    +0.000 F 
ENDBRANCH  10  11
ENDBRANCH   9  10
ENDBRANCH   3   5
BRANCH   2  14
ATOM     14  C   UNL     1       2.863   6.962  17.673  0.00  0.00    +0.000 C 
BRANCH  14  15
ATOM     15  C   UNL     1       2.186   7.713  18.810  0.00  0.00    +0.000 A 
ATOM     16  C   UNL     1       2.152   7.239  20.132  0.00  0.00    +0.000 A 
ATOM     17  C   UNL     1       1.535   7.978  21.146  0.00  0.00    +0.000 A 
ATOM     18  C   UNL     1       0.924   9.200  20.854  0.00  0.00    +0.000 A 
ATOM     19  C   UNL     1       0.982   9.705  19.551  0.00  0.00    +0.000 A 
ATOM     20  C   UNL     1       1.600   8.961  18.539  0.00  0.00    +0.000 A 
BRANCH  18  21
ATOM     21  C   UNL     1       0.260   9.933  21.965  0.00  0.00    +0.000 C 
ATOM     22  O   UNL     1       0.578   9.799  23.134  0.00  0.00    +0.000 OA
BRANCH  21  23
ATOM     23  O   UNL     1      -0.764  10.715  21.566  0.00  0.00    +0.000 OA
ATOM     24  H   UNL     1      -0.505  11.569  21.177  0.00  0.00    +0.000 HD
ENDBRANCH  21  23
ENDBRANCH  18  21
ENDBRANCH  14  15
ENDBRANCH   2  14
TORSDOF 7
ENDMDL
MODEL 3
REMARK VINA RESULT:      -7.0      1.357      1.676
REMARK  Name = 
REMARK  8 active torsions:
REMARK  status: ('A' for Active; 'I' for Inactive)
REMARK    1  A    between atoms: C_1  and  N_2
REMARK    2  A    between atoms: N_2  and  C_3
REMARK    3  A    between atoms: C_3  and  C_4
REMARK    4  A    between atoms: C_7  and  C_8
REMARK    5  A    between atoms: C_8  and  O_10
REMARK    6  A    between atoms: C_13  and  C_15
REMARK    7  A    between atoms: C_19  and  O_20
REMARK    8  A    between atoms: O_20  and  C_21
REMARK                            x       y       z     vdW  Elec       q    Type
REMARK                         _______ _______ _______ _____ _____    ______ ____
ROOT
ATOM      1  C   UNL     1       1.532   4.571  17.820  0.00  0.00    +0.000 C 
ATOM      2  N   UNL     1       2.901   5.060  17.755  0.00  0.00    +0.000 N 
ATOM      3  C   UNL     1       3.926   4.094  17.802  0.00  0.00    +0.000 C 
ATOM      4  O   UNL     1       3.623   2.900  17.853  0.00  0.00    +0.000 OA
ENDROOT
BRANCH   3   5
ATOM      5  C   UNL     1       5.334   4.487  17.761  0.00  0.00    +0.000 A 
ATOM      6  S   UNL     1       6.096   5.004  19.233  0.00  0.00    +0.000 S 
ATOM      7  C   UNL     1       7.582   5.305  18.475  0.00  0.00    +0.000 A 
ATOM      8  C   UNL     1       7.577   4.853  17.180  0.00  0.00    +0.000 A 
ATOM      9  C   UNL     1       6.296   4.355  16.768  0.00  0.00    +0.000 A 
BRANCH   9  10
ATOM     10  O   UNL     1       6.207   3.806  15.528  0.00  0.00    +0.000 OA
BRANCH  10  11
ATOM     11  C   UNL     1       5.913   4.651  14.433  0.00  0.00    +0.000 C 
ATOM     12  F   UNL     1       5.046   4.044  13.584  0.00  0.00    +0.000 F 
ATOM     13  F   UNL     1       5.247   5.724  14.942  0.00  0.00    +0.000 F 
ENDBRANCH  10  11
ENDBRANCH   9  10
ENDBRANCH   3   5
BRANCH   2  14
ATOM     14  C   UNL     1       3.072   6.477  17.420  0.00  0.00    +0.000 C 
BRANCH  14  15
ATOM     15  C   UNL     1       2.387   7.452  18.365  0.00  0.00    +0.000 A 
ATOM     16  C   UNL     1       1.810   8.659  17.939  0.00  0.00    +0.000 A 
ATOM     17  C   UNL     1       1.172   9.512  18.846  0.00  0.00    +0.000 A 
ATOM     18  C   UNL     1       1.113   9.180  20.201  0.00  0.00    +0.000 A 
ATOM     19  C   UNL     1       1.648   7.964  20.637  0.00  0.00    +0.000 A 
ATOM     20  C   UNL     1       2.287   7.114  19.725  0.00  0.00    +0.000 A 
BRANCH  18  21
ATOM     21  C   UNL     1       0.445  10.135  21.125  0.00  0.00    +0.000 C 
ATOM     22  O   UNL     1       0.530  10.057  22.338  0.00  0.00    +0.000 OA
BRANCH  21  23
ATOM     23  O   UNL     1      -0.311  11.061  20.500  0.00  0.00    +0.000 OA
ATOM     24  H   UNL     1      -1.195  10.756  20.226  0.00  0.00    +0.000 HD
ENDBRANCH  21  23
ENDBRANCH  18  21
ENDBRANCH  14  15
ENDBRANCH   2  14
TORSDOF 7
ENDMDL
MODEL 4
REMARK VINA RESULT:      -7.0      0.453      1.393
REMARK  Name = 
REMARK  8 active torsions:
REMARK  status: ('A' for Active; 'I' for Inactive)
REMARK    1  A    between atoms: C_1  and  N_2
REMARK    2  A    between atoms: N_2  and  C_3
REMARK    3  A    between atoms: C_3  and  C_4
REMARK    4  A    between atoms: C_7  and  C_8
REMARK    5  A    between atoms: C_8  and  O_10
REMARK    6  A    between atoms: C_13  and  C_15
REMARK    7  A    between atoms: C_19  and  O_20
REMARK    8  A    between atoms: O_20  and  C_21
REMARK                            x       y       z     vdW  Elec       q    Type
REMARK                         _______ _______ _______ _____ _____    ______ ____
ROOT
ATOM      1  C   UNL     1       1.829   4.061  18.695  0.00  0.00    +0.000 C 
ATOM      2  N   UNL     1       3.086   4.793  18.763  0.00  0.00    +0.000 N 
ATOM      3  C   UNL     1       3.996   4.597  17.705  0.00  0.00    +0.000 C 
ATOM      4  O   UNL     1       3.676   3.862  16.768  0.00  0.00    +0.000 OA
ENDROOT
BRANCH   3   5
ATOM      5  C   UNL     1       5.292   5.273  17.692  0.00  0.00    +0.000 A 
ATOM      6  S   UNL     1       6.264   5.237  19.130  0.00  0.00    +0.000 S 
ATOM      7  C   UNL     1       7.499   6.171  18.440  0.00  0.00    +0.000 A 
ATOM      8  C   UNL     1       7.287   6.354  17.097  0.00  0.00    +0.000 A 
ATOM      9  C   UNL     1       6.034   5.818  16.651  0.00  0.00    +0.000 A 
BRANCH   9  10
ATOM     10  O   UNL     1       5.766   5.875  15.320  0.00  0.00    +0.000 OA
BRANCH  10  11
ATOM     11  C   UNL     1       6.239   4.833  14.489  0.00  0.00    +0.000 C 
ATOM     12  F   UNL     1       7.452   5.152  13.971  0.00  0.00    +0.000 F 
ATOM     13  F   UNL     1       6.449   3.759  15.299  0.00  0.00    +0.000 F 
ENDBRANCH  10  11
ENDBRANCH   9  10
ENDBRANCH   3   5
BRANCH   2  14
ATOM     14  C   UNL     1       3.184   5.826  19.799  0.00  0.00    +0.000 C 
BRANCH  14  15
ATOM     15  C   UNL     1       2.417   7.107  19.509  0.00  0.00    +0.000 A 
ATOM     16  C   UNL     1       1.692   7.808  20.486  0.00  0.00    +0.000 A 
ATOM     17  C   UNL     1       1.020   8.993  20.172  0.00  0.00    +0.000 A 
ATOM     18  C   UNL     1       1.047   9.494  18.868  0.00  0.00    +0.000 A 
ATOM     19  C   UNL     1       1.795   8.829  17.891  0.00  0.00    +0.000 A 
ATOM     20  C   UNL     1       2.465   7.641  18.210  0.00  0.00    +0.000 A 
BRANCH  18  21
ATOM     21  C   UNL     1       0.294  10.744  18.584  0.00  0.00    +0.000 C 
ATOM     22  O   UNL     1      -0.855  10.752  18.180  0.00  0.00    +0.000 OA
BRANCH  21  23
ATOM     23  O   UNL     1       1.020  11.868  18.759  0.00  0.00    +0.000 OA
ATOM     24  H   UNL     1       1.359  12.273  17.941  0.00  0.00    +0.000 HD
ENDBRANCH  21  23
ENDBRANCH  18  21
ENDBRANCH  14  15
ENDBRANCH   2  14
TORSDOF 7
ENDMDL
MODEL 5
REMARK VINA RESULT:      -7.0      1.423      1.910
REMARK  Name = 
REMARK  8 active torsions:
REMARK  status: ('A' for Active; 'I' for Inactive)
REMARK    1  A    between atoms: C_1  and  N_2
REMARK    2  A    between atoms: N_2  and  C_3
REMARK    3  A    between atoms: C_3  and  C_4
REMARK    4  A    between atoms: C_7  and  C_8
REMARK    5  A    between atoms: C_8  and  O_10
REMARK    6  A    between atoms: C_13  and  C_15
REMARK    7  A    between atoms: C_19  and  O_20
REMARK    8  A    between atoms: O_20  and  C_21
REMARK                            x       y       z     vdW  Elec       q    Type
REMARK                         _______ _______ _______ _____ _____    ______ ____
ROOT
ATOM      1  C   UNL     1       2.466   3.195  19.389  0.00  0.00    +0.000 C 
ATOM      2  N   UNL     1       3.418   4.122  18.796  0.00  0.00    +0.000 N 
ATOM      3  C   UNL     1       4.785   3.811  18.939  0.00  0.00    +0.000 C 
ATOM      4  O   UNL     1       5.105   2.766  19.511  0.00  0.00    +0.000 OA
ENDROOT
BRANCH   3   5
ATOM      5  C   UNL     1       5.818   4.689  18.394  0.00  0.00    +0.000 A 
ATOM      6  S   UNL     1       6.824   5.575  19.498  0.00  0.00    +0.000 S 
ATOM      7  C   UNL     1       7.690   6.336  18.255  0.00  0.00    +0.000 A 
ATOM      8  C   UNL     1       7.370   5.803  17.032  0.00  0.00    +0.000 A 
ATOM      9  C   UNL     1       6.314   4.836  17.104  0.00  0.00    +0.000 A 
BRANCH   9  10
ATOM     10  O   UNL     1       5.978   4.188  15.958  0.00  0.00    +0.000 OA
BRANCH  10  11
ATOM     11  C   UNL     1       5.776   4.950  14.783  0.00  0.00    +0.000 C 
ATOM     12  F   UNL     1       5.074   4.236  13.868  0.00  0.00    +0.000 F 
ATOM     13  F   UNL     1       4.977   5.994  15.135  0.00  0.00    +0.000 F 
ENDBRANCH  10  11
ENDBRANCH   9  10
ENDBRANCH   3   5
BRANCH   2  14
ATOM     14  C   UNL     1       2.861   5.158  17.922  0.00  0.00    +0.000 C 
BRANCH  14  15
ATOM     15  C   UNL     1       2.378   6.413  18.632  0.00  0.00    +0.000 A 
ATOM     16  C   UNL     1       2.093   6.459  20.006  0.00  0.00    +0.000 A 
ATOM     17  C   UNL     1       1.671   7.645  20.615  0.00  0.00    +0.000 A 
ATOM     18  C   UNL     1       1.511   8.807  19.857  0.00  0.00    +0.000 A 
ATOM     19  C   UNL     1       1.827   8.790  18.494  0.00  0.00    +0.000 A 
ATOM     20  C   UNL     1       2.247   7.599  17.889  0.00  0.00    +0.000 A 
BRANCH  18  21
ATOM     21  C   UNL     1       1.036  10.034  20.550  0.00  0.00    +0.000 C 
ATOM     22  O   UNL     1       1.142  10.202  21.752  0.00  0.00    +0.000 OA
BRANCH  21  23
ATOM     23  O   UNL     1       0.425  10.918  19.735  0.00  0.00    +0.000 OA
ATOM     24  H   UNL     1       0.612  10.804  18.786  0.00  0.00    +0.000 HD
ENDBRANCH  21  23
ENDBRANCH  18  21
ENDBRANCH  14  15
ENDBRANCH   2  14
TORSDOF 7
ENDMDL
MODEL 6
REMARK VINA RESULT:      -6.9      0.887      1.341
REMARK  Name = 
REMARK  8 active torsions:
REMARK  status: ('A' for Active; 'I' for Inactive)
REMARK    1  A    between atoms: C_1  and  N_2
REMARK    2  A    between atoms: N_2  and  C_3
REMARK    3  A    between atoms: C_3  and  C_4
REMARK    4  A    between atoms: C_7  and  C_8
REMARK    5  A    between atoms: C_8  and  O_10
REMARK    6  A    between atoms: C_13  and  C_15
REMARK    7  A    between atoms: C_19  and  O_20
REMARK    8  A    between atoms: O_20  and  C_21
REMARK                            x       y       z     vdW  Elec       q    Type
REMARK                         _______ _______ _______ _____ _____    ______ ____
ROOT
ATOM      1  C   UNL     1       1.511   4.190  18.950  0.00  0.00    +0.000 C 
ATOM      2  N   UNL     1       2.892   4.645  18.899  0.00  0.00    +0.000 N 
ATOM      3  C   UNL     1       3.703   4.110  17.878  0.00  0.00    +0.000 C 
ATOM      4  O   UNL     1       3.204   3.328  17.065  0.00  0.00    +0.000 OA
ENDROOT
BRANCH   3   5
ATOM      5  C   UNL     1       5.109   4.491  17.755  0.00  0.00    +0.000 A 
ATOM      6  S   UNL     1       5.920   5.136  19.148  0.00  0.00    +0.000 S 
ATOM      7  C   UNL     1       7.381   5.360  18.317  0.00  0.00    +0.000 A 
ATOM      8  C   UNL     1       7.332   4.791  17.070  0.00  0.00    +0.000 A 
ATOM      9  C   UNL     1       6.038   4.264  16.747  0.00  0.00    +0.000 A 
BRANCH   9  10
ATOM     10  O   UNL     1       5.907   3.605  15.566  0.00  0.00    +0.000 OA
BRANCH  10  11
ATOM     11  C   UNL     1       6.083   4.328  14.363  0.00  0.00    +0.000 C 
ATOM     12  F   UNL     1       5.660   3.596  13.303  0.00  0.00    +0.000 F 
ATOM     13  F   UNL     1       5.248   5.401  14.434  0.00  0.00    +0.000 F 
ENDBRANCH  10  11
ENDBRANCH   9  10
ENDBRANCH   3   5
BRANCH   2  14
ATOM     14  C   UNL     1       3.239   5.776  19.765  0.00  0.00    +0.000 C 
BRANCH  14  15
ATOM     15  C   UNL     1       2.473   7.060  19.489  0.00  0.00    +0.000 A 
ATOM     16  C   UNL     1       1.746   7.750  20.473  0.00  0.00    +0.000 A 
ATOM     17  C   UNL     1       1.075   8.940  20.172  0.00  0.00    +0.000 A 
ATOM     18  C   UNL     1       1.105   9.455  18.874  0.00  0.00    +0.000 A 
ATOM     19  C   UNL     1       1.855   8.802  17.890  0.00  0.00    +0.000 A 
ATOM     20  C   UNL     1       2.524   7.610  18.197  0.00  0.00    +0.000 A 
BRANCH  18  21
ATOM     21  C   UNL     1       0.354  10.709  18.602  0.00  0.00    +0.000 C 
ATOM     22  O   UNL     1       0.535  11.742  19.224  0.00  0.00    +0.000 OA
BRANCH  21  23
ATOM     23  O   UNL     1      -0.588  10.584  17.644  0.00  0.00    +0.000 OA
ATOM     24  H   UNL     1      -1.412  10.152  17.929  0.00  0.00    +0.000 HD
ENDBRANCH  21  23
ENDBRANCH  18  21
ENDBRANCH  14  15
ENDBRANCH   2  14
TORSDOF 7
ENDMDL
MODEL 7
REMARK VINA RESULT:      -6.9      3.225      7.251
REMARK  Name = 
REMARK  8 active torsions:
REMARK  status: ('A' for Active; 'I' for Inactive)
REMARK    1  A    between atoms: C_1  and  N_2
REMARK    2  A    between atoms: N_2  and  C_3
REMARK    3  A    between atoms: C_3  and  C_4
REMARK    4  A    between atoms: C_7  and  C_8
REMARK    5  A    between atoms: C_8  and  O_10
REMARK    6  A    between atoms: C_13  and  C_15
REMARK    7  A    between atoms: C_19  and  O_20
REMARK    8  A    between atoms: O_20  and  C_21
REMARK                            x       y       z     vdW  Elec       q    Type
REMARK                         _______ _______ _______ _____ _____    ______ ____
ROOT
ATOM      1  C   UNL     1       7.692   6.137  18.211  0.00  0.00    +0.000 C 
ATOM      2  N   UNL     1       6.342   5.777  17.805  0.00  0.00    +0.000 N 
ATOM      3  C   UNL     1       5.546   5.109  18.757  0.00  0.00    +0.000 C 
ATOM      4  O   UNL     1       6.005   4.902  19.883  0.00  0.00    +0.000 OA
ENDROOT
BRANCH   3   5
ATOM      5  C   UNL     1       4.182   4.690  18.438  0.00  0.00    +0.000 A 
ATOM      6  S   UNL     1       3.895   3.024  18.044  0.00  0.00    +0.000 S 
ATOM      7  C   UNL     1       2.239   3.267  17.781  0.00  0.00    +0.000 A 
ATOM      8  C   UNL     1       1.859   4.529  18.161  0.00  0.00    +0.000 A 
ATOM      9  C   UNL     1       2.965   5.347  18.567  0.00  0.00    +0.000 A 
BRANCH   9  10
ATOM     10  O   UNL     1       2.685   6.589  19.041  0.00  0.00    +0.000 OA
BRANCH  10  11
ATOM     11  C   UNL     1       2.336   7.604  18.120  0.00  0.00    +0.000 C 
ATOM     12  F   UNL     1       1.659   8.600  18.743  0.00  0.00    +0.000 F 
ATOM     13  F   UNL     1       3.506   8.156  17.695  0.00  0.00    +0.000 F 
ENDBRANCH  10  11
ENDBRANCH   9  10
ENDBRANCH   3   5
BRANCH   2  14
ATOM     14  C   UNL     1       5.870   6.340  16.537  0.00  0.00    +0.000 C 
BRANCH  14  15
ATOM     15  C   UNL     1       5.927   5.394  15.347  0.00  0.00    +0.000 A 
ATOM     16  C   UNL     1       4.827   4.636  14.913  0.00  0.00    +0.000 A 
ATOM     17  C   UNL     1       4.926   3.796  13.800  0.00  0.00    +0.000 A 
ATOM     18  C   UNL     1       6.134   3.684  13.107  0.00  0.00    +0.000 A 
ATOM     19  C   UNL     1       7.229   4.460  13.502  0.00  0.00    +0.000 A 
ATOM     20  C   UNL     1       7.125   5.300  14.619  0.00  0.00    +0.000 A 
BRANCH  18  21
ATOM     21  C   UNL     1       6.191   2.757  11.946  0.00  0.00    +0.000 C 
ATOM     22  O   UNL     1       5.197   2.300  11.410  0.00  0.00    +0.000 OA
BRANCH  21  23
ATOM     23  O   UNL     1       7.445   2.422  11.578  0.00  0.00    +0.000 OA
ATOM     24  H   UNL     1       7.621   1.465  11.532  0.00  0.00    +0.000 HD
ENDBRANCH  21  23
ENDBRANCH  18  21
ENDBRANCH  14  15
ENDBRANCH   2  14
TORSDOF 7
ENDMDL
MODEL 8
REMARK VINA RESULT:      -6.9      1.523      1.887
REMARK  Name = 
REMARK  8 active torsions:
REMARK  status: ('A' for Active; 'I' for Inactive)
REMARK    1  A    between atoms: C_1  and  N_2
REMARK    2  A    between atoms: N_2  and  C_3
REMARK    3  A    between atoms: C_3  and  C_4
REMARK    4  A    between atoms: C_7  and  C_8
REMARK    5  A    between atoms: C_8  and  O_10
REMARK    6  A    between atoms: C_13  and  C_15
REMARK    7  A    between atoms: C_19  and  O_20
REMARK    8  A    between atoms: O_20  and  C_21
REMARK                            x       y       z     vdW  Elec       q    Type
REMARK                         _______ _______ _______ _____ _____    ______ ____
ROOT
ATOM      1  C   UNL     1       2.725   3.140  19.485  0.00  0.00    +0.000 C 
ATOM      2  N   UNL     1       3.535   4.186  18.878  0.00  0.00    +0.000 N 
ATOM      3  C   UNL     1       4.934   4.036  18.957  0.00  0.00    +0.000 C 
ATOM      4  O   UNL     1       5.400   3.025  19.488  0.00  0.00    +0.000 OA
ENDROOT
BRANCH   3   5
ATOM      5  C   UNL     1       5.832   5.042  18.393  0.00  0.00    +0.000 A 
ATOM      6  S   UNL     1       7.133   5.639  19.374  0.00  0.00    +0.000 S 
ATOM      7  C   UNL     1       7.682   6.704  18.175  0.00  0.00    +0.000 A 
ATOM      8  C   UNL     1       7.028   6.491  16.989  0.00  0.00    +0.000 A 
ATOM      9  C   UNL     1       5.981   5.518  17.095  0.00  0.00    +0.000 A 
BRANCH   9  10
ATOM     10  O   UNL     1       5.327   5.174  15.955  0.00  0.00    +0.000 OA
BRANCH  10  11
ATOM     11  C   UNL     1       5.991   4.353  15.014  0.00  0.00    +0.000 C 
ATOM     12  F   UNL     1       6.051   3.073  15.458  0.00  0.00    +0.000 F 
ATOM     13  F   UNL     1       5.204   4.327  13.903  0.00  0.00    +0.000 F 
ENDBRANCH  10  11
ENDBRANCH   9  10
ENDBRANCH   3   5
BRANCH   2  14
ATOM     14  C   UNL     1       2.823   5.166  18.053  0.00  0.00    +0.000 C 
BRANCH  14  15
ATOM     15  C   UNL     1       2.343   6.406  18.792  0.00  0.00    +0.000 A 
ATOM     16  C   UNL     1       2.261   7.674  18.195  0.00  0.00    +0.000 A 
ATOM     17  C   UNL     1       1.793   8.779  18.913  0.00  0.00    +0.000 A 
ATOM     18  C   UNL     1       1.413   8.641  20.250  0.00  0.00    +0.000 A 
ATOM     19  C   UNL     1       1.452   7.377  20.849  0.00  0.00    +0.000 A 
ATOM     20  C   UNL     1       1.922   6.274  20.127  0.00  0.00    +0.000 A 
BRANCH  18  21
ATOM     21  C   UNL     1       0.947   9.853  20.973  0.00  0.00    +0.000 C 
ATOM     22  O   UNL     1       0.311  10.744  20.439  0.00  0.00    +0.000 OA
BRANCH  21  23
ATOM     23  O   UNL     1       1.342   9.904  22.262  0.00  0.00    +0.000 OA
ATOM     24  H   UNL     1       2.304   9.981  22.397  0.00  0.00    +0.000 HD
ENDBRANCH  21  23
ENDBRANCH  18  21
ENDBRANCH  14  15
ENDBRANCH   2  14
TORSDOF 7
ENDMDL
MODEL 9
REMARK VINA RESULT:      -6.9      4.254      7.243
REMARK  Name = 
REMARK  8 active torsions:
REMARK  status: ('A' for Active; 'I' for Inactive)
REMARK    1  A    between atoms: C_1  and  N_2
REMARK    2  A    between atoms: N_2  and  C_3
REMARK    3  A    between atoms: C_3  and  C_4
REMARK    4  A    between atoms: C_7  and  C_8
REMARK    5  A    between atoms: C_8  and  O_10
REMARK    6  A    between atoms: C_13  and  C_15
REMARK    7  A    between atoms: C_19  and  O_20
REMARK    8  A    between atoms: O_20  and  C_21
REMARK                            x       y       z     vdW  Elec       q    Type
REMARK                         _______ _______ _______ _____ _____    ______ ____
ROOT
ATOM      1  C   UNL     1       7.191   5.537  19.320  0.00  0.00    +0.000 C 
ATOM      2  N   UNL     1       5.944   5.167  18.667  0.00  0.00    +0.000 N 
ATOM      3  C   UNL     1       5.134   4.221  19.327  0.00  0.00    +0.000 C 
ATOM      4  O   UNL     1       5.491   3.790  20.426  0.00  0.00    +0.000 OA
ENDROOT
BRANCH   3   5
ATOM      5  C   UNL     1       3.872   3.772  18.742  0.00  0.00    +0.000 A 
ATOM      6  S   UNL     1       3.785   2.169  18.082  0.00  0.00    +0.000 S 
ATOM      7  C   UNL     1       2.170   2.348  17.598  0.00  0.00    +0.000 A 
ATOM      8  C   UNL     1       1.635   3.513  18.085  0.00  0.00    +0.000 A 
ATOM      9  C   UNL     1       2.598   4.327  18.768  0.00  0.00    +0.000 A 
BRANCH   9  10
ATOM     10  O   UNL     1       2.149   5.464  19.360  0.00  0.00    +0.000 OA
BRANCH  10  11
ATOM     11  C   UNL     1       1.580   5.377  20.652  0.00  0.00    +0.000 C 
ATOM     12  F   UNL     1       0.506   4.550  20.644  0.00  0.00    +0.000 F 
ATOM     13  F   UNL     1       2.510   4.773  21.442  0.00  0.00    +0.000 F 
ENDBRANCH  10  11
ENDBRANCH   9  10
ENDBRANCH   3   5
BRANCH   2  14
ATOM     14  C   UNL     1       5.548   5.976  17.511  0.00  0.00    +0.000 C 
BRANCH  14  15
ATOM     15  C   UNL     1       5.862   5.363  16.154  0.00  0.00    +0.000 A 
ATOM     16  C   UNL     1       7.139   5.396  15.571  0.00  0.00    +0.000 A 
ATOM     17  C   UNL     1       7.379   4.798  14.330  0.00  0.00    +0.000 A 
ATOM     18  C   UNL     1       6.342   4.168  13.639  0.00  0.00    +0.000 A 
ATOM     19  C   UNL     1       5.073   4.092  14.222  0.00  0.00    +0.000 A 
ATOM     20  C   UNL     1       4.836   4.694  15.465  0.00  0.00    +0.000 A 
BRANCH  18  21
ATOM     21  C   UNL     1       6.647   3.571  12.312  0.00  0.00    +0.000 C 
ATOM     22  O   UNL     1       7.303   4.143  11.460  0.00  0.00    +0.000 OA
BRANCH  21  23
ATOM     23  O   UNL     1       6.082   2.362  12.116  0.00  0.00    +0.000 OA
ATOM     24  H   UNL     1       5.895   2.139  11.187  0.00  0.00    +0.000 HD
ENDBRANCH  21  23
ENDBRANCH  18  21
ENDBRANCH  14  15
ENDBRANCH   2  14
TORSDOF 7
ENDMDL
