MODEL 1
REMARK VINA RESULT:      -7.1      0.000      0.000
REMARK  Name = 
REMARK  8 active torsions:
REMARK  status: ('A' for Active; 'I' for Inactive)
REMARK    1  A    between atoms: C_1  and  C_2
REMARK    2  A    between atoms: C_2  and  N_3
REMARK    3  A    between atoms: C_4  and  C_5
REMARK    4  A    between atoms: C_5  and  C_6
REMARK    5  A    between atoms: N_8  and  C_9
REMARK    6  A    between atoms: C_18  and  S_19
REMARK    7  A    between atoms: S_19  and  C_20
REMARK    8  A    between atoms: C_20  and  C_21
REMARK                            x       y       z     vdW  Elec       q    Type
REMARK                         _______ _______ _______ _____ _____    ______ ____
ROOT
ATOM      1  N   UNL     1       0.032  11.272  21.115  0.00  0.00    +0.000 N 
ATOM      2  C   UNL     1       0.362  10.336  22.097  0.00  0.00    +0.000 A 
ATOM      3  N   UNL     1      -0.295  10.639  23.202  0.00  0.00    +0.000 NA
ATOM      4  N   UNL     1      -1.048  11.754  22.972  0.00  0.00    +0.000 NA
ATOM      5  C   UNL     1      -0.885  12.101  21.718  0.00  0.00    +0.000 A 
ENDROOT
BRANCH   1   7
ATOM      6  C   UNL     1       1.629  12.413  19.440  0.00  0.00    +0.000 C 
ATOM      7  C   UNL     1       0.633  11.318  19.795  0.00  0.00    +0.000 C 
ENDBRANCH   1   7
BRANCH   2   8
ATOM      8  C   UNL     1       1.402   9.262  22.046  0.00  0.00    +0.000 C 
BRANCH   8   9
ATOM      9  C   UNL     1       0.969   7.990  21.349  0.00  0.00    +0.000 C 
ATOM     10  O   UNL     1      -0.231   7.799  21.142  0.00  0.00    +0.000 OA
ATOM     11  N   UNL     1       1.986   7.135  20.957  0.00  0.00    +0.000 N 
ATOM     12  H   UNL     1       2.914   7.264  21.356  0.00  0.00    +0.000 HD
BRANCH  11  13
ATOM     13  C   UNL     1       1.824   5.990  20.131  0.00  0.00    +0.000 A 
ATOM     14  C   UNL     1       1.271   4.788  20.576  0.00  0.00    +0.000 A 
ATOM     15  C   UNL     1       1.133   3.691  19.716  0.00  0.00    +0.000 A 
ATOM     16  C   UNL     1       1.539   3.783  18.388  0.00  0.00    +0.000 A 
ATOM     17  C   UNL     1       2.074   4.981  17.916  0.00  0.00    +0.000 A 
ATOM     18  C   UNL     1       2.203   6.069  18.784  0.00  0.00    +0.000 A 
ATOM     19  F   UNL     1       2.723   7.212  18.301  0.00  0.00    +0.000 F 
ENDBRANCH  11  13
ENDBRANCH   8   9
ENDBRANCH   2   8
BRANCH   5  20
ATOM     20  S   UNL     1      -1.753  13.405  20.988  0.00  0.00    +0.000 S 
BRANCH  20  21
ATOM     21  C   UNL     1      -3.483  12.904  21.189  0.00  0.00    +0.000 C 
BRANCH  21  22
ATOM     22  C   UNL     1      -4.017  12.275  19.917  0.00  0.00    +0.000 C 
ATOM     23  O   UNL     1      -5.183  11.900  19.827  0.00  0.00    +0.000 OA
ATOM     24  N   UNL     1      -3.040  12.109  18.941  0.00  0.00    +0.000 N 
ATOM     25  C   UNL     1      -3.181  11.611  17.678  0.00  0.00    +0.000 C 
ATOM     26  N   UNL     1      -2.163  11.089  17.093  0.00  0.00    +0.000 NA
ATOM     27  C   UNL     1      -2.563  10.616  15.752  0.00  0.00    +0.000 C 
ATOM     28  C   UNL     1      -4.072  10.425  15.689  0.00  0.00    +0.000 C 
ATOM     29  S   UNL     1      -4.680  11.680  16.821  0.00  0.00    +0.000 S 
ATOM     30  H   UNL     1      -2.071  12.136  19.240  0.00  0.00    +0.000 HD
ENDBRANCH  21  22
ENDBRANCH  20  21
ENDBRANCH   5  20
TORSDOF 7
ENDMDL
MODEL 2
REMARK VINA RESULT:      -7.1      4.460      8.844
REMARK  Name = 
REMARK  8 active torsions:
REMARK  status: ('A' for Active; 'I' for Inactive)
REMARK    1  A    between atoms: C_1  and  C_2
REMARK    2  A    between atoms: C_2  and  N_3
REMARK    3  A    between atoms: C_4  and  C_5
REMARK    4  A    between atoms: C_5  and  C_6
REMARK    5  A    between atoms: N_8  and  C_9
REMARK    6  A    between atoms: C_18  and  S_19
REMARK    7  A    between atoms: S_19  and  C_20
REMARK    8  A    between atoms: C_20  and  C_21
REMARK                            x       y       z     vdW  Elec       q    Type
REMARK                         _______ _______ _______ _____ _____    ______ ____
ROOT
ATOM      1  N   UNL     1       2.104   5.580  19.655  0.00  0.00    +0.000 N 
ATOM      2  C   UNL     1       2.042   6.962  19.846  0.00  0.00    +0.000 A 
ATOM      3  N   UNL     1       2.483   7.555  18.753  0.00  0.00    +0.000 NA
ATOM      4  N   UNL     1       2.837   6.598  17.846  0.00  0.00    +0.000 NA
ATOM      5  C   UNL     1       2.568   5.427  18.370  0.00  0.00    +0.000 A 
ENDROOT
BRANCH   1   7
ATOM      6  C   UNL     1       0.778   3.497  20.402  0.00  0.00    +0.000 C 
ATOM      7  C   UNL     1       1.790   4.600  20.678  0.00  0.00    +0.000 C 
ENDBRANCH   1   7
BRANCH   2   8
ATOM      8  C   UNL     1       1.721   7.714  21.099  0.00  0.00    +0.000 C 
BRANCH   8   9
ATOM      9  C   UNL     1       0.457   8.545  21.035  0.00  0.00    +0.000 C 
ATOM     10  O   UNL     1      -0.501   8.234  21.745  0.00  0.00    +0.000 OA
ATOM     11  N   UNL     1       0.491   9.639  20.185  0.00  0.00    +0.000 N 
ATOM     12  H   UNL     1       1.229   9.692  19.487  0.00  0.00    +0.000 HD
BRANCH  11  13
ATOM     13  C   UNL     1      -0.503  10.652  20.110  0.00  0.00    +0.000 A 
ATOM     14  C   UNL     1      -0.733  11.585  21.122  0.00  0.00    +0.000 A 
ATOM     15  C   UNL     1      -1.726  12.564  20.993  0.00  0.00    +0.000 A 
ATOM     16  C   UNL     1      -2.501  12.632  19.839  0.00  0.00    +0.000 A 
ATOM     17  C   UNL     1      -2.274  11.723  18.806  0.00  0.00    +0.000 A 
ATOM     18  C   UNL     1      -1.278  10.753  18.947  0.00  0.00    +0.000 A 
ATOM     19  F   UNL     1      -1.081   9.890  17.934  0.00  0.00    +0.000 F 
ENDBRANCH  11  13
ENDBRANCH   8   9
ENDBRANCH   2   8
BRANCH   5  20
ATOM     20  S   UNL     1       2.766   3.946  17.501  0.00  0.00    +0.000 S 
BRANCH  20  21
ATOM     21  C   UNL     1       4.135   3.142  18.377  0.00  0.00    +0.000 C 
BRANCH  21  22
ATOM     22  C   UNL     1       5.179   4.157  18.798  0.00  0.00    +0.000 C 
ATOM     23  O   UNL     1       5.506   4.291  19.975  0.00  0.00    +0.000 OA
ATOM     24  N   UNL     1       5.638   4.937  17.741  0.00  0.00    +0.000 N 
ATOM     25  C   UNL     1       6.592   5.912  17.760  0.00  0.00    +0.000 C 
ATOM     26  N   UNL     1       6.566   6.833  16.864  0.00  0.00    +0.000 NA
ATOM     27  C   UNL     1       7.684   7.770  17.098  0.00  0.00    +0.000 C 
ATOM     28  C   UNL     1       8.169   7.663  18.537  0.00  0.00    +0.000 C 
ATOM     29  S   UNL     1       7.860   5.939  18.935  0.00  0.00    +0.000 S 
ATOM     30  H   UNL     1       5.066   4.972  16.904  0.00  0.00    +0.000 HD
ENDBRANCH  21  22
ENDBRANCH  20  21
ENDBRANCH   5  20
TORSDOF 7
ENDMDL
MODEL 3
REMARK VINA RESULT:      -7.1      4.525      8.890
REMARK  Name = 
REMARK  8 active torsions:
REMARK  status: ('A' for Active; 'I' for Inactive)
REMARK    1  A    between atoms: C_1  and  C_2
REMARK    2  A    between atoms: C_2  and  N_3
REMARK    3  A    between atoms: C_4  and  C_5
REMARK    4  A    between atoms: C_5  and  C_6
REMARK    5  A    between atoms: N_8  and  C_9
REMARK    6  A    between atoms: C_18  and  S_19
REMARK    7  A    between atoms: S_19  and  C_20
REMARK    8  A    between atoms: C_20  and  C_21
REMARK                            x       y       z     vdW  Elec       q    Type
REMARK                         _______ _______ _______ _____ _____    ______ ____
ROOT
ATOM      1  N   UNL     1       1.770   5.419  19.616  0.00  0.00    +0.000 N 
ATOM      2  C   UNL     1       1.851   6.774  19.945  0.00  0.00    +0.000 A 
ATOM      3  N   UNL     1       2.525   7.396  18.995  0.00  0.00    +0.000 NA
ATOM      4  N   UNL     1       2.893   6.484  18.049  0.00  0.00    +0.000 NA
ATOM      5  C   UNL     1       2.405   5.318  18.400  0.00  0.00    +0.000 A 
ENDROOT
BRANCH   1   7
ATOM      6  C   UNL     1       2.066   3.566  21.386  0.00  0.00    +0.000 C 
ATOM      7  C   UNL     1       1.184   4.405  20.472  0.00  0.00    +0.000 C 
ENDBRANCH   1   7
BRANCH   2   8
ATOM      8  C   UNL     1       1.435   7.449  21.214  0.00  0.00    +0.000 C 
BRANCH   8   9
ATOM      9  C   UNL     1       1.272   8.951  21.110  0.00  0.00    +0.000 C 
ATOM     10  O   UNL     1       1.655   9.661  22.042  0.00  0.00    +0.000 OA
ATOM     11  N   UNL     1       0.721   9.423  19.930  0.00  0.00    +0.000 N 
ATOM     12  H   UNL     1       0.241   8.766  19.319  0.00  0.00    +0.000 HD
BRANCH  11  13
ATOM     13  C   UNL     1       0.650  10.789  19.545  0.00  0.00    +0.000 A 
ATOM     14  C   UNL     1       1.612  11.420  18.756  0.00  0.00    +0.000 A 
ATOM     15  C   UNL     1       1.490  12.770  18.404  0.00  0.00    +0.000 A 
ATOM     16  C   UNL     1       0.391  13.511  18.830  0.00  0.00    +0.000 A 
ATOM     17  C   UNL     1      -0.593  12.895  19.602  0.00  0.00    +0.000 A 
ATOM     18  C   UNL     1      -0.459  11.546  19.943  0.00  0.00    +0.000 A 
ATOM     19  F   UNL     1      -1.425  10.979  20.689  0.00  0.00    +0.000 F 
ENDBRANCH  11  13
ENDBRANCH   8   9
ENDBRANCH   2   8
BRANCH   5  20
ATOM     20  S   UNL     1       2.551   3.907  17.413  0.00  0.00    +0.000 S 
BRANCH  20  21
ATOM     21  C   UNL     1       3.917   3.007  18.192  0.00  0.00    +0.000 C 
BRANCH  21  22
ATOM     22  C   UNL     1       5.006   3.959  18.646  0.00  0.00    +0.000 C 
ATOM     23  O   UNL     1       5.373   4.004  19.818  0.00  0.00    +0.000 OA
ATOM     24  N   UNL     1       5.456   4.794  17.629  0.00  0.00    +0.000 N 
ATOM     25  C   UNL     1       6.442   5.737  17.681  0.00  0.00    +0.000 C 
ATOM     26  N   UNL     1       6.417   6.716  16.850  0.00  0.00    +0.000 NA
ATOM     27  C   UNL     1       7.572   7.602  17.109  0.00  0.00    +0.000 C 
ATOM     28  C   UNL     1       8.097   7.384  18.521  0.00  0.00    +0.000 C 
ATOM     29  S   UNL     1       7.745   5.647  18.813  0.00  0.00    +0.000 S 
ATOM     30  H   UNL     1       4.861   4.902  16.815  0.00  0.00    +0.000 HD
ENDBRANCH  21  22
ENDBRANCH  20  21
ENDBRANCH   5  20
TORSDOF 7
ENDMDL
MODEL 4
REMARK VINA RESULT:      -7.1      4.393      8.847
REMARK  Name = 
REMARK  8 active torsions:
REMARK  status: ('A' for Active; 'I' for Inactive)
REMARK    1  A    between atoms: C_1  and  C_2
REMARK    2  A    between atoms: C_2  and  N_3
REMARK    3  A    between atoms: C_4  and  C_5
REMARK    4  A    between atoms: C_5  and  C_6
REMARK    5  A    between atoms: N_8  and  C_9
REMARK    6  A    between atoms: C_18  and  S_19
REMARK    7  A    between atoms: S_19  and  C_20
REMARK    8  A    between atoms: C_20  and  C_21
REMARK                            x       y       z     vdW  Elec       q    Type
REMARK                         _______ _______ _______ _____ _____    ______ ____
ROOT
ATOM      1  N   UNL     1       1.834   5.585  19.713  0.00  0.00    +0.000 N 
ATOM      2  C   UNL     1       2.008   6.935  20.025  0.00  0.00    +0.000 A 
ATOM      3  N   UNL     1       2.613   7.524  19.009  0.00  0.00    +0.000 NA
ATOM      4  N   UNL     1       2.843   6.595  18.036  0.00  0.00    +0.000 NA
ATOM      5  C   UNL     1       2.338   5.454  18.440  0.00  0.00    +0.000 A 
ENDROOT
BRANCH   1   7
ATOM      6  C   UNL     1       2.218   3.725  21.459  0.00  0.00    +0.000 C 
ATOM      7  C   UNL     1       1.290   4.600  20.628  0.00  0.00    +0.000 C 
ENDBRANCH   1   7
BRANCH   2   8
ATOM      8  C   UNL     1       1.753   7.630  21.325  0.00  0.00    +0.000 C 
BRANCH   8   9
ATOM      9  C   UNL     1       0.474   8.439  21.372  0.00  0.00    +0.000 C 
ATOM     10  O   UNL     1      -0.604   7.850  21.475  0.00  0.00    +0.000 OA
ATOM     11  N   UNL     1       0.623   9.815  21.331  0.00  0.00    +0.000 N 
ATOM     12  H   UNL     1       1.516  10.201  21.031  0.00  0.00    +0.000 HD
BRANCH  11  13
ATOM     13  C   UNL     1      -0.415  10.761  21.550  0.00  0.00    +0.000 A 
ATOM     14  C   UNL     1      -0.868  11.132  22.817  0.00  0.00    +0.000 A 
ATOM     15  C   UNL     1      -1.893  12.073  22.974  0.00  0.00    +0.000 A 
ATOM     16  C   UNL     1      -2.479  12.667  21.859  0.00  0.00    +0.000 A 
ATOM     17  C   UNL     1      -2.028  12.327  20.585  0.00  0.00    +0.000 A 
ATOM     18  C   UNL     1      -1.001  11.389  20.443  0.00  0.00    +0.000 A 
ATOM     19  F   UNL     1      -0.587  11.081  19.201  0.00  0.00    +0.000 F 
ENDBRANCH  11  13
ENDBRANCH   8   9
ENDBRANCH   2   8
BRANCH   5  20
ATOM     20  S   UNL     1       2.321   4.037  17.451  0.00  0.00    +0.000 S 
BRANCH  20  21
ATOM     21  C   UNL     1       3.700   3.064  18.111  0.00  0.00    +0.000 C 
BRANCH  21  22
ATOM     22  C   UNL     1       4.832   3.965  18.563  0.00  0.00    +0.000 C 
ATOM     23  O   UNL     1       5.221   3.972  19.729  0.00  0.00    +0.000 OA
ATOM     24  N   UNL     1       5.296   4.802  17.554  0.00  0.00    +0.000 N 
ATOM     25  C   UNL     1       6.318   5.706  17.607  0.00  0.00    +0.000 C 
ATOM     26  N   UNL     1       6.317   6.702  16.796  0.00  0.00    +0.000 NA
ATOM     27  C   UNL     1       7.509   7.537  17.050  0.00  0.00    +0.000 C 
ATOM     28  C   UNL     1       8.050   7.272  18.448  0.00  0.00    +0.000 C 
ATOM     29  S   UNL     1       7.636   5.544  18.713  0.00  0.00    +0.000 S 
ATOM     30  H   UNL     1       4.691   4.949  16.754  0.00  0.00    +0.000 HD
ENDBRANCH  21  22
ENDBRANCH  20  21
ENDBRANCH   5  20
TORSDOF 7
ENDMDL
MODEL 5
REMARK VINA RESULT:      -7.0      4.438      8.996
REMARK  Name = 
REMARK  8 active torsions:
REMARK  status: ('A' for Active; 'I' for Inactive)
REMARK    1  A    between atoms: C_1  and  C_2
REMARK    2  A    between atoms: C_2  and  N_3
REMARK    3  A    between atoms: C_4  and  C_5
REMARK    4  A    between atoms: C_5  and  C_6
REMARK    5  A    between atoms: N_8  and  C_9
REMARK    6  A    between atoms: C_18  and  S_19
REMARK    7  A    between atoms: S_19  and  C_20
REMARK    8  A    between atoms: C_20  and  C_21
REMARK                            x       y       z     vdW  Elec       q    Type
REMARK                         _______ _______ _______ _____ _____    ______ ____
ROOT
ATOM      1  N   UNL     1       2.037   4.749  19.988  0.00  0.00    +0.000 N 
ATOM      2  C   UNL     1       2.014   6.133  19.803  0.00  0.00    +0.000 A 
ATOM      3  N   UNL     1       2.059   6.382  18.507  0.00  0.00    +0.000 NA
ATOM      4  N   UNL     1       2.113   5.196  17.834  0.00  0.00    +0.000 NA
ATOM      5  C   UNL     1       2.055   4.228  18.716  0.00  0.00    +0.000 A 
ENDROOT
BRANCH   1   7
ATOM      6  C   UNL     1       1.367   2.785  21.521  0.00  0.00    +0.000 C 
ATOM      7  C   UNL     1       2.097   4.100  21.285  0.00  0.00    +0.000 C 
ENDBRANCH   1   7
BRANCH   2   8
ATOM      8  C   UNL     1       2.109   7.211  20.836  0.00  0.00    +0.000 C 
BRANCH   8   9
ATOM      9  C   UNL     1       1.037   8.277  20.741  0.00  0.00    +0.000 C 
ATOM     10  O   UNL     1       0.106   8.264  21.548  0.00  0.00    +0.000 OA
ATOM     11  N   UNL     1       1.212   9.228  19.749  0.00  0.00    +0.000 N 
ATOM     12  H   UNL     1       1.878   9.039  19.003  0.00  0.00    +0.000 HD
BRANCH  11  13
ATOM     13  C   UNL     1       0.440  10.412  19.601  0.00  0.00    +0.000 A 
ATOM     14  C   UNL     1       0.487  11.482  20.495  0.00  0.00    +0.000 A 
ATOM     15  C   UNL     1      -0.296  12.627  20.298  0.00  0.00    +0.000 A 
ATOM     16  C   UNL     1      -1.134  12.724  19.191  0.00  0.00    +0.000 A 
ATOM     17  C   UNL     1      -1.182  11.675  18.274  0.00  0.00    +0.000 A 
ATOM     18  C   UNL     1      -0.392  10.540  18.481  0.00  0.00    +0.000 A 
ATOM     19  F   UNL     1      -0.459   9.544  17.579  0.00  0.00    +0.000 F 
ENDBRANCH  11  13
ENDBRANCH   8   9
ENDBRANCH   2   8
BRANCH   5  20
ATOM     20  S   UNL     1       1.986   2.559  18.270  0.00  0.00    +0.000 S 
BRANCH  20  21
ATOM     21  C   UNL     1       3.734   2.111  18.102  0.00  0.00    +0.000 C 
BRANCH  21  22
ATOM     22  C   UNL     1       4.550   3.286  17.600  0.00  0.00    +0.000 C 
ATOM     23  O   UNL     1       4.536   3.619  16.418  0.00  0.00    +0.000 OA
ATOM     24  N   UNL     1       5.343   3.860  18.589  0.00  0.00    +0.000 N 
ATOM     25  C   UNL     1       6.167   4.943  18.490  0.00  0.00    +0.000 C 
ATOM     26  N   UNL     1       7.155   5.056  19.304  0.00  0.00    +0.000 NA
ATOM     27  C   UNL     1       7.899   6.295  18.997  0.00  0.00    +0.000 C 
ATOM     28  C   UNL     1       7.602   6.748  17.574  0.00  0.00    +0.000 C 
ATOM     29  S   UNL     1       5.913   6.192  17.323  0.00  0.00    +0.000 S 
ATOM     30  H   UNL     1       5.530   3.305  19.417  0.00  0.00    +0.000 HD
ENDBRANCH  21  22
ENDBRANCH  20  21
ENDBRANCH   5  20
TORSDOF 7
ENDMDL
MODEL 6
REMARK VINA RESULT:      -7.0      7.859      9.775
REMARK  Name = 
REMARK  8 active torsions:
REMARK  status: ('A' for Active; 'I' for Inactive)
REMARK    1  A    between atoms: C_1  and  C_2
REMARK    2  A    between atoms: C_2  and  N_3
REMARK    3  A    between atoms: C_4  and  C_5
REMARK    4  A    between atoms: C_5  and  C_6
REMARK    5  A    between atoms: N_8  and  C_9
REMARK    6  A    between atoms: C_18  and  S_19
REMARK    7  A    between atoms: S_19  and  C_20
REMARK    8  A    between atoms: C_20  and  C_21
REMARK                            x       y       z     vdW  Elec       q    Type
REMARK                         _______ _______ _______ _____ _____    ______ ____
ROOT
ATOM      1  N   UNL     1       6.976   6.590  17.246  0.00  0.00    +0.000 N 
ATOM      2  C   UNL     1       7.035   5.359  17.903  0.00  0.00    +0.000 A 
ATOM      3  N   UNL     1       7.843   5.477  18.942  0.00  0.00    +0.000 NA
ATOM      4  N   UNL     1       8.319   6.756  18.983  0.00  0.00    +0.000 NA
ATOM      5  C   UNL     1       7.767   7.425  18.000  0.00  0.00    +0.000 A 
ENDROOT
BRANCH   1   7
ATOM      6  C   UNL     1       4.742   6.898  15.994  0.00  0.00    +0.000 C 
ATOM      7  C   UNL     1       6.262   6.818  16.004  0.00  0.00    +0.000 C 
ENDBRANCH   1   7
BRANCH   2   8
ATOM      8  C   UNL     1       6.464   4.045  17.471  0.00  0.00    +0.000 C 
BRANCH   8   9
ATOM      9  C   UNL     1       5.036   3.798  17.909  0.00  0.00    +0.000 C 
ATOM     10  O   UNL     1       4.270   3.205  17.147  0.00  0.00    +0.000 OA
ATOM     11  N   UNL     1       4.705   4.240  19.180  0.00  0.00    +0.000 N 
ATOM     12  H   UNL     1       5.324   4.902  19.643  0.00  0.00    +0.000 HD
BRANCH  11  13
ATOM     13  C   UNL     1       3.491   3.950  19.859  0.00  0.00    +0.000 A 
ATOM     14  C   UNL     1       2.349   4.748  19.776  0.00  0.00    +0.000 A 
ATOM     15  C   UNL     1       1.178   4.413  20.467  0.00  0.00    +0.000 A 
ATOM     16  C   UNL     1       1.127   3.261  21.248  0.00  0.00    +0.000 A 
ATOM     17  C   UNL     1       2.250   2.438  21.329  0.00  0.00    +0.000 A 
ATOM     18  C   UNL     1       3.411   2.784  20.631  0.00  0.00    +0.000 A 
ATOM     19  F   UNL     1       4.478   1.970  20.728  0.00  0.00    +0.000 F 
ENDBRANCH  11  13
ENDBRANCH   8   9
ENDBRANCH   2   8
BRANCH   5  20
ATOM     20  S   UNL     1       8.020   9.118  17.763  0.00  0.00    +0.000 S 
BRANCH  20  21
ATOM     21  C   UNL     1       9.174   9.546  19.093  0.00  0.00    +0.000 C 
BRANCH  21  22
ATOM     22  C   UNL     1       9.713  10.951  18.913  0.00  0.00    +0.000 C 
ATOM     23  O   UNL     1      10.860  11.246  19.239  0.00  0.00    +0.000 OA
ATOM     24  N   UNL     1       8.759  11.842  18.431  0.00  0.00    +0.000 N 
ATOM     25  C   UNL     1       8.913  13.163  18.126  0.00  0.00    +0.000 C 
ATOM     26  N   UNL     1       7.887  13.937  18.156  0.00  0.00    +0.000 NA
ATOM     27  C   UNL     1       8.304  15.310  17.801  0.00  0.00    +0.000 C 
ATOM     28  C   UNL     1       9.802  15.477  18.013  0.00  0.00    +0.000 C 
ATOM     29  S   UNL     1      10.439  13.834  17.670  0.00  0.00    +0.000 S 
ATOM     30  H   UNL     1       7.785  11.577  18.522  0.00  0.00    +0.000 HD
ENDBRANCH  21  22
ENDBRANCH  20  21
ENDBRANCH   5  20
TORSDOF 7
ENDMDL
MODEL 7
REMARK VINA RESULT:      -6.9      4.132      6.088
REMARK  Name = 
REMARK  8 active torsions:
REMARK  status: ('A' for Active; 'I' for Inactive)
REMARK    1  A    between atoms: C_1  and  C_2
REMARK    2  A    between atoms: C_2  and  N_3
REMARK    3  A    between atoms: C_4  and  C_5
REMARK    4  A    between atoms: C_5  and  C_6
REMARK    5  A    between atoms: N_8  and  C_9
REMARK    6  A    between atoms: C_18  and  S_19
REMARK    7  A    between atoms: S_19  and  C_20
REMARK    8  A    between atoms: C_20  and  C_21
REMARK                            x       y       z     vdW  Elec       q    Type
REMARK                         _______ _______ _______ _____ _____    ______ ____
ROOT
ATOM      1  N   UNL     1       2.579   6.094  19.564  0.00  0.00    +0.000 N 
ATOM      2  C   UNL     1       3.435   5.689  18.538  0.00  0.00    +0.000 A 
ATOM      3  N   UNL     1       3.614   6.707  17.716  0.00  0.00    +0.000 NA
ATOM      4  N   UNL     1       2.894   7.772  18.173  0.00  0.00    +0.000 NA
ATOM      5  C   UNL     1       2.316   7.418  19.295  0.00  0.00    +0.000 A 
ENDROOT
BRANCH   1   7
ATOM      6  C   UNL     1       1.004   4.184  20.288  0.00  0.00    +0.000 C 
ATOM      7  C   UNL     1       2.078   5.215  20.604  0.00  0.00    +0.000 C 
ENDBRANCH   1   7
BRANCH   2   8
ATOM      8  C   UNL     1       3.954   4.316  18.248  0.00  0.00    +0.000 C 
BRANCH   8   9
ATOM      9  C   UNL     1       5.071   4.262  17.226  0.00  0.00    +0.000 C 
ATOM     10  O   UNL     1       6.180   3.851  17.572  0.00  0.00    +0.000 OA
ATOM     11  N   UNL     1       4.738   4.657  15.941  0.00  0.00    +0.000 N 
ATOM     12  H   UNL     1       3.876   5.180  15.798  0.00  0.00    +0.000 HD
BRANCH  11  13
ATOM     13  C   UNL     1       5.566   4.510  14.796  0.00  0.00    +0.000 A 
ATOM     14  C   UNL     1       5.242   3.702  13.705  0.00  0.00    +0.000 A 
ATOM     15  C   UNL     1       6.097   3.596  12.601  0.00  0.00    +0.000 A 
ATOM     16  C   UNL     1       7.291   4.311  12.565  0.00  0.00    +0.000 A 
ATOM     17  C   UNL     1       7.626   5.140  13.634  0.00  0.00    +0.000 A 
ATOM     18  C   UNL     1       6.761   5.239  14.729  0.00  0.00    +0.000 A 
ATOM     19  F   UNL     1       7.110   6.048  15.746  0.00  0.00    +0.000 F 
ENDBRANCH  11  13
ENDBRANCH   8   9
ENDBRANCH   2   8
BRANCH   5  20
ATOM     20  S   UNL     1       1.394   8.515  20.261  0.00  0.00    +0.000 S 
BRANCH  20  21
ATOM     21  C   UNL     1       1.157   9.929  19.152  0.00  0.00    +0.000 C 
BRANCH  21  22
ATOM     22  C   UNL     1      -0.312  10.285  19.033  0.00  0.00    +0.000 C 
ATOM     23  O   UNL     1      -1.019  10.435  20.027  0.00  0.00    +0.000 OA
ATOM     24  N   UNL     1      -0.754  10.336  17.715  0.00  0.00    +0.000 N 
ATOM     25  C   UNL     1      -1.997  10.655  17.251  0.00  0.00    +0.000 C 
ATOM     26  N   UNL     1      -2.373  10.209  16.106  0.00  0.00    +0.000 NA
ATOM     27  C   UNL     1      -3.747  10.678  15.829  0.00  0.00    +0.000 C 
ATOM     28  C   UNL     1      -4.440  11.073  17.125  0.00  0.00    +0.000 C 
ATOM     29  S   UNL     1      -3.081  11.667  18.139  0.00  0.00    +0.000 S 
ATOM     30  H   UNL     1      -0.187   9.871  17.014  0.00  0.00    +0.000 HD
ENDBRANCH  21  22
ENDBRANCH  20  21
ENDBRANCH   5  20
TORSDOF 7
ENDMDL
MODEL 8
REMARK VINA RESULT:      -6.9      4.455      9.081
REMARK  Name = 
REMARK  8 active torsions:
REMARK  status: ('A' for Active; 'I' for Inactive)
REMARK    1  A    between atoms: C_1  and  C_2
REMARK    2  A    between atoms: C_2  and  N_3
REMARK    3  A    between atoms: C_4  and  C_5
REMARK    4  A    between atoms: C_5  and  C_6
REMARK    5  A    between atoms: N_8  and  C_9
REMARK    6  A    between atoms: C_18  and  S_19
REMARK    7  A    between atoms: S_19  and  C_20
REMARK    8  A    between atoms: C_20  and  C_21
REMARK                            x       y       z     vdW  Elec       q    Type
REMARK                         _______ _______ _______ _____ _____    ______ ____
ROOT
ATOM      1  N   UNL     1       1.859   4.925  19.957  0.00  0.00    +0.000 N 
ATOM      2  C   UNL     1       1.994   6.312  19.877  0.00  0.00    +0.000 A 
ATOM      3  N   UNL     1       2.269   6.635  18.627  0.00  0.00    +0.000 NA
ATOM      4  N   UNL     1       2.321   5.493  17.880  0.00  0.00    +0.000 NA
ATOM      5  C   UNL     1       2.032   4.484  18.666  0.00  0.00    +0.000 A 
ENDROOT
BRANCH   1   7
ATOM      6  C   UNL     1       2.488   2.965  21.512  0.00  0.00    +0.000 C 
ATOM      7  C   UNL     1       1.649   4.195  21.193  0.00  0.00    +0.000 C 
ENDBRANCH   1   7
BRANCH   2   8
ATOM      8  C   UNL     1       2.021   7.310  20.992  0.00  0.00    +0.000 C 
BRANCH   8   9
ATOM      9  C   UNL     1       0.762   8.139  21.133  0.00  0.00    +0.000 C 
ATOM     10  O   UNL     1      -0.328   7.568  21.196  0.00  0.00    +0.000 OA
ATOM     11  N   UNL     1       0.944   9.510  21.217  0.00  0.00    +0.000 N 
ATOM     12  H   UNL     1       1.842   9.902  20.940  0.00  0.00    +0.000 HD
BRANCH  11  13
ATOM     13  C   UNL     1      -0.068  10.454  21.538  0.00  0.00    +0.000 A 
ATOM     14  C   UNL     1      -0.608  11.352  20.615  0.00  0.00    +0.000 A 
ATOM     15  C   UNL     1      -1.607  12.260  20.987  0.00  0.00    +0.000 A 
ATOM     16  C   UNL     1      -2.092  12.279  22.292  0.00  0.00    +0.000 A 
ATOM     17  C   UNL     1      -1.582  11.377  23.224  0.00  0.00    +0.000 A 
ATOM     18  C   UNL     1      -0.588  10.473  22.839  0.00  0.00    +0.000 A 
ATOM     19  F   UNL     1      -0.115   9.614  23.761  0.00  0.00    +0.000 F 
ENDBRANCH  11  13
ENDBRANCH   8   9
ENDBRANCH   2   8
BRANCH   5  20
ATOM     20  S   UNL     1       1.882   2.862  18.088  0.00  0.00    +0.000 S 
BRANCH  20  21
ATOM     21  C   UNL     1       3.606   2.330  17.917  0.00  0.00    +0.000 C 
BRANCH  21  22
ATOM     22  C   UNL     1       4.482   3.473  17.445  0.00  0.00    +0.000 C 
ATOM     23  O   UNL     1       4.517   3.810  16.264  0.00  0.00    +0.000 OA
ATOM     24  N   UNL     1       5.267   4.012  18.459  0.00  0.00    +0.000 N 
ATOM     25  C   UNL     1       6.136   5.061  18.390  0.00  0.00    +0.000 C 
ATOM     26  N   UNL     1       7.102   5.132  19.234  0.00  0.00    +0.000 NA
ATOM     27  C   UNL     1       7.905   6.341  18.954  0.00  0.00    +0.000 C 
ATOM     28  C   UNL     1       7.670   6.810  17.525  0.00  0.00    +0.000 C 
ATOM     29  S   UNL     1       5.968   6.323  17.220  0.00  0.00    +0.000 S 
ATOM     30  H   UNL     1       5.407   3.448  19.290  0.00  0.00    +0.000 HD
ENDBRANCH  21  22
ENDBRANCH  20  21
ENDBRANCH   5  20
TORSDOF 7
ENDMDL
MODEL 9
REMARK VINA RESULT:      -6.9      7.817     10.047
REMARK  Name = 
REMARK  8 active torsions:
REMARK  status: ('A' for Active; 'I' for Inactive)
REMARK    1  A    between atoms: C_1  and  C_2
REMARK    2  A    between atoms: C_2  and  N_3
REMARK    3  A    between atoms: C_4  and  C_5
REMARK    4  A    between atoms: C_5  and  C_6
REMARK    5  A    between atoms: N_8  and  C_9
REMARK    6  A    between atoms: C_18  and  S_19
REMARK    7  A    between atoms: S_19  and  C_20
REMARK    8  A    between atoms: C_20  and  C_21
REMARK                            x       y       z     vdW  Elec       q    Type
REMARK                         _______ _______ _______ _____ _____    ______ ____
ROOT
ATOM      1  N   UNL     1       6.932   6.593  17.230  0.00  0.00    +0.000 N 
ATOM      2  C   UNL     1       6.973   5.335  17.834  0.00  0.00    +0.000 A 
ATOM      3  N   UNL     1       7.779   5.398  18.878  0.00  0.00    +0.000 NA
ATOM      4  N   UNL     1       8.272   6.667  18.975  0.00  0.00    +0.000 NA
ATOM      5  C   UNL     1       7.732   7.385  18.020  0.00  0.00    +0.000 A 
ENDROOT
BRANCH   1   7
ATOM      6  C   UNL     1       4.703   6.890  15.966  0.00  0.00    +0.000 C 
ATOM      7  C   UNL     1       6.224   6.884  15.997  0.00  0.00    +0.000 C 
ENDBRANCH   1   7
BRANCH   2   8
ATOM      8  C   UNL     1       6.385   4.049  17.345  0.00  0.00    +0.000 C 
BRANCH   8   9
ATOM      9  C   UNL     1       4.974   3.773  17.821  0.00  0.00    +0.000 C 
ATOM     10  O   UNL     1       4.179   3.228  17.054  0.00  0.00    +0.000 OA
ATOM     11  N   UNL     1       4.693   4.133  19.128  0.00  0.00    +0.000 N 
ATOM     12  H   UNL     1       5.330   4.765  19.609  0.00  0.00    +0.000 HD
BRANCH  11  13
ATOM     13  C   UNL     1       3.506   3.800  19.835  0.00  0.00    +0.000 A 
ATOM     14  C   UNL     1       3.413   2.734  20.731  0.00  0.00    +0.000 A 
ATOM     15  C   UNL     1       2.217   2.453  21.402  0.00  0.00    +0.000 A 
ATOM     16  C   UNL     1       1.091   3.244  21.195  0.00  0.00    +0.000 A 
ATOM     17  C   UNL     1       1.166   4.327  20.320  0.00  0.00    +0.000 A 
ATOM     18  C   UNL     1       2.368   4.599  19.659  0.00  0.00    +0.000 A 
ATOM     19  F   UNL     1       2.411   5.650  18.821  0.00  0.00    +0.000 F 
ENDBRANCH  11  13
ENDBRANCH   8   9
ENDBRANCH   2   8
BRANCH   5  20
ATOM     20  S   UNL     1       8.009   9.083  17.856  0.00  0.00    +0.000 S 
BRANCH  20  21
ATOM     21  C   UNL     1       9.203   9.429  19.175  0.00  0.00    +0.000 C 
BRANCH  21  22
ATOM     22  C   UNL     1       9.456  10.918  19.301  0.00  0.00    +0.000 C 
ATOM     23  O   UNL     1       8.961  11.578  20.212  0.00  0.00    +0.000 OA
ATOM     24  N   UNL     1      10.217  11.431  18.256  0.00  0.00    +0.000 N 
ATOM     25  C   UNL     1      10.653  12.712  18.077  0.00  0.00    +0.000 C 
ATOM     26  N   UNL     1      10.914  13.124  16.888  0.00  0.00    +0.000 NA
ATOM     27  C   UNL     1      11.356  14.533  16.948  0.00  0.00    +0.000 C 
ATOM     28  C   UNL     1      10.890  15.176  18.247  0.00  0.00    +0.000 C 
ATOM     29  S   UNL     1      10.896  13.798  19.399  0.00  0.00    +0.000 S 
ATOM     30  H   UNL     1      10.278  10.879  17.408  0.00  0.00    +0.000 HD
ENDBRANCH  21  22
ENDBRANCH  20  21
ENDBRANCH   5  20
TORSDOF 7
ENDMDL
