MODEL 1
REMARK VINA RESULT:      -6.8      0.000      0.000
REMARK  Name = 
REMARK  8 active torsions:
REMARK  status: ('A' for Active; 'I' for Inactive)
REMARK    1  A    between atoms: C_1  and  O_2
REMARK    2  A    between atoms: O_2  and  C_3
REMARK    3  A    between atoms: C_6  and  N_7
REMARK    4  A    between atoms: N_7  and  C_12
REMARK    5  A    between atoms: C_8  and  C_10
REMARK    6  A    between atoms: C_12  and  C_13
REMARK    7  A    between atoms: N_15  and  C_16
REMARK    8  A    between atoms: C_16  and  C_17
REMARK                            x       y       z     vdW  Elec       q    Type
REMARK                         _______ _______ _______ _____ _____    ______ ____
ROOT
ATOM      1  C   UNL     1       0.008  10.384  19.632  0.00  0.00    +0.000 C 
ATOM      2  C   UNL     1      -0.639   9.074  20.271  0.00  0.00    +0.000 C 
ATOM      3  C   UNL     1      -0.753   8.881  21.781  0.00  0.00    +0.000 C 
ATOM      4  C   UNL     1       0.405   9.483  22.538  0.00  0.00    +0.000 C 
ATOM      5  F   UNL     1       1.525   8.744  22.326  0.00  0.00    +0.000 F 
ATOM      6  F   UNL     1       0.155   9.448  23.865  0.00  0.00    +0.000 F 
ATOM      7  C   UNL     1       0.658  10.894  22.080  0.00  0.00    +0.000 C 
ATOM      8  C   UNL     1       1.113  10.892  20.610  0.00  0.00    +0.000 C 
ENDROOT
BRANCH   1   9
ATOM      9  C   UNL     1       0.209   9.764  18.195  0.00  0.00    +0.000 C 
ATOM     10  O   UNL     1      -0.698   9.783  17.351  0.00  0.00    +0.000 OA
ATOM     11  N   UNL     1       1.305   9.078  17.814  0.00  0.00    +0.000 N 
ATOM     12  H   UNL     1       1.201   8.713  16.872  0.00  0.00    +0.000 HD
BRANCH  11  13
ATOM     13  C   UNL     1       2.456   8.633  18.555  0.00  0.00    +0.000 C 
BRANCH  13  14
ATOM     14  C   UNL     1       2.325   7.173  18.836  0.00  0.00    +0.000 A 
ATOM     15  C   UNL     1       2.362   6.241  17.793  0.00  0.00    +0.000 A 
ATOM     16  C   UNL     1       2.217   4.886  18.071  0.00  0.00    +0.000 A 
ATOM     17  C   UNL     1       2.026   4.453  19.377  0.00  0.00    +0.000 A 
ATOM     18  C   UNL     1       1.966   5.385  20.422  0.00  0.00    +0.000 A 
ATOM     19  C   UNL     1       2.110   6.736  20.150  0.00  0.00    +0.000 A 
ENDBRANCH  13  14
ENDBRANCH  11  13
ENDBRANCH   1   9
BRANCH   1  20
ATOM     20  N   UNL     1      -0.682  11.686  19.213  0.00  0.00    +0.000 N 
ATOM     21  C   UNL     1       0.128  12.776  18.661  0.00  0.00    +0.000 C 
ATOM     22  O   UNL     1      -0.346  13.867  18.333  0.00  0.00    +0.000 OA
BRANCH  20  26
ATOM     23  C   UNL     1      -4.864  12.494  19.987  0.00  0.00    +0.000 A 
ATOM     24  C   UNL     1      -3.881  12.797  20.930  0.00  0.00    +0.000 A 
ATOM     25  C   UNL     1      -2.529  12.498  20.699  0.00  0.00    +0.000 A 
ATOM     26  C   UNL     1      -2.085  11.923  19.494  0.00  0.00    +0.000 A 
ATOM     27  C   UNL     1      -3.083  11.663  18.565  0.00  0.00    +0.000 A 
ATOM     28  C   UNL     1      -4.453  11.916  18.790  0.00  0.00    +0.000 A 
ATOM     29 CL   UNL     1      -5.492  11.528  17.465  0.00  0.00    +0.000 Cl
BRANCH  23  31
ATOM     30  C   UNL     1      -6.951  11.940  21.000  0.00  0.00    +0.000 C 
ATOM     31  O   UNL     1      -6.112  12.896  20.366  0.00  0.00    +0.000 OA
ENDBRANCH  23  31
ENDBRANCH  20  26
BRANCH  21  32
ATOM     32  C   UNL     1       1.649  12.544  18.407  0.00  0.00    +0.000 C 
ATOM     33 CL   UNL     1       2.573  14.073  18.408  0.00  0.00    +0.000 Cl
ENDBRANCH  21  32
ENDBRANCH   1  20
TORSDOF 7
ENDMDL
MODEL 2
REMARK VINA RESULT:      -6.7      0.617      1.045
REMARK  Name = 
REMARK  8 active torsions:
REMARK  status: ('A' for Active; 'I' for Inactive)
REMARK    1  A    between atoms: C_1  and  O_2
REMARK    2  A    between atoms: O_2  and  C_3
REMARK    3  A    between atoms: C_6  and  N_7
REMARK    4  A    between atoms: N_7  and  C_12
REMARK    5  A    between atoms: C_8  and  C_10
REMARK    6  A    between atoms: C_12  and  C_13
REMARK    7  A    between atoms: N_15  and  C_16
REMARK    8  A    between atoms: C_16  and  C_17
REMARK                            x       y       z     vdW  Elec       q    Type
REMARK                         _______ _______ _______ _____ _____    ______ ____
ROOT
ATOM      1  C   UNL     1      -0.072  10.549  19.572  0.00  0.00    +0.000 C 
ATOM      2  C   UNL     1      -0.662   9.211  20.207  0.00  0.00    +0.000 C 
ATOM      3  C   UNL     1      -0.693   8.976  21.715  0.00  0.00    +0.000 C 
ATOM      4  C   UNL     1       0.492   9.579  22.428  0.00  0.00    +0.000 C 
ATOM      5  F   UNL     1       1.612   8.868  22.137  0.00  0.00    +0.000 F 
ATOM      6  F   UNL     1       0.313   9.505  23.764  0.00  0.00    +0.000 F 
ATOM      7  C   UNL     1       0.696  11.006  21.996  0.00  0.00    +0.000 C 
ATOM      8  C   UNL     1       1.074  11.052  20.505  0.00  0.00    +0.000 C 
ENDROOT
BRANCH   1   9
ATOM      9  C   UNL     1       0.064   9.971  18.110  0.00  0.00    +0.000 C 
ATOM     10  O   UNL     1      -0.928   9.813  17.384  0.00  0.00    +0.000 OA
ATOM     11  N   UNL     1       1.214   9.505  17.586  0.00  0.00    +0.000 N 
ATOM     12  H   UNL     1       1.066   9.122  16.657  0.00  0.00    +0.000 HD
BRANCH  11  13
ATOM     13  C   UNL     1       2.511   9.291  18.172  0.00  0.00    +0.000 C 
BRANCH  13  14
ATOM     14  C   UNL     1       2.727   7.827  18.367  0.00  0.00    +0.000 A 
ATOM     15  C   UNL     1       2.205   7.173  19.488  0.00  0.00    +0.000 A 
ATOM     16  C   UNL     1       2.436   5.813  19.664  0.00  0.00    +0.000 A 
ATOM     17  C   UNL     1       3.190   5.101  18.740  0.00  0.00    +0.000 A 
ATOM     18  C   UNL     1       3.734   5.758  17.627  0.00  0.00    +0.000 A 
ATOM     19  C   UNL     1       3.506   7.113  17.447  0.00  0.00    +0.000 A 
ENDBRANCH  13  14
ENDBRANCH  11  13
ENDBRANCH   1   9
BRANCH   1  20
ATOM     20  N   UNL     1      -0.806  11.849  19.226  0.00  0.00    +0.000 N 
ATOM     21  C   UNL     1      -0.037  12.986  18.712  0.00  0.00    +0.000 C 
ATOM     22  O   UNL     1      -0.546  14.077  18.443  0.00  0.00    +0.000 OA
BRANCH  20  26
ATOM     23  C   UNL     1      -4.996  12.496  20.099  0.00  0.00    +0.000 A 
ATOM     24  C   UNL     1      -4.005  12.819  21.027  0.00  0.00    +0.000 A 
ATOM     25  C   UNL     1      -2.648  12.571  20.763  0.00  0.00    +0.000 A 
ATOM     26  C   UNL     1      -2.210  12.032  19.540  0.00  0.00    +0.000 A 
ATOM     27  C   UNL     1      -3.218  11.753  18.627  0.00  0.00    +0.000 A 
ATOM     28  C   UNL     1      -4.590  11.953  18.885  0.00  0.00    +0.000 A 
ATOM     29 CL   UNL     1      -5.644  11.551  17.576  0.00  0.00    +0.000 Cl
BRANCH  23  31
ATOM     30  C   UNL     1      -6.451  13.067  21.901  0.00  0.00    +0.000 C 
ATOM     31  O   UNL     1      -6.249  12.848  20.512  0.00  0.00    +0.000 OA
ENDBRANCH  23  31
ENDBRANCH  20  26
BRANCH  21  32
ATOM     32  C   UNL     1       1.485  12.810  18.423  0.00  0.00    +0.000 C 
ATOM     33 CL   UNL     1       2.341  14.377  18.339  0.00  0.00    +0.000 Cl
ENDBRANCH  21  32
ENDBRANCH   1  20
TORSDOF 7
ENDMDL
MODEL 3
REMARK VINA RESULT:      -6.6      1.540      1.965
REMARK  Name = 
REMARK  8 active torsions:
REMARK  status: ('A' for Active; 'I' for Inactive)
REMARK    1  A    between atoms: C_1  and  O_2
REMARK    2  A    between atoms: O_2  and  C_3
REMARK    3  A    between atoms: C_6  and  N_7
REMARK    4  A    between atoms: N_7  and  C_12
REMARK    5  A    between atoms: C_8  and  C_10
REMARK    6  A    between atoms: C_12  and  C_13
REMARK    7  A    between atoms: N_15  and  C_16
REMARK    8  A    between atoms: C_16  and  C_17
REMARK                            x       y       z     vdW  Elec       q    Type
REMARK                         _______ _______ _______ _____ _____    ______ ____
ROOT
ATOM      1  C   UNL     1       0.617  10.169  19.751  0.00  0.00    +0.000 C 
ATOM      2  C   UNL     1      -0.059   8.843  20.322  0.00  0.00    +0.000 C 
ATOM      3  C   UNL     1      -0.738   8.805  21.689  0.00  0.00    +0.000 C 
ATOM      4  C   UNL     1      -0.063   9.692  22.705  0.00  0.00    +0.000 C 
ATOM      5  F   UNL     1       1.133   9.154  23.060  0.00  0.00    +0.000 F 
ATOM      6  F   UNL     1      -0.812   9.763  23.826  0.00  0.00    +0.000 F 
ATOM      7  C   UNL     1       0.171  11.064  22.133  0.00  0.00    +0.000 C 
ATOM      8  C   UNL     1       1.169  10.981  20.965  0.00  0.00    +0.000 C 
ENDROOT
BRANCH   1   9
ATOM      9  C   UNL     1       1.450   9.438  18.627  0.00  0.00    +0.000 C 
ATOM     10  O   UNL     1       1.403   9.810  17.445  0.00  0.00    +0.000 OA
ATOM     11  N   UNL     1       2.164   8.314  18.826  0.00  0.00    +0.000 N 
ATOM     12  H   UNL     1       2.569   7.977  17.958  0.00  0.00    +0.000 HD
BRANCH  11  13
ATOM     13  C   UNL     1       2.278   7.447  19.970  0.00  0.00    +0.000 C 
BRANCH  13  14
ATOM     14  C   UNL     1       1.987   6.043  19.554  0.00  0.00    +0.000 A 
ATOM     15  C   UNL     1       1.542   5.102  20.488  0.00  0.00    +0.000 A 
ATOM     16  C   UNL     1       1.296   3.793  20.087  0.00  0.00    +0.000 A 
ATOM     17  C   UNL     1       1.501   3.411  18.768  0.00  0.00    +0.000 A 
ATOM     18  C   UNL     1       1.969   4.346  17.834  0.00  0.00    +0.000 A 
ATOM     19  C   UNL     1       2.214   5.651  18.228  0.00  0.00    +0.000 A 
ENDBRANCH  13  14
ENDBRANCH  11  13
ENDBRANCH   1   9
BRANCH   1  20
ATOM     20  N   UNL     1      -0.008  11.265  18.882  0.00  0.00    +0.000 N 
ATOM     21  C   UNL     1       0.750  12.493  18.630  0.00  0.00    +0.000 C 
ATOM     22  O   UNL     1       0.305  13.437  17.971  0.00  0.00    +0.000 OA
BRANCH  20  26
ATOM     23  C   UNL     1      -4.100  11.112  17.477  0.00  0.00    +0.000 A 
ATOM     24  C   UNL     1      -3.769  11.745  18.676  0.00  0.00    +0.000 A 
ATOM     25  C   UNL     1      -2.449  11.760  19.156  0.00  0.00    +0.000 A 
ATOM     26  C   UNL     1      -1.386  11.183  18.437  0.00  0.00    +0.000 A 
ATOM     27  C   UNL     1      -1.744  10.591  17.233  0.00  0.00    +0.000 A 
ATOM     28  C   UNL     1      -3.068  10.526  16.751  0.00  0.00    +0.000 A 
ATOM     29 CL   UNL     1      -3.247   9.757  15.214  0.00  0.00    +0.000 Cl
BRANCH  23  31
ATOM     30  C   UNL     1      -6.061  12.469  17.454  0.00  0.00    +0.000 C 
ATOM     31  O   UNL     1      -5.420  11.238  17.153  0.00  0.00    +0.000 OA
ENDBRANCH  23  31
ENDBRANCH  20  26
BRANCH  21  32
ATOM     32  C   UNL     1       2.215  12.608  19.153  0.00  0.00    +0.000 C 
ATOM     33 CL   UNL     1       3.141  13.872  18.294  0.00  0.00    +0.000 Cl
ENDBRANCH  21  32
ENDBRANCH   1  20
TORSDOF 7
ENDMDL
MODEL 4
REMARK VINA RESULT:      -6.6      1.018      1.571
REMARK  Name = 
REMARK  8 active torsions:
REMARK  status: ('A' for Active; 'I' for Inactive)
REMARK    1  A    between atoms: C_1  and  O_2
REMARK    2  A    between atoms: O_2  and  C_3
REMARK    3  A    between atoms: C_6  and  N_7
REMARK    4  A    between atoms: N_7  and  C_12
REMARK    5  A    between atoms: C_8  and  C_10
REMARK    6  A    between atoms: C_12  and  C_13
REMARK    7  A    between atoms: N_15  and  C_16
REMARK    8  A    between atoms: C_16  and  C_17
REMARK                            x       y       z     vdW  Elec       q    Type
REMARK                         _______ _______ _______ _____ _____    ______ ____
ROOT
ATOM      1  C   UNL     1      -0.022  10.457  19.646  0.00  0.00    +0.000 C 
ATOM      2  C   UNL     1      -0.692   9.159  20.285  0.00  0.00    +0.000 C 
ATOM      3  C   UNL     1      -0.798   8.964  21.795  0.00  0.00    +0.000 C 
ATOM      4  C   UNL     1       0.378   9.538  22.546  0.00  0.00    +0.000 C 
ATOM      5  F   UNL     1       1.480   8.776  22.322  0.00  0.00    +0.000 F 
ATOM      6  F   UNL     1       0.138   9.504  23.874  0.00  0.00    +0.000 F 
ATOM      7  C   UNL     1       0.657  10.944  22.089  0.00  0.00    +0.000 C 
ATOM      8  C   UNL     1       1.101  10.938  20.617  0.00  0.00    +0.000 C 
ENDROOT
BRANCH   1   9
ATOM      9  C   UNL     1       0.155   9.837  18.204  0.00  0.00    +0.000 C 
ATOM     10  O   UNL     1      -0.767   9.854  17.377  0.00  0.00    +0.000 OA
ATOM     11  N   UNL     1       1.245   9.154  17.804  0.00  0.00    +0.000 N 
ATOM     12  H   UNL     1       1.126   8.789  16.864  0.00  0.00    +0.000 HD
BRANCH  11  13
ATOM     13  C   UNL     1       2.410   8.712  18.524  0.00  0.00    +0.000 C 
BRANCH  13  14
ATOM     14  C   UNL     1       2.278   7.256  18.827  0.00  0.00    +0.000 A 
ATOM     15  C   UNL     1       2.069   6.818  20.139  0.00  0.00    +0.000 A 
ATOM     16  C   UNL     1       1.970   5.457  20.406  0.00  0.00    +0.000 A 
ATOM     17  C   UNL     1       2.089   4.529  19.379  0.00  0.00    +0.000 A 
ATOM     18  C   UNL     1       2.322   4.963  18.067  0.00  0.00    +0.000 A 
ATOM     19  C   UNL     1       2.420   6.318  17.797  0.00  0.00    +0.000 A 
ENDBRANCH  13  14
ENDBRANCH  11  13
ENDBRANCH   1   9
BRANCH   1  20
ATOM     20  N   UNL     1      -0.687  11.775  19.236  0.00  0.00    +0.000 N 
ATOM     21  C   UNL     1       0.145  12.858  18.706  0.00  0.00    +0.000 C 
ATOM     22  O   UNL     1      -0.308  13.961  18.387  0.00  0.00    +0.000 OA
BRANCH  20  26
ATOM     23  C   UNL     1      -4.877  12.435  20.101  0.00  0.00    +0.000 A 
ATOM     24  C   UNL     1      -4.462  11.941  18.864  0.00  0.00    +0.000 A 
ATOM     25  C   UNL     1      -3.101  11.766  18.565  0.00  0.00    +0.000 A 
ATOM     26  C   UNL     1      -2.089  12.031  19.506  0.00  0.00    +0.000 A 
ATOM     27  C   UNL     1      -2.537  12.490  20.737  0.00  0.00    +0.000 A 
ATOM     28  C   UNL     1      -3.895  12.714  21.046  0.00  0.00    +0.000 A 
ATOM     29 CL   UNL     1      -4.195  13.262  22.657  0.00  0.00    +0.000 Cl
BRANCH  23  31
ATOM     30  C   UNL     1      -6.918  11.316  20.618  0.00  0.00    +0.000 C 
ATOM     31  O   UNL     1      -6.235  12.497  20.224  0.00  0.00    +0.000 OA
ENDBRANCH  23  31
ENDBRANCH  20  26
BRANCH  21  32
ATOM     32  C   UNL     1       1.665  12.605  18.463  0.00  0.00    +0.000 C 
ATOM     33 CL   UNL     1       2.681  13.911  19.139  0.00  0.00    +0.000 Cl
ENDBRANCH  21  32
ENDBRANCH   1  20
TORSDOF 7
ENDMDL
MODEL 5
REMARK VINA RESULT:      -6.4      1.375      1.736
REMARK  Name = 
REMARK  8 active torsions:
REMARK  status: ('A' for Active; 'I' for Inactive)
REMARK    1  A    between atoms: C_1  and  O_2
REMARK    2  A    between atoms: O_2  and  C_3
REMARK    3  A    between atoms: C_6  and  N_7
REMARK    4  A    between atoms: N_7  and  C_12
REMARK    5  A    between atoms: C_8  and  C_10
REMARK    6  A    between atoms: C_12  and  C_13
REMARK    7  A    between atoms: N_15  and  C_16
REMARK    8  A    between atoms: C_16  and  C_17
REMARK                            x       y       z     vdW  Elec       q    Type
REMARK                         _______ _______ _______ _____ _____    ______ ____
ROOT
ATOM      1  C   UNL     1       0.527  10.139  19.757  0.00  0.00    +0.000 C 
ATOM      2  C   UNL     1      -0.135   8.801  20.318  0.00  0.00    +0.000 C 
ATOM      3  C   UNL     1      -0.730   8.719  21.721  0.00  0.00    +0.000 C 
ATOM      4  C   UNL     1       0.021   9.556  22.727  0.00  0.00    +0.000 C 
ATOM      5  F   UNL     1       1.228   8.988  22.986  0.00  0.00    +0.000 F 
ATOM      6  F   UNL     1      -0.657   9.593  23.894  0.00  0.00    +0.000 F 
ATOM      7  C   UNL     1       0.242  10.946  22.194  0.00  0.00    +0.000 C 
ATOM      8  C   UNL     1       1.165  10.895  20.965  0.00  0.00    +0.000 C 
ENDROOT
BRANCH   1   9
ATOM      9  C   UNL     1       1.277   9.441  18.556  0.00  0.00    +0.000 C 
ATOM     10  O   UNL     1       1.071   9.781  17.382  0.00  0.00    +0.000 OA
ATOM     11  N   UNL     1       2.086   8.373  18.689  0.00  0.00    +0.000 N 
ATOM     12  H   UNL     1       2.414   8.045  17.786  0.00  0.00    +0.000 HD
BRANCH  11  13
ATOM     13  C   UNL     1       2.390   7.543  19.825  0.00  0.00    +0.000 C 
BRANCH  13  14
ATOM     14  C   UNL     1       2.052   6.125  19.503  0.00  0.00    +0.000 A 
ATOM     15  C   UNL     1       2.156   5.649  18.191  0.00  0.00    +0.000 A 
ATOM     16  C   UNL     1       1.816   4.331  17.906  0.00  0.00    +0.000 A 
ATOM     17  C   UNL     1       1.364   3.487  18.912  0.00  0.00    +0.000 A 
ATOM     18  C   UNL     1       1.237   3.967  20.223  0.00  0.00    +0.000 A 
ATOM     19  C   UNL     1       1.575   5.279  20.512  0.00  0.00    +0.000 A 
ENDBRANCH  13  14
ENDBRANCH  11  13
ENDBRANCH   1   9
BRANCH   1  20
ATOM     20  N   UNL     1      -0.132  11.277  18.971  0.00  0.00    +0.000 N 
ATOM     21  C   UNL     1       0.660  12.464  18.638  0.00  0.00    +0.000 C 
ATOM     22  O   UNL     1       0.194  13.438  18.039  0.00  0.00    +0.000 OA
BRANCH  20  26
ATOM     23  C   UNL     1      -4.394  11.201  18.218  0.00  0.00    +0.000 A 
ATOM     24  C   UNL     1      -3.514  10.407  17.481  0.00  0.00    +0.000 A 
ATOM     25  C   UNL     1      -2.127  10.460  17.695  0.00  0.00    +0.000 A 
ATOM     26  C   UNL     1      -1.554  11.276  18.688  0.00  0.00    +0.000 A 
ATOM     27  C   UNL     1      -2.459  12.029  19.423  0.00  0.00    +0.000 A 
ATOM     28  C   UNL     1      -3.852  12.024  19.200  0.00  0.00    +0.000 A 
ATOM     29 CL   UNL     1      -4.765  13.029  20.268  0.00  0.00    +0.000 Cl
BRANCH  23  31
ATOM     30  C   UNL     1      -6.456  12.080  17.403  0.00  0.00    +0.000 C 
ATOM     31  O   UNL     1      -5.704  10.983  17.902  0.00  0.00    +0.000 OA
ENDBRANCH  23  31
ENDBRANCH  20  26
BRANCH  21  32
ATOM     32  C   UNL     1       2.179  12.493  18.988  0.00  0.00    +0.000 C 
ATOM     33 CL   UNL     1       3.034  13.834  18.174  0.00  0.00    +0.000 Cl
ENDBRANCH  21  32
ENDBRANCH   1  20
TORSDOF 7
ENDMDL
MODEL 6
REMARK VINA RESULT:      -6.4      0.780      1.055
REMARK  Name = 
REMARK  8 active torsions:
REMARK  status: ('A' for Active; 'I' for Inactive)
REMARK    1  A    between atoms: C_1  and  O_2
REMARK    2  A    between atoms: O_2  and  C_3
REMARK    3  A    between atoms: C_6  and  N_7
REMARK    4  A    between atoms: N_7  and  C_12
REMARK    5  A    between atoms: C_8  and  C_10
REMARK    6  A    between atoms: C_12  and  C_13
REMARK    7  A    between atoms: N_15  and  C_16
REMARK    8  A    between atoms: C_16  and  C_17
REMARK                            x       y       z     vdW  Elec       q    Type
REMARK                         _______ _______ _______ _____ _____    ______ ____
ROOT
ATOM      1  C   UNL     1       0.086  10.317  19.592  0.00  0.00    +0.000 C 
ATOM      2  C   UNL     1      -0.576   9.015  20.231  0.00  0.00    +0.000 C 
ATOM      3  C   UNL     1      -0.697   8.826  21.741  0.00  0.00    +0.000 C 
ATOM      4  C   UNL     1       0.465   9.418  22.501  0.00  0.00    +0.000 C 
ATOM      5  F   UNL     1       1.578   8.668  22.293  0.00  0.00    +0.000 F 
ATOM      6  F   UNL     1       0.211   9.388  23.827  0.00  0.00    +0.000 F 
ATOM      7  C   UNL     1       0.733  10.825  22.040  0.00  0.00    +0.000 C 
ATOM      8  C   UNL     1       1.193  10.816  20.572  0.00  0.00    +0.000 C 
ENDROOT
BRANCH   1   9
ATOM      9  C   UNL     1       0.285   9.692  18.156  0.00  0.00    +0.000 C 
ATOM     10  O   UNL     1      -0.639   9.663  17.330  0.00  0.00    +0.000 OA
ATOM     11  N   UNL     1       1.402   9.051  17.759  0.00  0.00    +0.000 N 
ATOM     12  H   UNL     1       1.296   8.673  16.823  0.00  0.00    +0.000 HD
BRANCH  11  13
ATOM     13  C   UNL     1       2.586   8.664  18.481  0.00  0.00    +0.000 C 
BRANCH  13  14
ATOM     14  C   UNL     1       2.980   7.283  18.074  0.00  0.00    +0.000 A 
ATOM     15  C   UNL     1       4.147   7.064  17.334  0.00  0.00    +0.000 A 
ATOM     16  C   UNL     1       4.487   5.773  16.946  0.00  0.00    +0.000 A 
ATOM     17  C   UNL     1       3.670   4.700  17.278  0.00  0.00    +0.000 A 
ATOM     18  C   UNL     1       2.488   4.918  17.999  0.00  0.00    +0.000 A 
ATOM     19  C   UNL     1       2.146   6.203  18.390  0.00  0.00    +0.000 A 
ENDBRANCH  13  14
ENDBRANCH  11  13
ENDBRANCH   1   9
BRANCH   1  20
ATOM     20  N   UNL     1      -0.591  11.625  19.168  0.00  0.00    +0.000 N 
ATOM     21  C   UNL     1       0.232  12.707  18.619  0.00  0.00    +0.000 C 
ATOM     22  O   UNL     1      -0.230  13.802  18.288  0.00  0.00    +0.000 OA
BRANCH  20  26
ATOM     23  C   UNL     1      -4.769  12.470  19.918  0.00  0.00    +0.000 A 
ATOM     24  C   UNL     1      -3.787  12.786  20.857  0.00  0.00    +0.000 A 
ATOM     25  C   UNL     1      -2.435  12.475  20.635  0.00  0.00    +0.000 A 
ATOM     26  C   UNL     1      -1.992  11.875  19.442  0.00  0.00    +0.000 A 
ATOM     27  C   UNL     1      -2.990  11.603  18.516  0.00  0.00    +0.000 A 
ATOM     28  C   UNL     1      -4.359  11.867  18.733  0.00  0.00    +0.000 A 
ATOM     29 CL   UNL     1      -5.398  11.461  17.414  0.00  0.00    +0.000 Cl
BRANCH  23  31
ATOM     30  C   UNL     1      -6.167  14.236  20.702  0.00  0.00    +0.000 C 
ATOM     31  O   UNL     1      -6.016  12.886  20.287  0.00  0.00    +0.000 OA
ENDBRANCH  23  31
ENDBRANCH  20  26
BRANCH  21  32
ATOM     32  C   UNL     1       1.752  12.461  18.373  0.00  0.00    +0.000 C 
ATOM     33 CL   UNL     1       2.721  13.945  18.599  0.00  0.00    +0.000 Cl
ENDBRANCH  21  32
ENDBRANCH   1  20
TORSDOF 7
ENDMDL
MODEL 7
REMARK VINA RESULT:      -6.3      3.151      4.317
REMARK  Name = 
REMARK  8 active torsions:
REMARK  status: ('A' for Active; 'I' for Inactive)
REMARK    1  A    between atoms: C_1  and  O_2
REMARK    2  A    between atoms: O_2  and  C_3
REMARK    3  A    between atoms: C_6  and  N_7
REMARK    4  A    between atoms: N_7  and  C_12
REMARK    5  A    between atoms: C_8  and  C_10
REMARK    6  A    between atoms: C_12  and  C_13
REMARK    7  A    between atoms: N_15  and  C_16
REMARK    8  A    between atoms: C_16  and  C_17
REMARK                            x       y       z     vdW  Elec       q    Type
REMARK                         _______ _______ _______ _____ _____    ______ ____
ROOT
ATOM      1  C   UNL     1      -0.626  12.303  20.124  0.00  0.00    +0.000 C 
ATOM      2  C   UNL     1       0.499  12.917  21.073  0.00  0.00    +0.000 C 
ATOM      3  C   UNL     1       1.116  14.289  20.814  0.00  0.00    +0.000 C 
ATOM      4  C   UNL     1       1.246  14.606  19.345  0.00  0.00    +0.000 C 
ATOM      5  F   UNL     1       2.224  13.839  18.796  0.00  0.00    +0.000 F 
ATOM      6  F   UNL     1       1.617  15.894  19.182  0.00  0.00    +0.000 F 
ATOM      7  C   UNL     1      -0.049  14.329  18.630  0.00  0.00    +0.000 C 
ATOM      8  C   UNL     1      -0.361  12.824  18.677  0.00  0.00    +0.000 C 
ENDROOT
BRANCH   1   9
ATOM      9  C   UNL     1      -0.475  10.824  20.656  0.00  0.00    +0.000 C 
ATOM     10  O   UNL     1      -0.920  10.488  21.763  0.00  0.00    +0.000 OA
ATOM     11  N   UNL     1       0.228   9.863  20.027  0.00  0.00    +0.000 N 
ATOM     12  H   UNL     1       0.248   9.006  20.571  0.00  0.00    +0.000 HD
BRANCH  11  13
ATOM     13  C   UNL     1       1.078   9.909  18.866  0.00  0.00    +0.000 C 
BRANCH  13  14
ATOM     14  C   UNL     1       1.881   8.653  18.794  0.00  0.00    +0.000 A 
ATOM     15  C   UNL     1       2.652   8.364  17.662  0.00  0.00    +0.000 A 
ATOM     16  C   UNL     1       3.377   7.179  17.604  0.00  0.00    +0.000 A 
ATOM     17  C   UNL     1       3.332   6.274  18.657  0.00  0.00    +0.000 A 
ATOM     18  C   UNL     1       2.543   6.549  19.782  0.00  0.00    +0.000 A 
ATOM     19  C   UNL     1       1.820   7.730  19.846  0.00  0.00    +0.000 A 
ENDBRANCH  13  14
ENDBRANCH  11  13
ENDBRANCH   1   9
BRANCH   1  20
ATOM     20  N   UNL     1      -2.148  12.423  20.242  0.00  0.00    +0.000 N 
ATOM     21  C   UNL     1      -2.990  11.876  19.174  0.00  0.00    +0.000 C 
ATOM     22  O   UNL     1      -4.221  11.964  19.176  0.00  0.00    +0.000 OA
BRANCH  20  26
ATOM     23  C   UNL     1      -4.101  14.705  23.359  0.00  0.00    +0.000 A 
ATOM     24  C   UNL     1      -3.623  15.321  22.202  0.00  0.00    +0.000 A 
ATOM     25  C   UNL     1      -2.952  14.591  21.208  0.00  0.00    +0.000 A 
ATOM     26  C   UNL     1      -2.767  13.199  21.300  0.00  0.00    +0.000 A 
ATOM     27  C   UNL     1      -3.282  12.612  22.447  0.00  0.00    +0.000 A 
ATOM     28  C   UNL     1      -3.922  13.330  23.479  0.00  0.00    +0.000 A 
ATOM     29 CL   UNL     1      -4.498  12.365  24.791  0.00  0.00    +0.000 Cl
BRANCH  23  31
ATOM     30  C   UNL     1      -3.987  16.491  24.935  0.00  0.00    +0.000 C 
ATOM     31  O   UNL     1      -4.762  15.564  24.189  0.00  0.00    +0.000 OA
ENDBRANCH  23  31
ENDBRANCH  20  26
BRANCH  21  32
ATOM     32  C   UNL     1      -2.325  11.087  18.006  0.00  0.00    +0.000 C 
ATOM     33 CL   UNL     1      -3.244   9.615  17.577  0.00  0.00    +0.000 Cl
ENDBRANCH  21  32
ENDBRANCH   1  20
TORSDOF 7
ENDMDL
MODEL 8
REMARK VINA RESULT:      -6.3      2.974      4.080
REMARK  Name = 
REMARK  8 active torsions:
REMARK  status: ('A' for Active; 'I' for Inactive)
REMARK    1  A    between atoms: C_1  and  O_2
REMARK    2  A    between atoms: O_2  and  C_3
REMARK    3  A    between atoms: C_6  and  N_7
REMARK    4  A    between atoms: N_7  and  C_12
REMARK    5  A    between atoms: C_8  and  C_10
REMARK    6  A    between atoms: C_12  and  C_13
REMARK    7  A    between atoms: N_15  and  C_16
REMARK    8  A    between atoms: C_16  and  C_17
REMARK                            x       y       z     vdW  Elec       q    Type
REMARK                         _______ _______ _______ _____ _____    ______ ____
ROOT
ATOM      1  C   UNL     1      -0.034  11.784  19.939  0.00  0.00    +0.000 C 
ATOM      2  C   UNL     1       1.138  12.228  20.924  0.00  0.00    +0.000 C 
ATOM      3  C   UNL     1       1.900  13.538  20.738  0.00  0.00    +0.000 C 
ATOM      4  C   UNL     1       2.078  13.911  19.287  0.00  0.00    +0.000 C 
ATOM      5  F   UNL     1       2.976  13.074  18.706  0.00  0.00    +0.000 F 
ATOM      6  F   UNL     1       2.585  15.159  19.191  0.00  0.00    +0.000 F 
ATOM      7  C   UNL     1       0.769  13.809  18.552  0.00  0.00    +0.000 C 
ATOM      8  C   UNL     1       0.300  12.345  18.521  0.00  0.00    +0.000 C 
ENDROOT
BRANCH   1   9
ATOM      9  C   UNL     1      -0.047  10.273  20.396  0.00  0.00    +0.000 C 
ATOM     10  O   UNL     1      -0.583   9.924  21.457  0.00  0.00    +0.000 OA
ATOM     11  N   UNL     1       0.605   9.284  19.754  0.00  0.00    +0.000 N 
ATOM     12  H   UNL     1       0.517   8.402  20.250  0.00  0.00    +0.000 HD
BRANCH  11  13
ATOM     13  C   UNL     1       1.521   9.310  18.644  0.00  0.00    +0.000 C 
BRANCH  13  14
ATOM     14  C   UNL     1       2.308   8.041  18.626  0.00  0.00    +0.000 A 
ATOM     15  C   UNL     1       2.189   7.115  19.668  0.00  0.00    +0.000 A 
ATOM     16  C   UNL     1       2.946   5.949  19.645  0.00  0.00    +0.000 A 
ATOM     17  C   UNL     1       3.828   5.702  18.601  0.00  0.00    +0.000 A 
ATOM     18  C   UNL     1       3.967   6.639  17.567  0.00  0.00    +0.000 A 
ATOM     19  C   UNL     1       3.214   7.802  17.585  0.00  0.00    +0.000 A 
ENDBRANCH  13  14
ENDBRANCH  11  13
ENDBRANCH   1   9
BRANCH   1  20
ATOM     20  N   UNL     1      -1.537  12.059  20.055  0.00  0.00    +0.000 N 
ATOM     21  C   UNL     1      -2.434  11.563  19.007  0.00  0.00    +0.000 C 
ATOM     22  O   UNL     1      -3.650  11.772  19.007  0.00  0.00    +0.000 OA
BRANCH  20  26
ATOM     23  C   UNL     1      -3.239  14.631  23.091  0.00  0.00    +0.000 A 
ATOM     24  C   UNL     1      -2.638  15.160  21.948  0.00  0.00    +0.000 A 
ATOM     25  C   UNL     1      -2.048  14.329  20.981  0.00  0.00    +0.000 A 
ATOM     26  C   UNL     1      -2.070  12.927  21.086  0.00  0.00    +0.000 A 
ATOM     27  C   UNL     1      -2.704  12.433  22.219  0.00  0.00    +0.000 A 
ATOM     28  C   UNL     1      -3.266  13.247  23.224  0.00  0.00    +0.000 A 
ATOM     29 CL   UNL     1      -4.020  12.389  24.520  0.00  0.00    +0.000 Cl
BRANCH  23  31
ATOM     30  C   UNL     1      -5.170  15.889  23.706  0.00  0.00    +0.000 C 
ATOM     31  O   UNL     1      -3.795  15.586  23.893  0.00  0.00    +0.000 OA
ENDBRANCH  23  31
ENDBRANCH  20  26
BRANCH  21  32
ATOM     32  C   UNL     1      -1.856  10.673  17.864  0.00  0.00    +0.000 C 
ATOM     33 CL   UNL     1      -3.143   9.895  16.899  0.00  0.00    +0.000 Cl
ENDBRANCH  21  32
ENDBRANCH   1  20
TORSDOF 7
ENDMDL
MODEL 9
REMARK VINA RESULT:      -6.2      3.197      4.298
REMARK  Name = 
REMARK  8 active torsions:
REMARK  status: ('A' for Active; 'I' for Inactive)
REMARK    1  A    between atoms: C_1  and  O_2
REMARK    2  A    between atoms: O_2  and  C_3
REMARK    3  A    between atoms: C_6  and  N_7
REMARK    4  A    between atoms: N_7  and  C_12
REMARK    5  A    between atoms: C_8  and  C_10
REMARK    6  A    between atoms: C_12  and  C_13
REMARK    7  A    between atoms: N_15  and  C_16
REMARK    8  A    between atoms: C_16  and  C_17
REMARK                            x       y       z     vdW  Elec       q    Type
REMARK                         _______ _______ _______ _____ _____    ______ ____
ROOT
ATOM      1  C   UNL     1       0.068  11.805  20.063  0.00  0.00    +0.000 C 
ATOM      2  C   UNL     1       1.395  12.083  20.902  0.00  0.00    +0.000 C 
ATOM      3  C   UNL     1       2.232  13.343  20.698  0.00  0.00    +0.000 C 
ATOM      4  C   UNL     1       2.247  13.812  19.264  0.00  0.00    +0.000 C 
ATOM      5  F   UNL     1       2.985  12.956  18.510  0.00  0.00    +0.000 F 
ATOM      6  F   UNL     1       2.840  15.022  19.180  0.00  0.00    +0.000 F 
ATOM      7  C   UNL     1       0.848  13.864  18.713  0.00  0.00    +0.000 C 
ATOM      8  C   UNL     1       0.256  12.445  18.652  0.00  0.00    +0.000 C 
ENDROOT
BRANCH   1   9
ATOM      9  C   UNL     1      -0.011  10.269  20.417  0.00  0.00    +0.000 C 
ATOM     10  O   UNL     1      -0.538   9.875  21.468  0.00  0.00    +0.000 OA
ATOM     11  N   UNL     1       0.572   9.295  19.692  0.00  0.00    +0.000 N 
ATOM     12  H   UNL     1       0.451   8.387  20.131  0.00  0.00    +0.000 HD
BRANCH  11  13
ATOM     13  C   UNL     1       1.460   9.351  18.561  0.00  0.00    +0.000 C 
BRANCH  13  14
ATOM     14  C   UNL     1       2.321   8.131  18.551  0.00  0.00    +0.000 A 
ATOM     15  C   UNL     1       3.229   7.909  17.510  0.00  0.00    +0.000 A 
ATOM     16  C   UNL     1       4.007   6.756  17.506  0.00  0.00    +0.000 A 
ATOM     17  C   UNL     1       3.880   5.818  18.522  0.00  0.00    +0.000 A 
ATOM     18  C   UNL     1       2.955   6.025  19.554  0.00  0.00    +0.000 A 
ATOM     19  C   UNL     1       2.178   7.173  19.564  0.00  0.00    +0.000 A 
ENDBRANCH  13  14
ENDBRANCH  11  13
ENDBRANCH   1   9
BRANCH   1  20
ATOM     20  N   UNL     1      -1.377  12.182  20.404  0.00  0.00    +0.000 N 
ATOM     21  C   UNL     1      -2.422  11.980  19.396  0.00  0.00    +0.000 C 
ATOM     22  O   UNL     1      -3.603  12.290  19.579  0.00  0.00    +0.000 OA
BRANCH  20  26
ATOM     23  C   UNL     1      -2.465  14.295  24.021  0.00  0.00    +0.000 A 
ATOM     24  C   UNL     1      -1.521  14.815  23.135  0.00  0.00    +0.000 A 
ATOM     25  C   UNL     1      -1.135  14.112  21.982  0.00  0.00    +0.000 A 
ATOM     26  C   UNL     1      -1.708  12.876  21.633  0.00  0.00    +0.000 A 
ATOM     27  C   UNL     1      -2.667  12.403  22.518  0.00  0.00    +0.000 A 
ATOM     28  C   UNL     1      -3.041  13.069  23.704  0.00  0.00    +0.000 A 
ATOM     29 CL   UNL     1      -4.276  12.285  24.623  0.00  0.00    +0.000 Cl
BRANCH  23  31
ATOM     30  C   UNL     1      -1.656  15.815  25.672  0.00  0.00    +0.000 C 
ATOM     31  O   UNL     1      -2.744  15.136  25.060  0.00  0.00    +0.000 OA
ENDBRANCH  23  31
ENDBRANCH  20  26
BRANCH  21  32
ATOM     32  C   UNL     1      -2.060  11.282  18.049  0.00  0.00    +0.000 C 
ATOM     33 CL   UNL     1      -3.145   9.909  17.689  0.00  0.00    +0.000 Cl
ENDBRANCH  21  32
ENDBRANCH   1  20
TORSDOF 7
ENDMDL
