MODEL 1
REMARK VINA RESULT:      -6.6      0.000      0.000
REMARK  Name = 
REMARK  10 active torsions:
REMARK  status: ('A' for Active; 'I' for Inactive)
REMARK    1  A    between atoms: C_2  and  C_3
REMARK    2  A    between atoms: C_3  and  C_4
REMARK    3  A    between atoms: C_5  and  C_6
REMARK    4  A    between atoms: C_6  and  C_7
REMARK    5  A    between atoms: C_11  and  C_12
REMARK    6  A    between atoms: C_12  and  C_13
REMARK    7  A    between atoms: C_13  and  C_14
REMARK    8  A    between atoms: C_14  and  C_15
REMARK    9  A    between atoms: C_15  and  N_16
REMARK   10  A    between atoms: C_19  and  O_20
REMARK                            x       y       z     vdW  Elec       q    Type
REMARK                         _______ _______ _______ _____ _____    ______ ____
ROOT
ATOM      1  C   UNL     1       2.462   4.301  20.082  0.00  0.00    +0.000 C 
ATOM      2  C   UNL     1       2.849   3.313  21.195  0.00  0.00    +0.000 C 
ATOM      3  S   UNL     1       1.153   3.559  19.038  0.00  0.00    +0.000 S 
ATOM      4  C   UNL     1       2.292   2.993  17.856  0.00  0.00    +0.000 C 
ATOM      5  O   UNL     1       2.040   2.136  17.029  0.00  0.00    +0.000 OA
ATOM      6  C   UNL     1       3.592   3.685  17.978  0.00  0.00    +0.000 C 
ATOM      7  C   UNL     1       3.646   4.395  19.119  0.00  0.00    +0.000 C 
ENDROOT
BRANCH   1  10
ATOM      8  C   UNL     1       1.898   6.862  20.060  0.00  0.00    +0.000 C 
ATOM      9  C   UNL     1       1.391   8.010  20.905  0.00  0.00    +0.000 C 
ATOM     10  C   UNL     1       2.040   5.648  20.646  0.00  0.00    +0.000 C 
BRANCH   8  12
ATOM     11  C   UNL     1       2.457   8.285  18.089  0.00  0.00    +0.000 C 
ATOM     12  C   UNL     1       2.151   7.108  18.650  0.00  0.00    +0.000 C 
ENDBRANCH   8  12
ENDBRANCH   1  10
BRANCH   7  13
ATOM     13  O   UNL     1       4.738   5.128  19.540  0.00  0.00    +0.000 OA
ATOM     14  H   UNL     1       4.653   5.354  20.480  0.00  0.00    +0.000 HD
ENDBRANCH   7  13
BRANCH   6  15
ATOM     15  C   UNL     1       4.629   3.443  16.927  0.00  0.00    +0.000 C 
BRANCH  15  16
ATOM     16  C   UNL     1       5.022   4.689  16.119  0.00  0.00    +0.000 C 
BRANCH  16  17
ATOM     17  C   UNL     1       6.515   4.808  15.804  0.00  0.00    +0.000 C 
BRANCH  17  18
ATOM     18  C   UNL     1       7.283   5.515  16.915  0.00  0.00    +0.000 C 
BRANCH  18  19
ATOM     19  N   UNL     1       7.658   4.539  17.938  0.00  0.00    +0.000 NA
ATOM     20  N   UNL     1       7.640   4.972  19.104  0.00  0.00    +0.000 NA
ATOM     21  N   UNL     1       7.618   5.398  20.163  0.00  0.00    +0.000 NA
ENDBRANCH  18  19
ENDBRANCH  17  18
ENDBRANCH  16  17
ENDBRANCH  15  16
ENDBRANCH   6  15
TORSDOF 8
ENDMDL
MODEL 2
REMARK VINA RESULT:      -6.3      2.788      5.269
REMARK  Name = 
REMARK  10 active torsions:
REMARK  status: ('A' for Active; 'I' for Inactive)
REMARK    1  A    between atoms: C_2  and  C_3
REMARK    2  A    between atoms: C_3  and  C_4
REMARK    3  A    between atoms: C_5  and  C_6
REMARK    4  A    between atoms: C_6  and  C_7
REMARK    5  A    between atoms: C_11  and  C_12
REMARK    6  A    between atoms: C_12  and  C_13
REMARK    7  A    between atoms: C_13  and  C_14
REMARK    8  A    between atoms: C_14  and  C_15
REMARK    9  A    between atoms: C_15  and  N_16
REMARK   10  A    between atoms: C_19  and  O_20
REMARK                            x       y       z     vdW  Elec       q    Type
REMARK                         _______ _______ _______ _____ _____    ______ ____
ROOT
ATOM      1  C   UNL     1       5.592   5.307  17.471  0.00  0.00    +0.000 C 
ATOM      2  C   UNL     1       6.222   5.226  18.870  0.00  0.00    +0.000 C 
ATOM      3  S   UNL     1       4.626   6.856  17.327  0.00  0.00    +0.000 S 
ATOM      4  C   UNL     1       3.132   6.067  17.729  0.00  0.00    +0.000 C 
ATOM      5  O   UNL     1       2.131   6.658  18.092  0.00  0.00    +0.000 OA
ATOM      6  C   UNL     1       3.230   4.601  17.568  0.00  0.00    +0.000 C 
ATOM      7  C   UNL     1       4.510   4.229  17.391  0.00  0.00    +0.000 C 
ENDROOT
BRANCH   1  10
ATOM      8  C   UNL     1       6.530   4.865  15.062  0.00  0.00    +0.000 C 
ATOM      9  C   UNL     1       7.781   4.900  14.212  0.00  0.00    +0.000 C 
ATOM     10  C   UNL     1       6.637   5.189  16.374  0.00  0.00    +0.000 C 
BRANCH   8  12
ATOM     11  C   UNL     1       5.109   3.835  13.290  0.00  0.00    +0.000 C 
ATOM     12  C   UNL     1       5.269   4.544  14.415  0.00  0.00    +0.000 C 
ENDBRANCH   8  12
ENDBRANCH   1  10
BRANCH   7  13
ATOM     13  O   UNL     1       4.937   2.924  17.242  0.00  0.00    +0.000 OA
ATOM     14  H   UNL     1       4.605   2.552  16.409  0.00  0.00    +0.000 HD
ENDBRANCH   7  13
BRANCH   6  15
ATOM     15  C   UNL     1       1.983   3.785  17.704  0.00  0.00    +0.000 C 
BRANCH  15  16
ATOM     16  C   UNL     1       1.594   3.453  19.153  0.00  0.00    +0.000 C 
BRANCH  16  17
ATOM     17  C   UNL     1       2.328   2.254  19.758  0.00  0.00    +0.000 C 
BRANCH  17  18
ATOM     18  C   UNL     1       3.453   2.680  20.695  0.00  0.00    +0.000 C 
BRANCH  18  19
ATOM     19  N   UNL     1       4.706   2.068  20.254  0.00  0.00    +0.000 NA
ATOM     20  N   UNL     1       5.333   1.465  21.142  0.00  0.00    +0.000 NA
ATOM     21  N   UNL     1       5.889   0.922  21.978  0.00  0.00    +0.000 NA
ENDBRANCH  18  19
ENDBRANCH  17  18
ENDBRANCH  16  17
ENDBRANCH  15  16
ENDBRANCH   6  15
TORSDOF 8
ENDMDL
MODEL 3
REMARK VINA RESULT:      -6.3      2.690      4.735
REMARK  Name = 
REMARK  10 active torsions:
REMARK  status: ('A' for Active; 'I' for Inactive)
REMARK    1  A    between atoms: C_2  and  C_3
REMARK    2  A    between atoms: C_3  and  C_4
REMARK    3  A    between atoms: C_5  and  C_6
REMARK    4  A    between atoms: C_6  and  C_7
REMARK    5  A    between atoms: C_11  and  C_12
REMARK    6  A    between atoms: C_12  and  C_13
REMARK    7  A    between atoms: C_13  and  C_14
REMARK    8  A    between atoms: C_14  and  C_15
REMARK    9  A    between atoms: C_15  and  N_16
REMARK   10  A    between atoms: C_19  and  O_20
REMARK                            x       y       z     vdW  Elec       q    Type
REMARK                         _______ _______ _______ _____ _____    ______ ____
ROOT
ATOM      1  C   UNL     1       4.587   5.167  18.069  0.00  0.00    +0.000 C 
ATOM      2  C   UNL     1       4.334   6.377  17.155  0.00  0.00    +0.000 C 
ATOM      3  S   UNL     1       4.321   3.622  17.122  0.00  0.00    +0.000 S 
ATOM      4  C   UNL     1       2.689   3.449  17.689  0.00  0.00    +0.000 C 
ATOM      5  O   UNL     1       1.861   2.733  17.158  0.00  0.00    +0.000 OA
ATOM      6  C   UNL     1       2.442   4.270  18.893  0.00  0.00    +0.000 C 
ATOM      7  C   UNL     1       3.458   5.126  19.100  0.00  0.00    +0.000 C 
ENDROOT
BRANCH   1  10
ATOM      8  C   UNL     1       7.017   6.053  18.502  0.00  0.00    +0.000 C 
ATOM      9  C   UNL     1       8.255   5.862  19.350  0.00  0.00    +0.000 C 
ATOM     10  C   UNL     1       5.970   5.214  18.697  0.00  0.00    +0.000 C 
BRANCH   8  12
ATOM     11  C   UNL     1       7.827   8.211  17.549  0.00  0.00    +0.000 C 
ATOM     12  C   UNL     1       6.993   7.164  17.565  0.00  0.00    +0.000 C 
ENDBRANCH   8  12
ENDBRANCH   1  10
BRANCH   7  13
ATOM     13  O   UNL     1       3.513   6.050  20.125  0.00  0.00    +0.000 OA
ATOM     14  H   UNL     1       3.949   5.666  20.904  0.00  0.00    +0.000 HD
ENDBRANCH   7  13
BRANCH   6  15
ATOM     15  C   UNL     1       1.140   4.104  19.612  0.00  0.00    +0.000 C 
BRANCH  15  16
ATOM     16  C   UNL     1       1.173   3.086  20.763  0.00  0.00    +0.000 C 
BRANCH  16  17
ATOM     17  C   UNL     1       2.517   2.973  21.485  0.00  0.00    +0.000 C 
BRANCH  17  18
ATOM     18  C   UNL     1       3.318   1.760  21.023  0.00  0.00    +0.000 C 
BRANCH  18  19
ATOM     19  N   UNL     1       4.738   2.108  20.983  0.00  0.00    +0.000 NA
ATOM     20  N   UNL     1       5.484   1.326  21.599  0.00  0.00    +0.000 NA
ATOM     21  N   UNL     1       6.144   0.594  22.175  0.00  0.00    +0.000 NA
ENDBRANCH  18  19
ENDBRANCH  17  18
ENDBRANCH  16  17
ENDBRANCH  15  16
ENDBRANCH   6  15
TORSDOF 8
ENDMDL
MODEL 4
REMARK VINA RESULT:      -6.2      2.400      4.690
REMARK  Name = 
REMARK  10 active torsions:
REMARK  status: ('A' for Active; 'I' for Inactive)
REMARK    1  A    between atoms: C_2  and  C_3
REMARK    2  A    between atoms: C_3  and  C_4
REMARK    3  A    between atoms: C_5  and  C_6
REMARK    4  A    between atoms: C_6  and  C_7
REMARK    5  A    between atoms: C_11  and  C_12
REMARK    6  A    between atoms: C_12  and  C_13
REMARK    7  A    between atoms: C_13  and  C_14
REMARK    8  A    between atoms: C_14  and  C_15
REMARK    9  A    between atoms: C_15  and  N_16
REMARK   10  A    between atoms: C_19  and  O_20
REMARK                            x       y       z     vdW  Elec       q    Type
REMARK                         _______ _______ _______ _____ _____    ______ ____
ROOT
ATOM      1  C   UNL     1       3.526   5.795  18.072  0.00  0.00    +0.000 C 
ATOM      2  C   UNL     1       2.841   6.991  17.391  0.00  0.00    +0.000 C 
ATOM      3  S   UNL     1       3.204   4.276  17.102  0.00  0.00    +0.000 S 
ATOM      4  C   UNL     1       1.863   3.813  18.103  0.00  0.00    +0.000 C 
ATOM      5  O   UNL     1       1.020   2.999  17.772  0.00  0.00    +0.000 OA
ATOM      6  C   UNL     1       1.881   4.524  19.399  0.00  0.00    +0.000 C 
ATOM      7  C   UNL     1       2.782   5.522  19.379  0.00  0.00    +0.000 C 
ENDROOT
BRANCH   1  10
ATOM      8  C   UNL     1       6.038   6.099  17.383  0.00  0.00    +0.000 C 
ATOM      9  C   UNL     1       7.420   6.422  17.909  0.00  0.00    +0.000 C 
ATOM     10  C   UNL     1       5.014   6.035  18.268  0.00  0.00    +0.000 C 
BRANCH   8  12
ATOM     11  C   UNL     1       6.471   5.015  15.179  0.00  0.00    +0.000 C 
ATOM     12  C   UNL     1       5.872   5.932  15.949  0.00  0.00    +0.000 C 
ENDBRANCH   8  12
ENDBRANCH   1  10
BRANCH   7  13
ATOM     13  O   UNL     1       3.016   6.391  20.426  0.00  0.00    +0.000 OA
ATOM     14  H   UNL     1       2.184   6.616  20.873  0.00  0.00    +0.000 HD
ENDBRANCH   7  13
BRANCH   6  15
ATOM     15  C   UNL     1       0.896   4.115  20.448  0.00  0.00    +0.000 C 
BRANCH  15  16
ATOM     16  C   UNL     1       1.274   2.838  21.214  0.00  0.00    +0.000 C 
BRANCH  16  17
ATOM     17  C   UNL     1       2.767   2.681  21.509  0.00  0.00    +0.000 C 
BRANCH  17  18
ATOM     18  C   UNL     1       3.480   1.851  20.446  0.00  0.00    +0.000 C 
BRANCH  18  19
ATOM     19  N   UNL     1       4.923   2.057  20.562  0.00  0.00    +0.000 NA
ATOM     20  N   UNL     1       5.488   1.333  21.401  0.00  0.00    +0.000 NA
ATOM     21  N   UNL     1       5.979   0.659  22.181  0.00  0.00    +0.000 NA
ENDBRANCH  18  19
ENDBRANCH  17  18
ENDBRANCH  16  17
ENDBRANCH  15  16
ENDBRANCH   6  15
TORSDOF 8
ENDMDL
MODEL 5
REMARK VINA RESULT:      -6.2      3.541      6.335
REMARK  Name = 
REMARK  10 active torsions:
REMARK  status: ('A' for Active; 'I' for Inactive)
REMARK    1  A    between atoms: C_2  and  C_3
REMARK    2  A    between atoms: C_3  and  C_4
REMARK    3  A    between atoms: C_5  and  C_6
REMARK    4  A    between atoms: C_6  and  C_7
REMARK    5  A    between atoms: C_11  and  C_12
REMARK    6  A    between atoms: C_12  and  C_13
REMARK    7  A    between atoms: C_13  and  C_14
REMARK    8  A    between atoms: C_14  and  C_15
REMARK    9  A    between atoms: C_15  and  N_16
REMARK   10  A    between atoms: C_19  and  O_20
REMARK                            x       y       z     vdW  Elec       q    Type
REMARK                         _______ _______ _______ _____ _____    ______ ____
ROOT
ATOM      1  C   UNL     1       5.790   4.708  15.891  0.00  0.00    +0.000 C 
ATOM      2  C   UNL     1       7.195   4.633  16.508  0.00  0.00    +0.000 C 
ATOM      3  S   UNL     1       5.286   6.461  15.734  0.00  0.00    +0.000 S 
ATOM      4  C   UNL     1       4.404   6.436  17.229  0.00  0.00    +0.000 C 
ATOM      5  O   UNL     1       4.071   7.438  17.835  0.00  0.00    +0.000 OA
ATOM      6  C   UNL     1       4.108   5.055  17.663  0.00  0.00    +0.000 C 
ATOM      7  C   UNL     1       4.803   4.168  16.928  0.00  0.00    +0.000 C 
ENDROOT
BRANCH   1  10
ATOM      8  C   UNL     1       6.479   4.071  13.443  0.00  0.00    +0.000 C 
ATOM      9  C   UNL     1       6.176   3.139  12.290  0.00  0.00    +0.000 C 
ATOM     10  C   UNL     1       5.718   3.977  14.560  0.00  0.00    +0.000 C 
BRANCH   8  12
ATOM     11  C   UNL     1       7.987   5.626  12.204  0.00  0.00    +0.000 C 
ATOM     12  C   UNL     1       7.609   4.977  13.313  0.00  0.00    +0.000 C 
ENDBRANCH   8  12
ENDBRANCH   1  10
BRANCH   7  13
ATOM     13  O   UNL     1       4.770   2.799  17.107  0.00  0.00    +0.000 OA
ATOM     14  H   UNL     1       5.357   2.538  17.834  0.00  0.00    +0.000 HD
ENDBRANCH   7  13
BRANCH   6  15
ATOM     15  C   UNL     1       3.205   4.856  18.839  0.00  0.00    +0.000 C 
BRANCH  15  16
ATOM     16  C   UNL     1       1.718   4.712  18.484  0.00  0.00    +0.000 C 
BRANCH  16  17
ATOM     17  C   UNL     1       1.269   3.286  18.157  0.00  0.00    +0.000 C 
BRANCH  17  18
ATOM     18  C   UNL     1       1.803   2.270  19.161  0.00  0.00    +0.000 C 
BRANCH  18  19
ATOM     19  N   UNL     1       1.036   2.369  20.402  0.00  0.00    +0.000 NA
ATOM     20  N   UNL     1       1.692   2.730  21.394  0.00  0.00    +0.000 NA
ATOM     21  N   UNL     1       2.320   3.061  22.289  0.00  0.00    +0.000 NA
ENDBRANCH  18  19
ENDBRANCH  17  18
ENDBRANCH  16  17
ENDBRANCH  15  16
ENDBRANCH   6  15
TORSDOF 8
ENDMDL
MODEL 6
REMARK VINA RESULT:      -6.1      1.546      1.568
REMARK  Name = 
REMARK  10 active torsions:
REMARK  status: ('A' for Active; 'I' for Inactive)
REMARK    1  A    between atoms: C_2  and  C_3
REMARK    2  A    between atoms: C_3  and  C_4
REMARK    3  A    between atoms: C_5  and  C_6
REMARK    4  A    between atoms: C_6  and  C_7
REMARK    5  A    between atoms: C_11  and  C_12
REMARK    6  A    between atoms: C_12  and  C_13
REMARK    7  A    between atoms: C_13  and  C_14
REMARK    8  A    between atoms: C_14  and  C_15
REMARK    9  A    between atoms: C_15  and  N_16
REMARK   10  A    between atoms: C_19  and  O_20
REMARK                            x       y       z     vdW  Elec       q    Type
REMARK                         _______ _______ _______ _____ _____    ______ ____
ROOT
ATOM      1  C   UNL     1       2.308   4.613  20.116  0.00  0.00    +0.000 C 
ATOM      2  C   UNL     1       2.453   3.554  21.220  0.00  0.00    +0.000 C 
ATOM      3  S   UNL     1       1.170   3.993  18.823  0.00  0.00    +0.000 S 
ATOM      4  C   UNL     1       2.470   3.426  17.823  0.00  0.00    +0.000 C 
ATOM      5  O   UNL     1       2.328   2.624  16.918  0.00  0.00    +0.000 OA
ATOM      6  C   UNL     1       3.758   4.042  18.204  0.00  0.00    +0.000 C 
ATOM      7  C   UNL     1       3.645   4.692  19.376  0.00  0.00    +0.000 C 
ENDROOT
BRANCH   1  10
ATOM      8  C   UNL     1       1.945   7.210  20.179  0.00  0.00    +0.000 C 
ATOM      9  C   UNL     1       1.325   8.339  20.972  0.00  0.00    +0.000 C 
ATOM     10  C   UNL     1       1.854   5.952  20.675  0.00  0.00    +0.000 C 
BRANCH   8  12
ATOM     11  C   UNL     1       1.944   8.075  17.839  0.00  0.00    +0.000 C 
ATOM     12  C   UNL     1       2.554   7.526  18.897  0.00  0.00    +0.000 C 
ENDBRANCH   8  12
ENDBRANCH   1  10
BRANCH   7  13
ATOM     13  O   UNL     1       4.678   5.345  20.018  0.00  0.00    +0.000 OA
ATOM     14  H   UNL     1       4.377   5.700  20.870  0.00  0.00    +0.000 HD
ENDBRANCH   7  13
BRANCH   6  15
ATOM     15  C   UNL     1       4.950   3.797  17.334  0.00  0.00    +0.000 C 
BRANCH  15  16
ATOM     16  C   UNL     1       5.032   4.701  16.094  0.00  0.00    +0.000 C 
BRANCH  16  17
ATOM     17  C   UNL     1       5.387   6.161  16.384  0.00  0.00    +0.000 C 
BRANCH  17  18
ATOM     18  C   UNL     1       6.581   6.287  17.323  0.00  0.00    +0.000 C 
BRANCH  18  19
ATOM     19  N   UNL     1       7.597   7.135  16.701  0.00  0.00    +0.000 NA
ATOM     20  N   UNL     1       7.850   8.185  17.317  0.00  0.00    +0.000 NA
ATOM     21  N   UNL     1       8.059   9.143  17.902  0.00  0.00    +0.000 NA
ENDBRANCH  18  19
ENDBRANCH  17  18
ENDBRANCH  16  17
ENDBRANCH  15  16
ENDBRANCH   6  15
TORSDOF 8
ENDMDL
MODEL 7
REMARK VINA RESULT:      -6.0      1.618      2.084
REMARK  Name = 
REMARK  10 active torsions:
REMARK  status: ('A' for Active; 'I' for Inactive)
REMARK    1  A    between atoms: C_2  and  C_3
REMARK    2  A    between atoms: C_3  and  C_4
REMARK    3  A    between atoms: C_5  and  C_6
REMARK    4  A    between atoms: C_6  and  C_7
REMARK    5  A    between atoms: C_11  and  C_12
REMARK    6  A    between atoms: C_12  and  C_13
REMARK    7  A    between atoms: C_13  and  C_14
REMARK    8  A    between atoms: C_14  and  C_15
REMARK    9  A    between atoms: C_15  and  N_16
REMARK   10  A    between atoms: C_19  and  O_20
REMARK                            x       y       z     vdW  Elec       q    Type
REMARK                         _______ _______ _______ _____ _____    ______ ____
ROOT
ATOM      1  C   UNL     1       2.279   4.307  20.313  0.00  0.00    +0.000 C 
ATOM      2  C   UNL     1       2.448   3.378  21.526  0.00  0.00    +0.000 C 
ATOM      3  S   UNL     1       1.043   3.592  19.167  0.00  0.00    +0.000 S 
ATOM      4  C   UNL     1       2.259   2.854  18.172  0.00  0.00    +0.000 C 
ATOM      5  O   UNL     1       2.033   1.960  17.378  0.00  0.00    +0.000 OA
ATOM      6  C   UNL     1       3.591   3.452  18.407  0.00  0.00    +0.000 C 
ATOM      7  C   UNL     1       3.571   4.238  19.498  0.00  0.00    +0.000 C 
ENDROOT
BRANCH   1  10
ATOM      8  C   UNL     1       1.913   6.890  20.048  0.00  0.00    +0.000 C 
ATOM      9  C   UNL     1       1.419   8.134  20.754  0.00  0.00    +0.000 C 
ATOM     10  C   UNL     1       1.910   5.720  20.733  0.00  0.00    +0.000 C 
BRANCH   8  12
ATOM     11  C   UNL     1       2.681   8.124  18.021  0.00  0.00    +0.000 C 
ATOM     12  C   UNL     1       2.310   7.004  18.655  0.00  0.00    +0.000 C 
ENDBRANCH   8  12
ENDBRANCH   1  10
BRANCH   7  13
ATOM     13  O   UNL     1       4.665   4.915  20.000  0.00  0.00    +0.000 OA
ATOM     14  H   UNL     1       5.397   4.896  19.363  0.00  0.00    +0.000 HD
ENDBRANCH   7  13
BRANCH   6  15
ATOM     15  C   UNL     1       4.719   3.054  17.508  0.00  0.00    +0.000 C 
BRANCH  15  16
ATOM     16  C   UNL     1       4.864   3.917  16.246  0.00  0.00    +0.000 C 
BRANCH  16  17
ATOM     17  C   UNL     1       4.946   5.424  16.503  0.00  0.00    +0.000 C 
BRANCH  17  18
ATOM     18  C   UNL     1       5.824   6.135  15.478  0.00  0.00    +0.000 C 
BRANCH  18  19
ATOM     19  N   UNL     1       7.161   5.543  15.496  0.00  0.00    +0.000 NA
ATOM     20  N   UNL     1       7.738   5.524  14.395  0.00  0.00    +0.000 NA
ATOM     21  N   UNL     1       8.242   5.516  13.370  0.00  0.00    +0.000 NA
ENDBRANCH  18  19
ENDBRANCH  17  18
ENDBRANCH  16  17
ENDBRANCH  15  16
ENDBRANCH   6  15
TORSDOF 8
ENDMDL
MODEL 8
REMARK VINA RESULT:      -6.0      3.470      6.236
REMARK  Name = 
REMARK  10 active torsions:
REMARK  status: ('A' for Active; 'I' for Inactive)
REMARK    1  A    between atoms: C_2  and  C_3
REMARK    2  A    between atoms: C_3  and  C_4
REMARK    3  A    between atoms: C_5  and  C_6
REMARK    4  A    between atoms: C_6  and  C_7
REMARK    5  A    between atoms: C_11  and  C_12
REMARK    6  A    between atoms: C_12  and  C_13
REMARK    7  A    between atoms: C_13  and  C_14
REMARK    8  A    between atoms: C_14  and  C_15
REMARK    9  A    between atoms: C_15  and  N_16
REMARK   10  A    between atoms: C_19  and  O_20
REMARK                            x       y       z     vdW  Elec       q    Type
REMARK                         _______ _______ _______ _____ _____    ______ ____
ROOT
ATOM      1  C   UNL     1       5.296   4.860  16.278  0.00  0.00    +0.000 C 
ATOM      2  C   UNL     1       6.531   4.554  17.140  0.00  0.00    +0.000 C 
ATOM      3  S   UNL     1       5.162   6.669  16.025  0.00  0.00    +0.000 S 
ATOM      4  C   UNL     1       4.039   6.860  17.336  0.00  0.00    +0.000 C 
ATOM      5  O   UNL     1       3.795   7.927  17.867  0.00  0.00    +0.000 OA
ATOM      6  C   UNL     1       3.420   5.572  17.714  0.00  0.00    +0.000 C 
ATOM      7  C   UNL     1       4.058   4.547  17.120  0.00  0.00    +0.000 C 
ENDROOT
BRANCH   1  10
ATOM      8  C   UNL     1       6.191   4.160  13.914  0.00  0.00    +0.000 C 
ATOM      9  C   UNL     1       5.971   3.214  12.754  0.00  0.00    +0.000 C 
ATOM     10  C   UNL     1       5.328   4.107  14.958  0.00  0.00    +0.000 C 
BRANCH   8  12
ATOM     11  C   UNL     1       8.007   5.439  12.779  0.00  0.00    +0.000 C 
ATOM     12  C   UNL     1       7.350   5.036  13.874  0.00  0.00    +0.000 C 
ENDBRANCH   8  12
ENDBRANCH   1  10
BRANCH   7  13
ATOM     13  O   UNL     1       3.741   3.215  17.295  0.00  0.00    +0.000 OA
ATOM     14  H   UNL     1       4.420   2.649  16.894  0.00  0.00    +0.000 HD
ENDBRANCH   7  13
BRANCH   6  15
ATOM     15  C   UNL     1       2.302   5.584  18.707  0.00  0.00    +0.000 C 
BRANCH  15  16
ATOM     16  C   UNL     1       2.751   5.508  20.174  0.00  0.00    +0.000 C 
BRANCH  16  17
ATOM     17  C   UNL     1       2.071   4.415  21.001  0.00  0.00    +0.000 C 
BRANCH  17  18
ATOM     18  C   UNL     1       2.749   3.060  20.831  0.00  0.00    +0.000 C 
BRANCH  18  19
ATOM     19  N   UNL     1       1.763   2.081  20.374  0.00  0.00    +0.000 NA
ATOM     20  N   UNL     1       1.352   2.257  19.213  0.00  0.00    +0.000 NA
ATOM     21  N   UNL     1       0.990   2.445  18.147  0.00  0.00    +0.000 NA
ENDBRANCH  18  19
ENDBRANCH  17  18
ENDBRANCH  16  17
ENDBRANCH  15  16
ENDBRANCH   6  15
TORSDOF 8
ENDMDL
MODEL 9
REMARK VINA RESULT:      -6.0      3.404      4.624
REMARK  Name = 
REMARK  10 active torsions:
REMARK  status: ('A' for Active; 'I' for Inactive)
REMARK    1  A    between atoms: C_2  and  C_3
REMARK    2  A    between atoms: C_3  and  C_4
REMARK    3  A    between atoms: C_5  and  C_6
REMARK    4  A    between atoms: C_6  and  C_7
REMARK    5  A    between atoms: C_11  and  C_12
REMARK    6  A    between atoms: C_12  and  C_13
REMARK    7  A    between atoms: C_13  and  C_14
REMARK    8  A    between atoms: C_14  and  C_15
REMARK    9  A    between atoms: C_15  and  N_16
REMARK   10  A    between atoms: C_19  and  O_20
REMARK                            x       y       z     vdW  Elec       q    Type
REMARK                         _______ _______ _______ _____ _____    ______ ____
ROOT
ATOM      1  C   UNL     1       4.071   4.403  18.305  0.00  0.00    +0.000 C 
ATOM      2  C   UNL     1       3.817   3.267  17.302  0.00  0.00    +0.000 C 
ATOM      3  S   UNL     1       3.250   5.931  17.715  0.00  0.00    +0.000 S 
ATOM      4  C   UNL     1       4.703   6.534  16.979  0.00  0.00    +0.000 C 
ATOM      5  O   UNL     1       4.721   7.418  16.143  0.00  0.00    +0.000 OA
ATOM      6  C   UNL     1       5.903   5.846  17.500  0.00  0.00    +0.000 C 
ATOM      7  C   UNL     1       5.554   4.767  18.223  0.00  0.00    +0.000 C 
ENDROOT
BRANCH   1  10
ATOM      8  C   UNL     1       2.415   3.651  20.195  0.00  0.00    +0.000 C 
ATOM      9  C   UNL     1       2.317   3.277  21.658  0.00  0.00    +0.000 C 
ATOM     10  C   UNL     1       3.623   4.027  19.708  0.00  0.00    +0.000 C 
BRANCH   8  12
ATOM     11  C   UNL     1       0.678   2.392  18.921  0.00  0.00    +0.000 C 
ATOM     12  C   UNL     1       1.221   3.530  19.375  0.00  0.00    +0.000 C 
ENDBRANCH   8  12
ENDBRANCH   1  10
BRANCH   7  13
ATOM     13  O   UNL     1       6.445   3.896  18.819  0.00  0.00    +0.000 OA
ATOM     14  H   UNL     1       6.016   3.417  19.546  0.00  0.00    +0.000 HD
ENDBRANCH   7  13
BRANCH   6  15
ATOM     15  C   UNL     1       7.249   6.363  17.102  0.00  0.00    +0.000 C 
BRANCH  15  16
ATOM     16  C   UNL     1       7.912   7.282  18.139  0.00  0.00    +0.000 C 
BRANCH  16  17
ATOM     17  C   UNL     1       7.910   8.769  17.777  0.00  0.00    +0.000 C 
BRANCH  17  18
ATOM     18  C   UNL     1       8.812   9.586  18.696  0.00  0.00    +0.000 C 
BRANCH  18  19
ATOM     19  N   UNL     1       9.064  10.891  18.086  0.00  0.00    +0.000 NA
ATOM     20  N   UNL     1       9.208  11.826  18.894  0.00  0.00    +0.000 NA
ATOM     21  N   UNL     1       9.331  12.665  19.658  0.00  0.00    +0.000 NA
ENDBRANCH  18  19
ENDBRANCH  17  18
ENDBRANCH  16  17
ENDBRANCH  15  16
ENDBRANCH   6  15
TORSDOF 8
ENDMDL
