MODEL 1
REMARK VINA RESULT:      -6.7      0.000      0.000
REMARK  Name = 
REMARK  3 active torsions:
REMARK  status: ('A' for Active; 'I' for Inactive)
REMARK    1  A    between atoms: C_1  and  C_2
REMARK    2  A    between atoms: C_4  and  C_5
REMARK    3  A    between atoms: C_7  and  C_9
REMARK                            x       y       z     vdW  Elec       q    Type
REMARK                         _______ _______ _______ _____ _____    ______ ____
ROOT
ATOM      1  C   UNL     1       6.160   3.904  13.904  0.00  0.00    +0.000 C 
ATOM      2  C   UNL     1       6.255   4.255  15.342  0.00  0.00    +0.000 A 
ATOM      3  C   UNL     1       7.367   4.767  16.036  0.00  0.00    +0.000 A 
ATOM      4  C   UNL     1       6.935   4.958  17.331  0.00  0.00    +0.000 A 
ATOM      5  C   UNL     1       7.677   5.424  18.528  0.00  0.00    +0.000 C 
ATOM      6  N   UNL     1       5.602   4.569  17.360  0.00  0.00    +0.000 N 
ATOM      7  C   UNL     1       4.679   4.627  18.432  0.00  0.00    +0.000 C 
ATOM      8  O   UNL     1       4.941   5.367  19.379  0.00  0.00    +0.000 OA
ATOM      9  N   UNL     1       5.202   4.087  16.148  0.00  0.00    +0.000 NA
ENDROOT
BRANCH   7  10
ATOM     10  C   UNL     1       3.431   3.825  18.500  0.00  0.00    +0.000 A 
ATOM     11  C   UNL     1       3.438   2.536  19.033  0.00  0.00    +0.000 A 
ATOM     12  C   UNL     1       2.225   1.883  19.161  0.00  0.00    +0.000 A 
ATOM     13  N   UNL     1       1.043   2.424  18.803  0.00  0.00    +0.000 NA
ATOM     14  C   UNL     1       1.065   3.676  18.297  0.00  0.00    +0.000 A 
ATOM     15  C   UNL     1       2.221   4.415  18.132  0.00  0.00    +0.000 A 
ENDBRANCH   7  10
TORSDOF 1
ENDMDL
MODEL 2
REMARK VINA RESULT:      -6.7      0.127      1.222
REMARK  Name = 
REMARK  3 active torsions:
REMARK  status: ('A' for Active; 'I' for Inactive)
REMARK    1  A    between atoms: C_1  and  C_2
REMARK    2  A    between atoms: C_4  and  C_5
REMARK    3  A    between atoms: C_7  and  C_9
REMARK                            x       y       z     vdW  Elec       q    Type
REMARK                         _______ _______ _______ _____ _____    ______ ____
ROOT
ATOM      1  C   UNL     1       5.988   3.975  13.919  0.00  0.00    +0.000 C 
ATOM      2  C   UNL     1       6.149   4.310  15.355  0.00  0.00    +0.000 A 
ATOM      3  C   UNL     1       7.300   4.792  16.007  0.00  0.00    +0.000 A 
ATOM      4  C   UNL     1       6.926   4.979  17.320  0.00  0.00    +0.000 A 
ATOM      5  C   UNL     1       7.726   5.417  18.490  0.00  0.00    +0.000 C 
ATOM      6  N   UNL     1       5.587   4.618  17.401  0.00  0.00    +0.000 N 
ATOM      7  C   UNL     1       4.710   4.685  18.511  0.00  0.00    +0.000 C 
ATOM      8  O   UNL     1       5.026   5.410  19.453  0.00  0.00    +0.000 OA
ATOM      9  N   UNL     1       5.127   4.157  16.202  0.00  0.00    +0.000 NA
ENDROOT
BRANCH   7  10
ATOM     10  C   UNL     1       3.449   3.910  18.622  0.00  0.00    +0.000 A 
ATOM     11  C   UNL     1       2.226   4.481  18.270  0.00  0.00    +0.000 A 
ATOM     12  C   UNL     1       1.103   3.673  18.299  0.00  0.00    +0.000 A 
ATOM     13  N   UNL     1       1.128   2.370  18.645  0.00  0.00    +0.000 NA
ATOM     14  C   UNL     1       2.326   1.842  18.975  0.00  0.00    +0.000 A 
ATOM     15  C   UNL     1       3.507   2.560  18.973  0.00  0.00    +0.000 A 
ENDBRANCH   7  10
TORSDOF 1
ENDMDL
MODEL 3
REMARK VINA RESULT:      -6.5      2.281      5.323
REMARK  Name = 
REMARK  3 active torsions:
REMARK  status: ('A' for Active; 'I' for Inactive)
REMARK    1  A    between atoms: C_1  and  C_2
REMARK    2  A    between atoms: C_4  and  C_5
REMARK    3  A    between atoms: C_7  and  C_9
REMARK                            x       y       z     vdW  Elec       q    Type
REMARK                         _______ _______ _______ _____ _____    ______ ____
ROOT
ATOM      1  C   UNL     1       1.957   7.831  19.726  0.00  0.00    +0.000 C 
ATOM      2  C   UNL     1       2.311   6.393  19.821  0.00  0.00    +0.000 A 
ATOM      3  C   UNL     1       1.794   5.432  20.709  0.00  0.00    +0.000 A 
ATOM      4  C   UNL     1       2.414   4.249  20.370  0.00  0.00    +0.000 A 
ATOM      5  C   UNL     1       2.313   2.904  20.988  0.00  0.00    +0.000 C 
ATOM      6  N   UNL     1       3.256   4.540  19.304  0.00  0.00    +0.000 N 
ATOM      7  C   UNL     1       4.069   3.664  18.544  0.00  0.00    +0.000 C 
ATOM      8  O   UNL     1       3.820   2.460  18.591  0.00  0.00    +0.000 OA
ATOM      9  N   UNL     1       3.229   5.870  19.004  0.00  0.00    +0.000 NA
ENDROOT
BRANCH   7  10
ATOM     10  C   UNL     1       5.223   4.104  17.721  0.00  0.00    +0.000 A 
ATOM     11  C   UNL     1       6.388   4.581  18.322  0.00  0.00    +0.000 A 
ATOM     12  C   UNL     1       7.463   4.878  17.503  0.00  0.00    +0.000 A 
ATOM     13  N   UNL     1       7.445   4.729  16.163  0.00  0.00    +0.000 NA
ATOM     14  C   UNL     1       6.307   4.259  15.609  0.00  0.00    +0.000 A 
ATOM     15  C   UNL     1       5.180   3.929  16.337  0.00  0.00    +0.000 A 
ENDBRANCH   7  10
TORSDOF 1
ENDMDL
MODEL 4
REMARK VINA RESULT:      -6.4      2.362      5.160
REMARK  Name = 
REMARK  3 active torsions:
REMARK  status: ('A' for Active; 'I' for Inactive)
REMARK    1  A    between atoms: C_1  and  C_2
REMARK    2  A    between atoms: C_4  and  C_5
REMARK    3  A    between atoms: C_7  and  C_9
REMARK                            x       y       z     vdW  Elec       q    Type
REMARK                         _______ _______ _______ _____ _____    ______ ____
ROOT
ATOM      1  C   UNL     1       2.216   8.606  18.178  0.00  0.00    +0.000 C 
ATOM      2  C   UNL     1       2.481   7.279  18.787  0.00  0.00    +0.000 A 
ATOM      3  C   UNL     1       1.908   6.732  19.950  0.00  0.00    +0.000 A 
ATOM      4  C   UNL     1       2.453   5.471  20.068  0.00  0.00    +0.000 A 
ATOM      5  C   UNL     1       2.271   4.445  21.123  0.00  0.00    +0.000 C 
ATOM      6  N   UNL     1       3.309   5.312  18.985  0.00  0.00    +0.000 N 
ATOM      7  C   UNL     1       4.064   4.176  18.605  0.00  0.00    +0.000 C 
ATOM      8  O   UNL     1       3.742   3.086  19.073  0.00  0.00    +0.000 OA
ATOM      9  N   UNL     1       3.363   6.446  18.229  0.00  0.00    +0.000 NA
ENDROOT
BRANCH   7  10
ATOM     10  C   UNL     1       5.241   4.225  17.701  0.00  0.00    +0.000 A 
ATOM     11  C   UNL     1       5.102   3.980  16.334  0.00  0.00    +0.000 A 
ATOM     12  C   UNL     1       6.218   4.142  15.532  0.00  0.00    +0.000 A 
ATOM     13  N   UNL     1       7.424   4.525  15.998  0.00  0.00    +0.000 NA
ATOM     14  C   UNL     1       7.528   4.763  17.323  0.00  0.00    +0.000 A 
ATOM     15  C   UNL     1       6.474   4.635  18.209  0.00  0.00    +0.000 A 
ENDBRANCH   7  10
TORSDOF 1
ENDMDL
MODEL 5
REMARK VINA RESULT:      -6.4      1.862      3.121
REMARK  Name = 
REMARK  3 active torsions:
REMARK  status: ('A' for Active; 'I' for Inactive)
REMARK    1  A    between atoms: C_1  and  C_2
REMARK    2  A    between atoms: C_4  and  C_5
REMARK    3  A    between atoms: C_7  and  C_9
REMARK                            x       y       z     vdW  Elec       q    Type
REMARK                         _______ _______ _______ _____ _____    ______ ____
ROOT
ATOM      1  C   UNL     1       8.202   5.942  19.340  0.00  0.00    +0.000 C 
ATOM      2  C   UNL     1       7.149   5.337  18.489  0.00  0.00    +0.000 A 
ATOM      3  C   UNL     1       7.095   5.287  17.083  0.00  0.00    +0.000 A 
ATOM      4  C   UNL     1       5.944   4.592  16.785  0.00  0.00    +0.000 A 
ATOM      5  C   UNL     1       5.332   4.271  15.472  0.00  0.00    +0.000 C 
ATOM      6  N   UNL     1       5.367   4.249  18.001  0.00  0.00    +0.000 N 
ATOM      7  C   UNL     1       4.208   3.477  18.253  0.00  0.00    +0.000 C 
ATOM      8  O   UNL     1       3.789   2.753  17.350  0.00  0.00    +0.000 OA
ATOM      9  N   UNL     1       6.084   4.755  19.046  0.00  0.00    +0.000 NA
ENDROOT
BRANCH   7  10
ATOM     10  C   UNL     1       3.446   3.510  19.527  0.00  0.00    +0.000 A 
ATOM     11  C   UNL     1       2.540   4.537  19.791  0.00  0.00    +0.000 A 
ATOM     12  C   UNL     1       1.788   4.455  20.949  0.00  0.00    +0.000 A 
ATOM     13  N   UNL     1       1.882   3.438  21.831  0.00  0.00    +0.000 NA
ATOM     14  C   UNL     1       2.762   2.454  21.547  0.00  0.00    +0.000 A 
ATOM     15  C   UNL     1       3.556   2.439  20.415  0.00  0.00    +0.000 A 
ENDBRANCH   7  10
TORSDOF 1
ENDMDL
MODEL 6
REMARK VINA RESULT:      -6.4      2.424      5.134
REMARK  Name = 
REMARK  3 active torsions:
REMARK  status: ('A' for Active; 'I' for Inactive)
REMARK    1  A    between atoms: C_1  and  C_2
REMARK    2  A    between atoms: C_4  and  C_5
REMARK    3  A    between atoms: C_7  and  C_9
REMARK                            x       y       z     vdW  Elec       q    Type
REMARK                         _______ _______ _______ _____ _____    ______ ____
ROOT
ATOM      1  C   UNL     1       2.244   8.897  17.949  0.00  0.00    +0.000 C 
ATOM      2  C   UNL     1       2.482   7.579  18.588  0.00  0.00    +0.000 A 
ATOM      3  C   UNL     1       1.864   7.050  19.736  0.00  0.00    +0.000 A 
ATOM      4  C   UNL     1       2.401   5.790  19.894  0.00  0.00    +0.000 A 
ATOM      5  C   UNL     1       2.176   4.781  20.957  0.00  0.00    +0.000 C 
ATOM      6  N   UNL     1       3.296   5.613  18.847  0.00  0.00    +0.000 N 
ATOM      7  C   UNL     1       4.062   4.470  18.512  0.00  0.00    +0.000 C 
ATOM      8  O   UNL     1       3.719   3.387  18.984  0.00  0.00    +0.000 OA
ATOM      9  N   UNL     1       3.382   6.735  18.076  0.00  0.00    +0.000 NA
ENDROOT
BRANCH   7  10
ATOM     10  C   UNL     1       5.272   4.502  17.653  0.00  0.00    +0.000 A 
ATOM     11  C   UNL     1       6.531   4.745  18.202  0.00  0.00    +0.000 A 
ATOM     12  C   UNL     1       7.629   4.660  17.364  0.00  0.00    +0.000 A 
ATOM     13  N   UNL     1       7.548   4.353  16.053  0.00  0.00    +0.000 NA
ATOM     14  C   UNL     1       6.317   4.115  15.550  0.00  0.00    +0.000 A 
ATOM     15  C   UNL     1       5.158   4.170  16.302  0.00  0.00    +0.000 A 
ENDBRANCH   7  10
TORSDOF 1
ENDMDL
MODEL 7
REMARK VINA RESULT:      -6.3      1.813      2.849
REMARK  Name = 
REMARK  3 active torsions:
REMARK  status: ('A' for Active; 'I' for Inactive)
REMARK    1  A    between atoms: C_1  and  C_2
REMARK    2  A    between atoms: C_4  and  C_5
REMARK    3  A    between atoms: C_7  and  C_9
REMARK                            x       y       z     vdW  Elec       q    Type
REMARK                         _______ _______ _______ _____ _____    ______ ____
ROOT
ATOM      1  C   UNL     1       8.149   5.821  19.397  0.00  0.00    +0.000 C 
ATOM      2  C   UNL     1       7.124   5.257  18.483  0.00  0.00    +0.000 A 
ATOM      3  C   UNL     1       7.141   5.231  17.076  0.00  0.00    +0.000 A 
ATOM      4  C   UNL     1       5.989   4.570  16.708  0.00  0.00    +0.000 A 
ATOM      5  C   UNL     1       5.437   4.287  15.361  0.00  0.00    +0.000 C 
ATOM      6  N   UNL     1       5.342   4.225  17.888  0.00  0.00    +0.000 N 
ATOM      7  C   UNL     1       4.152   3.480  18.068  0.00  0.00    +0.000 C 
ATOM      8  O   UNL     1       3.762   2.782  17.133  0.00  0.00    +0.000 OA
ATOM      9  N   UNL     1       6.018   4.696  18.976  0.00  0.00    +0.000 NA
ENDROOT
BRANCH   7  10
ATOM     10  C   UNL     1       3.328   3.514  19.302  0.00  0.00    +0.000 A 
ATOM     11  C   UNL     1       3.449   2.516  20.269  0.00  0.00    +0.000 A 
ATOM     12  C   UNL     1       2.728   2.661  21.442  0.00  0.00    +0.000 A 
ATOM     13  N   UNL     1       1.922   3.711  21.699  0.00  0.00    +0.000 NA
ATOM     14  C   UNL     1       1.829   4.665  20.748  0.00  0.00    +0.000 A 
ATOM     15  C   UNL     1       2.510   4.618  19.546  0.00  0.00    +0.000 A 
ENDBRANCH   7  10
TORSDOF 1
ENDMDL
MODEL 8
REMARK VINA RESULT:      -6.3      2.240      5.514
REMARK  Name = 
REMARK  3 active torsions:
REMARK  status: ('A' for Active; 'I' for Inactive)
REMARK    1  A    between atoms: C_1  and  C_2
REMARK    2  A    between atoms: C_4  and  C_5
REMARK    3  A    between atoms: C_7  and  C_9
REMARK                            x       y       z     vdW  Elec       q    Type
REMARK                         _______ _______ _______ _____ _____    ______ ____
ROOT
ATOM      1  C   UNL     1       1.936   7.524  20.335  0.00  0.00    +0.000 C 
ATOM      2  C   UNL     1       2.202   6.101  20.010  0.00  0.00    +0.000 A 
ATOM      3  C   UNL     1       1.583   4.960  20.551  0.00  0.00    +0.000 A 
ATOM      4  C   UNL     1       2.152   3.888  19.898  0.00  0.00    +0.000 A 
ATOM      5  C   UNL     1       1.940   2.432  20.083  0.00  0.00    +0.000 C 
ATOM      6  N   UNL     1       3.069   4.420  19.000  0.00  0.00    +0.000 N 
ATOM      7  C   UNL     1       3.872   3.752  18.045  0.00  0.00    +0.000 C 
ATOM      8  O   UNL     1       3.554   2.609  17.720  0.00  0.00    +0.000 OA
ATOM      9  N   UNL     1       3.135   5.779  19.109  0.00  0.00    +0.000 NA
ENDROOT
BRANCH   7  10
ATOM     10  C   UNL     1       5.094   4.333  17.434  0.00  0.00    +0.000 A 
ATOM     11  C   UNL     1       5.093   4.767  16.108  0.00  0.00    +0.000 A 
ATOM     12  C   UNL     1       6.232   5.392  15.631  0.00  0.00    +0.000 A 
ATOM     13  N   UNL     1       7.335   5.606  16.376  0.00  0.00    +0.000 NA
ATOM     14  C   UNL     1       7.306   5.183  17.658  0.00  0.00    +0.000 A 
ATOM     15  C   UNL     1       6.218   4.553  18.232  0.00  0.00    +0.000 A 
ENDBRANCH   7  10
TORSDOF 1
ENDMDL
MODEL 9
REMARK VINA RESULT:      -6.1      2.209      5.681
REMARK  Name = 
REMARK  3 active torsions:
REMARK  status: ('A' for Active; 'I' for Inactive)
REMARK    1  A    between atoms: C_1  and  C_2
REMARK    2  A    between atoms: C_4  and  C_5
REMARK    3  A    between atoms: C_7  and  C_9
REMARK                            x       y       z     vdW  Elec       q    Type
REMARK                         _______ _______ _______ _____ _____    ______ ____
ROOT
ATOM      1  C   UNL     1       1.590   6.154  20.767  0.00  0.00    +0.000 C 
ATOM      2  C   UNL     1       2.200   5.248  19.762  0.00  0.00    +0.000 A 
ATOM      3  C   UNL     1       1.703   4.019  19.292  0.00  0.00    +0.000 A 
ATOM      4  C   UNL     1       2.613   3.593  18.348  0.00  0.00    +0.000 A 
ATOM      5  C   UNL     1       2.652   2.342  17.552  0.00  0.00    +0.000 C 
ATOM      6  N   UNL     1       3.596   4.572  18.283  0.00  0.00    +0.000 N 
ATOM      7  C   UNL     1       4.722   4.651  17.428  0.00  0.00    +0.000 C 
ATOM      8  O   UNL     1       4.721   3.962  16.408  0.00  0.00    +0.000 OA
ATOM      9  N   UNL     1       3.366   5.563  19.193  0.00  0.00    +0.000 NA
ENDROOT
BRANCH   7  10
ATOM     10  C   UNL     1       5.917   5.488  17.701  0.00  0.00    +0.000 A 
ATOM     11  C   UNL     1       6.102   6.704  17.043  0.00  0.00    +0.000 A 
ATOM     12  C   UNL     1       7.183   7.483  17.417  0.00  0.00    +0.000 A 
ATOM     13  N   UNL     1       8.059   7.134  18.381  0.00  0.00    +0.000 NA
ATOM     14  C   UNL     1       7.851   5.956  19.006  0.00  0.00    +0.000 A 
ATOM     15  C   UNL     1       6.801   5.106  18.711  0.00  0.00    +0.000 A 
ENDBRANCH   7  10
TORSDOF 1
ENDMDL
