MODEL 1
REMARK VINA RESULT:      -9.2      0.000      0.000
REMARK  Name = 
REMARK  5 active torsions:
REMARK  status: ('A' for Active; 'I' for Inactive)
REMARK    1  A    between atoms: C_6  and  N_7
REMARK    2  A    between atoms: C_12  and  N_13
REMARK    3  A    between atoms: C_15  and  C_16
REMARK    4  A    between atoms: N_18  and  C_19
REMARK    5  A    between atoms: C_19  and  C_20
REMARK                            x       y       z     vdW  Elec       q    Type
REMARK                         _______ _______ _______ _____ _____    ______ ____
ROOT
ATOM      1  N   UNL     1       1.822   7.704  19.207  0.00  0.00    +0.000 N 
ATOM      2  C   UNL     1       1.574   9.034  18.935  0.00  0.00    +0.000 C 
ATOM      3  O   UNL     1       2.036   9.660  17.981  0.00  0.00    +0.000 OA
ATOM      4  N   UNL     1       0.719   9.669  19.806  0.00  0.00    +0.000 N 
ATOM      5  C   UNL     1       0.039   9.127  20.972  0.00  0.00    +0.000 C 
ATOM      6  C   UNL     1      -0.642  10.331  21.648  0.00  0.00    +0.000 C 
ATOM      7  C   UNL     1      -0.912  11.258  20.454  0.00  0.00    +0.000 C 
ATOM      8  C   UNL     1       0.280  11.037  19.516  0.00  0.00    +0.000 C 
ATOM      9  H   UNL     1       1.176   7.210  19.801  0.00  0.00    +0.000 HD
ENDROOT
BRANCH   1  15
ATOM     10  N   UNL     1       5.497   6.076  15.155  0.00  0.00    +0.000 N 
ATOM     11  C   UNL     1       5.635   6.543  16.432  0.00  0.00    +0.000 C 
ATOM     12  O   UNL     1       6.575   7.199  16.851  0.00  0.00    +0.000 OA
ATOM     13  N   UNL     1       4.476   6.358  17.201  0.00  0.00    +0.000 N 
ATOM     14  C   UNL     1       3.899   7.367  17.939  0.00  0.00    +0.000 A 
ATOM     15  C   UNL     1       2.725   6.922  18.491  0.00  0.00    +0.000 A 
ATOM     16  C   UNL     1       2.645   5.521  18.220  0.00  0.00    +0.000 A 
ATOM     17  C   UNL     1       1.744   4.493  18.584  0.00  0.00    +0.000 A 
ATOM     18  C   UNL     1       1.970   3.181  18.149  0.00  0.00    +0.000 A 
ATOM     19  C   UNL     1       3.064   2.880  17.345  0.00  0.00    +0.000 A 
ATOM     20  C   UNL     1       3.954   3.878  16.943  0.00  0.00    +0.000 A 
ATOM     21  C   UNL     1       3.728   5.195  17.385  0.00  0.00    +0.000 A 
ATOM     22  H   UNL     1       6.200   6.422  14.513  0.00  0.00    +0.000 HD
ATOM     23  H   UNL     1       4.565   5.964  14.770  0.00  0.00    +0.000 HD
ENDBRANCH   1  15
BRANCH   8  24
ATOM     24  C   UNL     1       1.382  12.074  19.813  0.00  0.00    +0.000 C 
ATOM     25  O   UNL     1       1.772  12.325  20.951  0.00  0.00    +0.000 OA
ATOM     26  N   UNL     1       1.900  12.708  18.702  0.00  0.00    +0.000 N 
ATOM     27  H   UNL     1       1.851  12.221  17.812  0.00  0.00    +0.000 HD
BRANCH  26  28
ATOM     28  C   UNL     1       2.903  13.747  18.839  0.00  0.00    +0.000 C 
BRANCH  28  29
ATOM     29  C   UNL     1       2.456  15.126  18.433  0.00  0.00    +0.000 A 
ATOM     30  C   UNL     1       1.243  15.698  18.847  0.00  0.00    +0.000 A 
ATOM     31  C   UNL     1       0.836  16.942  18.359  0.00  0.00    +0.000 A 
ATOM     32  C   UNL     1       1.631  17.634  17.449  0.00  0.00    +0.000 A 
ATOM     33  C   UNL     1       2.841  17.084  17.032  0.00  0.00    +0.000 A 
ATOM     34  C   UNL     1       3.238  15.843  17.522  0.00  0.00    +0.000 A 
ATOM     35  F   UNL     1       4.399  15.324  17.092  0.00  0.00    +0.000 F 
ENDBRANCH  28  29
ENDBRANCH  26  28
ENDBRANCH   8  24
BRANCH   6  36
ATOM     36  N   UNL     1       0.182  10.981  22.665  0.00  0.00    +0.000 NA
ATOM     37  H   UNL     1       0.936  10.348  22.975  0.00  0.00    +0.000 HD
ATOM     38  H   UNL     1      -0.357  11.148  23.517  0.00  0.00    +0.000 HD
ENDBRANCH   6  36
TORSDOF 5
ENDMDL
MODEL 2
REMARK VINA RESULT:      -9.1      0.943      1.085
REMARK  Name = 
REMARK  5 active torsions:
REMARK  status: ('A' for Active; 'I' for Inactive)
REMARK    1  A    between atoms: C_6  and  N_7
REMARK    2  A    between atoms: C_12  and  N_13
REMARK    3  A    between atoms: C_15  and  C_16
REMARK    4  A    between atoms: N_18  and  C_19
REMARK    5  A    between atoms: C_19  and  C_20
REMARK                            x       y       z     vdW  Elec       q    Type
REMARK                         _______ _______ _______ _____ _____    ______ ____
ROOT
ATOM      1  N   UNL     1       1.937   7.933  18.952  0.00  0.00    +0.000 N 
ATOM      2  C   UNL     1       1.568   9.164  18.448  0.00  0.00    +0.000 C 
ATOM      3  O   UNL     1       1.894   9.604  17.346  0.00  0.00    +0.000 OA
ATOM      4  N   UNL     1       0.752   9.918  19.260  0.00  0.00    +0.000 N 
ATOM      5  C   UNL     1       0.224   9.591  20.576  0.00  0.00    +0.000 C 
ATOM      6  C   UNL     1      -0.479  10.870  21.065  0.00  0.00    +0.000 C 
ATOM      7  C   UNL     1      -0.926  11.516  19.746  0.00  0.00    +0.000 C 
ATOM      8  C   UNL     1       0.189  11.171  18.751  0.00  0.00    +0.000 C 
ATOM      9  H   UNL     1       1.386   7.538  19.698  0.00  0.00    +0.000 HD
ENDROOT
BRANCH   1  15
ATOM     10  N   UNL     1       5.664   5.903  15.137  0.00  0.00    +0.000 N 
ATOM     11  C   UNL     1       5.782   6.439  16.388  0.00  0.00    +0.000 C 
ATOM     12  O   UNL     1       6.737   7.077  16.801  0.00  0.00    +0.000 OA
ATOM     13  N   UNL     1       4.590   6.353  17.125  0.00  0.00    +0.000 N 
ATOM     14  C   UNL     1       4.037   7.428  17.781  0.00  0.00    +0.000 A 
ATOM     15  C   UNL     1       2.826   7.071  18.316  0.00  0.00    +0.000 A 
ATOM     16  C   UNL     1       2.690   5.660  18.125  0.00  0.00    +0.000 A 
ATOM     17  C   UNL     1       1.731   4.698  18.515  0.00  0.00    +0.000 A 
ATOM     18  C   UNL     1       1.909   3.353  18.167  0.00  0.00    +0.000 A 
ATOM     19  C   UNL     1       3.014   2.956  17.421  0.00  0.00    +0.000 A 
ATOM     20  C   UNL     1       3.963   3.888  16.993  0.00  0.00    +0.000 A 
ATOM     21  C   UNL     1       3.784   5.237  17.349  0.00  0.00    +0.000 A 
ATOM     22  H   UNL     1       6.404   6.179  14.501  0.00  0.00    +0.000 HD
ATOM     23  H   UNL     1       4.742   5.810  14.726  0.00  0.00    +0.000 HD
ENDBRANCH   1  15
BRANCH   8  24
ATOM     24  C   UNL     1       1.234  12.304  18.718  0.00  0.00    +0.000 C 
ATOM     25  O   UNL     1       2.406  12.122  18.394  0.00  0.00    +0.000 OA
ATOM     26  N   UNL     1       0.758  13.546  19.086  0.00  0.00    +0.000 N 
ATOM     27  H   UNL     1      -0.233  13.730  18.963  0.00  0.00    +0.000 HD
BRANCH  26  28
ATOM     28  C   UNL     1       1.645  14.692  19.155  0.00  0.00    +0.000 C 
BRANCH  28  29
ATOM     29  C   UNL     1       1.090  15.967  18.576  0.00  0.00    +0.000 A 
ATOM     30  C   UNL     1      -0.272  16.302  18.612  0.00  0.00    +0.000 A 
ATOM     31  C   UNL     1      -0.743  17.452  17.973  0.00  0.00    +0.000 A 
ATOM     32  C   UNL     1       0.138  18.283  17.285  0.00  0.00    +0.000 A 
ATOM     33  C   UNL     1       1.494  17.968  17.245  0.00  0.00    +0.000 A 
ATOM     34  C   UNL     1       1.954  16.820  17.884  0.00  0.00    +0.000 A 
ATOM     35  F   UNL     1       3.262  16.527  17.815  0.00  0.00    +0.000 F 
ENDBRANCH  28  29
ENDBRANCH  26  28
ENDBRANCH   8  24
BRANCH   6  36
ATOM     36  N   UNL     1       0.384  11.758  21.841  0.00  0.00    +0.000 NA
ATOM     37  H   UNL     1       0.665  11.305  22.725  0.00  0.00    +0.000 HD
ATOM     38  H   UNL     1      -0.128  12.587  22.149  0.00  0.00    +0.000 HD
ENDBRANCH   6  36
TORSDOF 5
ENDMDL
MODEL 3
REMARK VINA RESULT:      -9.0      5.722      9.543
REMARK  Name = 
REMARK  5 active torsions:
REMARK  status: ('A' for Active; 'I' for Inactive)
REMARK    1  A    between atoms: C_6  and  N_7
REMARK    2  A    between atoms: C_12  and  N_13
REMARK    3  A    between atoms: C_15  and  C_16
REMARK    4  A    between atoms: N_18  and  C_19
REMARK    5  A    between atoms: C_19  and  C_20
REMARK                            x       y       z     vdW  Elec       q    Type
REMARK                         _______ _______ _______ _____ _____    ______ ____
ROOT
ATOM      1  N   UNL     1       8.924   8.861  19.129  0.00  0.00    +0.000 N 
ATOM      2  C   UNL     1       8.217   8.327  18.071  0.00  0.00    +0.000 C 
ATOM      3  O   UNL     1       7.901   8.938  17.050  0.00  0.00    +0.000 OA
ATOM      4  N   UNL     1       7.878   6.999  18.194  0.00  0.00    +0.000 N 
ATOM      5  C   UNL     1       8.168   6.082  19.286  0.00  0.00    +0.000 C 
ATOM      6  C   UNL     1       7.402   4.789  18.951  0.00  0.00    +0.000 C 
ATOM      7  C   UNL     1       7.378   4.820  17.416  0.00  0.00    +0.000 C 
ATOM      8  C   UNL     1       7.258   6.307  17.062  0.00  0.00    +0.000 C 
ATOM      9  H   UNL     1       9.396   8.229  19.756  0.00  0.00    +0.000 HD
ENDROOT
BRANCH   1  15
ATOM     10  N   UNL     1      11.884  13.701  18.515  0.00  0.00    +0.000 N 
ATOM     11  C   UNL     1      10.783  13.176  17.900  0.00  0.00    +0.000 C 
ATOM     12  O   UNL     1      10.456  13.371  16.740  0.00  0.00    +0.000 OA
ATOM     13  N   UNL     1      10.138  12.209  18.686  0.00  0.00    +0.000 N 
ATOM     14  C   UNL     1       9.788  10.967  18.206  0.00  0.00    +0.000 A 
ATOM     15  C   UNL     1       9.278  10.204  19.225  0.00  0.00    +0.000 A 
ATOM     16  C   UNL     1       9.152  11.064  20.360  0.00  0.00    +0.000 A 
ATOM     17  C   UNL     1       8.625  10.908  21.664  0.00  0.00    +0.000 A 
ATOM     18  C   UNL     1       8.642  11.987  22.557  0.00  0.00    +0.000 A 
ATOM     19  C   UNL     1       9.193  13.208  22.181  0.00  0.00    +0.000 A 
ATOM     20  C   UNL     1       9.749  13.383  20.912  0.00  0.00    +0.000 A 
ATOM     21  C   UNL     1       9.726  12.299  20.015  0.00  0.00    +0.000 A 
ATOM     22  H   UNL     1      12.509  14.195  17.888  0.00  0.00    +0.000 HD
ATOM     23  H   UNL     1      12.331  13.175  19.258  0.00  0.00    +0.000 HD
ENDBRANCH   1  15
BRANCH   8  24
ATOM     24  C   UNL     1       5.773   6.688  16.892  0.00  0.00    +0.000 C 
ATOM     25  O   UNL     1       5.288   7.016  15.811  0.00  0.00    +0.000 OA
ATOM     26  N   UNL     1       5.023   6.641  18.049  0.00  0.00    +0.000 N 
ATOM     27  H   UNL     1       5.333   6.019  18.790  0.00  0.00    +0.000 HD
BRANCH  26  28
ATOM     28  C   UNL     1       3.625   7.029  18.047  0.00  0.00    +0.000 C 
BRANCH  28  29
ATOM     29  C   UNL     1       2.698   6.090  18.772  0.00  0.00    +0.000 A 
ATOM     30  C   UNL     1       2.159   6.363  20.038  0.00  0.00    +0.000 A 
ATOM     31  C   UNL     1       1.383   5.411  20.705  0.00  0.00    +0.000 A 
ATOM     32  C   UNL     1       1.136   4.172  20.119  0.00  0.00    +0.000 A 
ATOM     33  C   UNL     1       1.658   3.887  18.860  0.00  0.00    +0.000 A 
ATOM     34  C   UNL     1       2.431   4.840  18.203  0.00  0.00    +0.000 A 
ATOM     35  F   UNL     1       2.940   4.537  16.999  0.00  0.00    +0.000 F 
ENDBRANCH  28  29
ENDBRANCH  26  28
ENDBRANCH   8  24
BRANCH   6  36
ATOM     36  N   UNL     1       6.056   4.737  19.516  0.00  0.00    +0.000 NA
ATOM     37  H   UNL     1       5.782   3.759  19.702  0.00  0.00    +0.000 HD
ATOM     38  H   UNL     1       5.363   5.055  18.836  0.00  0.00    +0.000 HD
ENDBRANCH   6  36
TORSDOF 5
ENDMDL
MODEL 4
REMARK VINA RESULT:      -9.0      0.817      1.174
REMARK  Name = 
REMARK  5 active torsions:
REMARK  status: ('A' for Active; 'I' for Inactive)
REMARK    1  A    between atoms: C_6  and  N_7
REMARK    2  A    between atoms: C_12  and  N_13
REMARK    3  A    between atoms: C_15  and  C_16
REMARK    4  A    between atoms: N_18  and  C_19
REMARK    5  A    between atoms: C_19  and  C_20
REMARK                            x       y       z     vdW  Elec       q    Type
REMARK                         _______ _______ _______ _____ _____    ______ ____
ROOT
ATOM      1  N   UNL     1       1.819   7.722  19.222  0.00  0.00    +0.000 N 
ATOM      2  C   UNL     1       1.574   9.054  18.959  0.00  0.00    +0.000 C 
ATOM      3  O   UNL     1       2.048   9.688  18.016  0.00  0.00    +0.000 OA
ATOM      4  N   UNL     1       0.708   9.681  19.824  0.00  0.00    +0.000 N 
ATOM      5  C   UNL     1       0.013   9.129  20.977  0.00  0.00    +0.000 C 
ATOM      6  C   UNL     1      -0.676  10.327  21.654  0.00  0.00    +0.000 C 
ATOM      7  C   UNL     1      -0.932  11.264  20.465  0.00  0.00    +0.000 C 
ATOM      8  C   UNL     1       0.272  11.051  19.541  0.00  0.00    +0.000 C 
ATOM      9  H   UNL     1       1.165   7.223  19.804  0.00  0.00    +0.000 HD
ENDROOT
BRANCH   1  15
ATOM     10  N   UNL     1       5.530   6.122  15.193  0.00  0.00    +0.000 N 
ATOM     11  C   UNL     1       5.657   6.587  16.471  0.00  0.00    +0.000 C 
ATOM     12  O   UNL     1       6.590   7.249  16.898  0.00  0.00    +0.000 OA
ATOM     13  N   UNL     1       4.494   6.394  17.232  0.00  0.00    +0.000 N 
ATOM     14  C   UNL     1       3.906   7.398  17.968  0.00  0.00    +0.000 A 
ATOM     15  C   UNL     1       2.731   6.946  18.511  0.00  0.00    +0.000 A 
ATOM     16  C   UNL     1       2.661   5.545  18.237  0.00  0.00    +0.000 A 
ATOM     17  C   UNL     1       1.764   4.512  18.593  0.00  0.00    +0.000 A 
ATOM     18  C   UNL     1       2.000   3.201  18.159  0.00  0.00    +0.000 A 
ATOM     19  C   UNL     1       3.101   2.908  17.361  0.00  0.00    +0.000 A 
ATOM     20  C   UNL     1       3.989   3.912  16.967  0.00  0.00    +0.000 A 
ATOM     21  C   UNL     1       3.752   5.227  17.409  0.00  0.00    +0.000 A 
ATOM     22  H   UNL     1       6.236   6.473  14.556  0.00  0.00    +0.000 HD
ATOM     23  H   UNL     1       4.602   6.005  14.801  0.00  0.00    +0.000 HD
ENDBRANCH   1  15
BRANCH   8  24
ATOM     24  C   UNL     1       1.370  12.086  19.861  0.00  0.00    +0.000 C 
ATOM     25  O   UNL     1       1.739  12.334  21.007  0.00  0.00    +0.000 OA
ATOM     26  N   UNL     1       1.910  12.722  18.762  0.00  0.00    +0.000 N 
ATOM     27  H   UNL     1       1.876  12.237  17.870  0.00  0.00    +0.000 HD
BRANCH  26  28
ATOM     28  C   UNL     1       2.912  13.759  18.920  0.00  0.00    +0.000 C 
BRANCH  28  29
ATOM     29  C   UNL     1       2.557  15.090  18.311  0.00  0.00    +0.000 A 
ATOM     30  C   UNL     1       3.299  15.689  17.281  0.00  0.00    +0.000 A 
ATOM     31  C   UNL     1       2.980  16.970  16.823  0.00  0.00    +0.000 A 
ATOM     32  C   UNL     1       1.918  17.673  17.387  0.00  0.00    +0.000 A 
ATOM     33  C   UNL     1       1.168  17.090  18.406  0.00  0.00    +0.000 A 
ATOM     34  C   UNL     1       1.494  15.814  18.857  0.00  0.00    +0.000 A 
ATOM     35  F   UNL     1       0.769  15.281  19.852  0.00  0.00    +0.000 F 
ENDBRANCH  28  29
ENDBRANCH  26  28
ENDBRANCH   8  24
BRANCH   6  36
ATOM     36  N   UNL     1       0.133  10.968  22.688  0.00  0.00    +0.000 NA
ATOM     37  H   UNL     1      -0.373  10.976  23.588  0.00  0.00    +0.000 HD
ATOM     38  H   UNL     1       0.271  11.958  22.481  0.00  0.00    +0.000 HD
ENDBRANCH   6  36
TORSDOF 5
ENDMDL
MODEL 5
REMARK VINA RESULT:      -8.9      1.602      1.646
REMARK  Name = 
REMARK  5 active torsions:
REMARK  status: ('A' for Active; 'I' for Inactive)
REMARK    1  A    between atoms: C_6  and  N_7
REMARK    2  A    between atoms: C_12  and  N_13
REMARK    3  A    between atoms: C_15  and  C_16
REMARK    4  A    between atoms: N_18  and  C_19
REMARK    5  A    between atoms: C_19  and  C_20
REMARK                            x       y       z     vdW  Elec       q    Type
REMARK                         _______ _______ _______ _____ _____    ______ ____
ROOT
ATOM      1  N   UNL     1       2.314   6.936  19.819  0.00  0.00    +0.000 N 
ATOM      2  C   UNL     1       1.904   7.980  19.013  0.00  0.00    +0.000 C 
ATOM      3  O   UNL     1       2.109   8.062  17.802  0.00  0.00    +0.000 OA
ATOM      4  N   UNL     1       1.192   8.973  19.645  0.00  0.00    +0.000 N 
ATOM      5  C   UNL     1       0.811   9.070  21.045  0.00  0.00    +0.000 C 
ATOM      6  C   UNL     1       0.181  10.466  21.203  0.00  0.00    +0.000 C 
ATOM      7  C   UNL     1      -0.403  10.715  19.805  0.00  0.00    +0.000 C 
ATOM      8  C   UNL     1       0.589  10.045  18.848  0.00  0.00    +0.000 C 
ATOM      9  H   UNL     1       1.846   6.802  20.701  0.00  0.00    +0.000 HD
ENDROOT
BRANCH   1  15
ATOM     10  N   UNL     1       6.465   4.109  17.109  0.00  0.00    +0.000 N 
ATOM     11  C   UNL     1       6.287   4.532  18.396  0.00  0.00    +0.000 C 
ATOM     12  O   UNL     1       7.176   4.855  19.168  0.00  0.00    +0.000 OA
ATOM     13  N   UNL     1       4.937   4.754  18.708  0.00  0.00    +0.000 N 
ATOM     14  C   UNL     1       4.486   5.911  19.300  0.00  0.00    +0.000 A 
ATOM     15  C   UNL     1       3.117   5.887  19.379  0.00  0.00    +0.000 A 
ATOM     16  C   UNL     1       2.702   4.583  18.965  0.00  0.00    +0.000 A 
ATOM     17  C   UNL     1       1.457   3.914  18.904  0.00  0.00    +0.000 A 
ATOM     18  C   UNL     1       1.397   2.591  18.449  0.00  0.00    +0.000 A 
ATOM     19  C   UNL     1       2.550   1.931  18.036  0.00  0.00    +0.000 A 
ATOM     20  C   UNL     1       3.790   2.575  18.055  0.00  0.00    +0.000 A 
ATOM     21  C   UNL     1       3.848   3.903  18.517  0.00  0.00    +0.000 A 
ATOM     22  H   UNL     1       7.420   4.192  16.778  0.00  0.00    +0.000 HD
ATOM     23  H   UNL     1       5.743   4.299  16.424  0.00  0.00    +0.000 HD
ENDBRANCH   1  15
BRANCH   8  24
ATOM     24  C   UNL     1       1.636  11.072  18.372  0.00  0.00    +0.000 C 
ATOM     25  O   UNL     1       2.574  10.776  17.635  0.00  0.00    +0.000 OA
ATOM     26  N   UNL     1       1.447  12.356  18.840  0.00  0.00    +0.000 N 
ATOM     27  H   UNL     1       0.504  12.634  19.094  0.00  0.00    +0.000 HD
BRANCH  26  28
ATOM     28  C   UNL     1       2.388  13.412  18.517  0.00  0.00    +0.000 C 
BRANCH  28  29
ATOM     29  C   UNL     1       1.812  14.803  18.510  0.00  0.00    +0.000 A 
ATOM     30  C   UNL     1       0.494  15.095  18.894  0.00  0.00    +0.000 A 
ATOM     31  C   UNL     1      -0.016  16.391  18.774  0.00  0.00    +0.000 A 
ATOM     32  C   UNL     1       0.781  17.413  18.266  0.00  0.00    +0.000 A 
ATOM     33  C   UNL     1       2.093  17.143  17.886  0.00  0.00    +0.000 A 
ATOM     34  C   UNL     1       2.592  15.849  18.008  0.00  0.00    +0.000 A 
ATOM     35  F   UNL     1       3.853  15.607  17.618  0.00  0.00    +0.000 F 
ENDBRANCH  28  29
ENDBRANCH  26  28
ENDBRANCH   8  24
BRANCH   6  36
ATOM     36  N   UNL     1       1.135  11.505  21.587  0.00  0.00    +0.000 NA
ATOM     37  H   UNL     1       1.164  12.248  20.871  0.00  0.00    +0.000 HD
ATOM     38  H   UNL     1       2.089  11.140  21.593  0.00  0.00    +0.000 HD
ENDBRANCH   6  36
TORSDOF 5
ENDMDL
MODEL 6
REMARK VINA RESULT:      -8.9      4.385      9.345
REMARK  Name = 
REMARK  5 active torsions:
REMARK  status: ('A' for Active; 'I' for Inactive)
REMARK    1  A    between atoms: C_6  and  N_7
REMARK    2  A    between atoms: C_12  and  N_13
REMARK    3  A    between atoms: C_15  and  C_16
REMARK    4  A    between atoms: N_18  and  C_19
REMARK    5  A    between atoms: C_19  and  C_20
REMARK                            x       y       z     vdW  Elec       q    Type
REMARK                         _______ _______ _______ _____ _____    ______ ____
ROOT
ATOM      1  N   UNL     1       3.022   8.489  18.077  0.00  0.00    +0.000 N 
ATOM      2  C   UNL     1       3.197   7.203  17.607  0.00  0.00    +0.000 C 
ATOM      3  O   UNL     1       2.293   6.386  17.426  0.00  0.00    +0.000 OA
ATOM      4  N   UNL     1       4.492   6.852  17.304  0.00  0.00    +0.000 N 
ATOM      5  C   UNL     1       5.701   7.655  17.409  0.00  0.00    +0.000 C 
ATOM      6  C   UNL     1       6.861   6.692  17.097  0.00  0.00    +0.000 C 
ATOM      7  C   UNL     1       6.197   5.685  16.147  0.00  0.00    +0.000 C 
ATOM      8  C   UNL     1       4.758   5.563  16.661  0.00  0.00    +0.000 C 
ATOM      9  H   UNL     1       3.747   9.165  17.898  0.00  0.00    +0.000 HD
ENDROOT
BRANCH   1  15
ATOM     10  N   UNL     1      -1.532  11.895  18.557  0.00  0.00    +0.000 N 
ATOM     11  C   UNL     1      -1.303  10.695  17.946  0.00  0.00    +0.000 C 
ATOM     12  O   UNL     1      -1.861  10.293  16.937  0.00  0.00    +0.000 OA
ATOM     13  N   UNL     1      -0.199  10.017  18.486  0.00  0.00    +0.000 N 
ATOM     14  C   UNL     1       0.811   9.495  17.710  0.00  0.00    +0.000 A 
ATOM     15  C   UNL     1       1.801   8.994  18.516  0.00  0.00    +0.000 A 
ATOM     16  C   UNL     1       1.314   9.059  19.858  0.00  0.00    +0.000 A 
ATOM     17  C   UNL     1       1.810   8.632  21.112  0.00  0.00    +0.000 A 
ATOM     18  C   UNL     1       1.053   8.843  22.271  0.00  0.00    +0.000 A 
ATOM     19  C   UNL     1      -0.178   9.489  22.205  0.00  0.00    +0.000 A 
ATOM     20  C   UNL     1      -0.680   9.951  20.986  0.00  0.00    +0.000 A 
ATOM     21  C   UNL     1       0.080   9.733  19.823  0.00  0.00    +0.000 A 
ATOM     22  H   UNL     1      -2.140  12.514  18.033  0.00  0.00    +0.000 HD
ATOM     23  H   UNL     1      -0.774  12.344  19.060  0.00  0.00    +0.000 HD
ENDBRANCH   1  15
BRANCH   8  24
ATOM     24  C   UNL     1       4.653   4.388  17.655  0.00  0.00    +0.000 C 
ATOM     25  O   UNL     1       5.303   4.335  18.696  0.00  0.00    +0.000 OA
ATOM     26  N   UNL     1       3.773   3.390  17.286  0.00  0.00    +0.000 N 
ATOM     27  H   UNL     1       3.005   3.639  16.670  0.00  0.00    +0.000 HD
BRANCH  26  28
ATOM     28  C   UNL     1       3.617   2.199  18.099  0.00  0.00    +0.000 C 
BRANCH  28  29
ATOM     29  C   UNL     1       2.742   2.363  19.314  0.00  0.00    +0.000 A 
ATOM     30  C   UNL     1       1.373   2.664  19.244  0.00  0.00    +0.000 A 
ATOM     31  C   UNL     1       0.633   2.902  20.405  0.00  0.00    +0.000 A 
ATOM     32  C   UNL     1       1.248   2.844  21.653  0.00  0.00    +0.000 A 
ATOM     33  C   UNL     1       2.604   2.539  21.741  0.00  0.00    +0.000 A 
ATOM     34  C   UNL     1       3.334   2.306  20.579  0.00  0.00    +0.000 A 
ATOM     35  F   UNL     1       4.644   2.033  20.687  0.00  0.00    +0.000 F 
ENDBRANCH  28  29
ENDBRANCH  26  28
ENDBRANCH   8  24
BRANCH   6  36
ATOM     36  N   UNL     1       7.420   6.038  18.279  0.00  0.00    +0.000 NA
ATOM     37  H   UNL     1       6.839   6.238  19.108  0.00  0.00    +0.000 HD
ATOM     38  H   UNL     1       8.329   6.437  18.520  0.00  0.00    +0.000 HD
ENDBRANCH   6  36
TORSDOF 5
ENDMDL
MODEL 7
REMARK VINA RESULT:      -8.9      5.792      9.747
REMARK  Name = 
REMARK  5 active torsions:
REMARK  status: ('A' for Active; 'I' for Inactive)
REMARK    1  A    between atoms: C_6  and  N_7
REMARK    2  A    between atoms: C_12  and  N_13
REMARK    3  A    between atoms: C_15  and  C_16
REMARK    4  A    between atoms: N_18  and  C_19
REMARK    5  A    between atoms: C_19  and  C_20
REMARK                            x       y       z     vdW  Elec       q    Type
REMARK                         _______ _______ _______ _____ _____    ______ ____
ROOT
ATOM      1  N   UNL     1       9.011   8.888  18.989  0.00  0.00    +0.000 N 
ATOM      2  C   UNL     1       8.080   8.436  18.075  0.00  0.00    +0.000 C 
ATOM      3  O   UNL     1       7.570   9.119  17.187  0.00  0.00    +0.000 OA
ATOM      4  N   UNL     1       7.740   7.108  18.183  0.00  0.00    +0.000 N 
ATOM      5  C   UNL     1       8.231   6.115  19.126  0.00  0.00    +0.000 C 
ATOM      6  C   UNL     1       7.377   4.858  18.881  0.00  0.00    +0.000 C 
ATOM      7  C   UNL     1       7.027   4.993  17.392  0.00  0.00    +0.000 C 
ATOM      8  C   UNL     1       6.874   6.502  17.168  0.00  0.00    +0.000 C 
ATOM      9  H   UNL     1       9.588   8.209  19.458  0.00  0.00    +0.000 HD
ENDROOT
BRANCH   1  15
ATOM     10  N   UNL     1      12.175  13.609  18.461  0.00  0.00    +0.000 N 
ATOM     11  C   UNL     1      11.076  13.123  17.810  0.00  0.00    +0.000 C 
ATOM     12  O   UNL     1      10.797  13.325  16.638  0.00  0.00    +0.000 OA
ATOM     13  N   UNL     1      10.367  12.185  18.576  0.00  0.00    +0.000 N 
ATOM     14  C   UNL     1       9.986  10.956  18.088  0.00  0.00    +0.000 A 
ATOM     15  C   UNL     1       9.412  10.218  19.092  0.00  0.00    +0.000 A 
ATOM     16  C   UNL     1       9.281  11.087  20.220  0.00  0.00    +0.000 A 
ATOM     17  C   UNL     1       8.704  10.958  21.504  0.00  0.00    +0.000 A 
ATOM     18  C   UNL     1       8.732  12.039  22.394  0.00  0.00    +0.000 A 
ATOM     19  C   UNL     1       9.342  13.236  22.034  0.00  0.00    +0.000 A 
ATOM     20  C   UNL     1       9.948  13.384  20.784  0.00  0.00    +0.000 A 
ATOM     21  C   UNL     1       9.913  12.298  19.890  0.00  0.00    +0.000 A 
ATOM     22  H   UNL     1      12.839  14.075  17.854  0.00  0.00    +0.000 HD
ATOM     23  H   UNL     1      12.575  13.069  19.220  0.00  0.00    +0.000 HD
ENDBRANCH   1  15
BRANCH   8  24
ATOM     24  C   UNL     1       5.398   6.913  17.345  0.00  0.00    +0.000 C 
ATOM     25  O   UNL     1       5.023   8.083  17.311  0.00  0.00    +0.000 OA
ATOM     26  N   UNL     1       4.522   5.866  17.551  0.00  0.00    +0.000 N 
ATOM     27  H   UNL     1       4.783   4.953  17.192  0.00  0.00    +0.000 HD
BRANCH  26  28
ATOM     28  C   UNL     1       3.113   6.112  17.789  0.00  0.00    +0.000 C 
BRANCH  28  29
ATOM     29  C   UNL     1       2.378   4.999  18.488  0.00  0.00    +0.000 A 
ATOM     30  C   UNL     1       2.004   3.804  17.854  0.00  0.00    +0.000 A 
ATOM     31  C   UNL     1       1.237   2.848  18.526  0.00  0.00    +0.000 A 
ATOM     32  C   UNL     1       0.831   3.072  19.840  0.00  0.00    +0.000 A 
ATOM     33  C   UNL     1       1.199   4.249  20.485  0.00  0.00    +0.000 A 
ATOM     34  C   UNL     1       1.961   5.197  19.808  0.00  0.00    +0.000 A 
ATOM     35  F   UNL     1       2.288   6.333  20.443  0.00  0.00    +0.000 F 
ENDBRANCH  28  29
ENDBRANCH  26  28
ENDBRANCH   8  24
BRANCH   6  36
ATOM     36  N   UNL     1       6.181   4.783  19.717  0.00  0.00    +0.000 NA
ATOM     37  H   UNL     1       6.442   4.686  20.711  0.00  0.00    +0.000 HD
ATOM     38  H   UNL     1       5.653   3.931  19.523  0.00  0.00    +0.000 HD
ENDBRANCH   6  36
TORSDOF 5
ENDMDL
MODEL 8
REMARK VINA RESULT:      -8.8      3.695      8.432
REMARK  Name = 
REMARK  5 active torsions:
REMARK  status: ('A' for Active; 'I' for Inactive)
REMARK    1  A    between atoms: C_6  and  N_7
REMARK    2  A    between atoms: C_12  and  N_13
REMARK    3  A    between atoms: C_15  and  C_16
REMARK    4  A    between atoms: N_18  and  C_19
REMARK    5  A    between atoms: C_19  and  C_20
REMARK                            x       y       z     vdW  Elec       q    Type
REMARK                         _______ _______ _______ _____ _____    ______ ____
ROOT
ATOM      1  N   UNL     1       1.183   6.061  20.231  0.00  0.00    +0.000 N 
ATOM      2  C   UNL     1       2.408   5.431  20.133  0.00  0.00    +0.000 C 
ATOM      3  O   UNL     1       3.492   5.944  20.410  0.00  0.00    +0.000 OA
ATOM      4  N   UNL     1       2.370   4.122  19.712  0.00  0.00    +0.000 N 
ATOM      5  C   UNL     1       1.213   3.311  19.361  0.00  0.00    +0.000 C 
ATOM      6  C   UNL     1       1.788   1.995  18.807  0.00  0.00    +0.000 C 
ATOM      7  C   UNL     1       3.118   1.880  19.567  0.00  0.00    +0.000 C 
ATOM      8  C   UNL     1       3.601   3.328  19.718  0.00  0.00    +0.000 C 
ATOM      9  H   UNL     1       0.356   5.489  20.287  0.00  0.00    +0.000 HD
ENDROOT
BRANCH   1  15
ATOM     10  N   UNL     1      -1.053  10.857  22.369  0.00  0.00    +0.000 N 
ATOM     11  C   UNL     1      -0.046  10.021  22.760  0.00  0.00    +0.000 C 
ATOM     12  O   UNL     1       0.294   9.809  23.913  0.00  0.00    +0.000 OA
ATOM     13  N   UNL     1       0.461   9.255  21.699  0.00  0.00    +0.000 N 
ATOM     14  C   UNL     1       0.623   7.890  21.773  0.00  0.00    +0.000 A 
ATOM     15  C   UNL     1       1.028   7.406  20.555  0.00  0.00    +0.000 A 
ATOM     16  C   UNL     1       1.288   8.541  19.726  0.00  0.00    +0.000 A 
ATOM     17  C   UNL     1       1.800   8.713  18.419  0.00  0.00    +0.000 A 
ATOM     18  C   UNL     1       1.947  10.003  17.891  0.00  0.00    +0.000 A 
ATOM     19  C   UNL     1       1.575  11.118  18.634  0.00  0.00    +0.000 A 
ATOM     20  C   UNL     1       1.037  10.979  19.915  0.00  0.00    +0.000 A 
ATOM     21  C   UNL     1       0.895   9.683  20.445  0.00  0.00    +0.000 A 
ATOM     22  H   UNL     1      -1.607  11.221  23.136  0.00  0.00    +0.000 HD
ATOM     23  H   UNL     1      -1.564  10.647  21.518  0.00  0.00    +0.000 HD
ENDBRANCH   1  15
BRANCH   8  24
ATOM     24  C   UNL     1       4.533   3.696  18.546  0.00  0.00    +0.000 C 
ATOM     25  O   UNL     1       4.170   3.672  17.372  0.00  0.00    +0.000 OA
ATOM     26  N   UNL     1       5.815   4.053  18.912  0.00  0.00    +0.000 N 
ATOM     27  H   UNL     1       5.954   4.431  19.844  0.00  0.00    +0.000 HD
BRANCH  26  28
ATOM     28  C   UNL     1       6.814   4.369  17.909  0.00  0.00    +0.000 C 
BRANCH  28  29
ATOM     29  C   UNL     1       7.254   5.809  17.874  0.00  0.00    +0.000 A 
ATOM     30  C   UNL     1       8.172   6.357  18.783  0.00  0.00    +0.000 A 
ATOM     31  C   UNL     1       8.469   7.723  18.764  0.00  0.00    +0.000 A 
ATOM     32  C   UNL     1       7.851   8.562  17.840  0.00  0.00    +0.000 A 
ATOM     33  C   UNL     1       6.941   8.033  16.927  0.00  0.00    +0.000 A 
ATOM     34  C   UNL     1       6.651   6.672  16.954  0.00  0.00    +0.000 A 
ATOM     35  F   UNL     1       5.758   6.188  16.077  0.00  0.00    +0.000 F 
ENDBRANCH  28  29
ENDBRANCH  26  28
ENDBRANCH   8  24
BRANCH   6  36
ATOM     36  N   UNL     1       1.986   1.999  17.360  0.00  0.00    +0.000 NA
ATOM     37  H   UNL     1       2.989   1.900  17.134  0.00  0.00    +0.000 HD
ATOM     38  H   UNL     1       1.739   2.906  16.961  0.00  0.00    +0.000 HD
ENDBRANCH   6  36
TORSDOF 5
ENDMDL
MODEL 9
REMARK VINA RESULT:      -8.7      5.560      9.635
REMARK  Name = 
REMARK  5 active torsions:
REMARK  status: ('A' for Active; 'I' for Inactive)
REMARK    1  A    between atoms: C_6  and  N_7
REMARK    2  A    between atoms: C_12  and  N_13
REMARK    3  A    between atoms: C_15  and  C_16
REMARK    4  A    between atoms: N_18  and  C_19
REMARK    5  A    between atoms: C_19  and  C_20
REMARK                            x       y       z     vdW  Elec       q    Type
REMARK                         _______ _______ _______ _____ _____    ______ ____
ROOT
ATOM      1  N   UNL     1       8.833   8.769  19.297  0.00  0.00    +0.000 N 
ATOM      2  C   UNL     1       8.136   8.403  18.164  0.00  0.00    +0.000 C 
ATOM      3  O   UNL     1       7.770   9.176  17.278  0.00  0.00    +0.000 OA
ATOM      4  N   UNL     1       7.870   7.060  18.038  0.00  0.00    +0.000 N 
ATOM      5  C   UNL     1       8.228   5.972  18.936  0.00  0.00    +0.000 C 
ATOM      6  C   UNL     1       7.525   4.725  18.371  0.00  0.00    +0.000 C 
ATOM      7  C   UNL     1       7.471   5.039  16.869  0.00  0.00    +0.000 C 
ATOM      8  C   UNL     1       7.267   6.557  16.801  0.00  0.00    +0.000 C 
ATOM      9  H   UNL     1       9.349   8.058  19.790  0.00  0.00    +0.000 HD
ENDROOT
BRANCH   1  15
ATOM     10  N   UNL     1       8.164  14.071  21.301  0.00  0.00    +0.000 N 
ATOM     11  C   UNL     1       8.766  12.942  21.782  0.00  0.00    +0.000 C 
ATOM     12  O   UNL     1       8.872  12.640  22.960  0.00  0.00    +0.000 OA
ATOM     13  N   UNL     1       9.097  12.034  20.764  0.00  0.00    +0.000 N 
ATOM     14  C   UNL     1       8.765  10.699  20.817  0.00  0.00    +0.000 A 
ATOM     15  C   UNL     1       9.118  10.089  19.640  0.00  0.00    +0.000 A 
ATOM     16  C   UNL     1       9.851  11.051  18.879  0.00  0.00    +0.000 A 
ATOM     17  C   UNL     1      10.542  11.018  17.645  0.00  0.00    +0.000 A 
ATOM     18  C   UNL     1      11.188  12.168  17.176  0.00  0.00    +0.000 A 
ATOM     19  C   UNL     1      11.142  13.353  17.903  0.00  0.00    +0.000 A 
ATOM     20  C   UNL     1      10.442  13.426  19.109  0.00  0.00    +0.000 A 
ATOM     21  C   UNL     1       9.797  12.268  19.581  0.00  0.00    +0.000 A 
ATOM     22  H   UNL     1       7.686  14.615  22.010  0.00  0.00    +0.000 HD
ATOM     23  H   UNL     1       7.717  14.041  20.392  0.00  0.00    +0.000 HD
ENDBRANCH   1  15
BRANCH   8  24
ATOM     24  C   UNL     1       5.761   6.882  16.718  0.00  0.00    +0.000 C 
ATOM     25  O   UNL     1       5.183   7.097  15.654  0.00  0.00    +0.000 OA
ATOM     26  N   UNL     1       5.105   6.917  17.931  0.00  0.00    +0.000 N 
ATOM     27  H   UNL     1       5.492   6.373  18.696  0.00  0.00    +0.000 HD
BRANCH  26  28
ATOM     28  C   UNL     1       3.698   7.265  18.006  0.00  0.00    +0.000 C 
BRANCH  28  29
ATOM     29  C   UNL     1       2.833   6.278  18.742  0.00  0.00    +0.000 A 
ATOM     30  C   UNL     1       2.274   6.532  20.005  0.00  0.00    +0.000 A 
ATOM     31  C   UNL     1       1.560   5.541  20.683  0.00  0.00    +0.000 A 
ATOM     32  C   UNL     1       1.395   4.281  20.114  0.00  0.00    +0.000 A 
ATOM     33  C   UNL     1       1.937   4.014  18.859  0.00  0.00    +0.000 A 
ATOM     34  C   UNL     1       2.648   5.007  18.191  0.00  0.00    +0.000 A 
ATOM     35  F   UNL     1       3.178   4.720  16.991  0.00  0.00    +0.000 F 
ENDBRANCH  28  29
ENDBRANCH  26  28
ENDBRANCH   8  24
BRANCH   6  36
ATOM     36  N   UNL     1       6.194   4.493  18.927  0.00  0.00    +0.000 NA
ATOM     37  H   UNL     1       5.788   3.627  18.539  0.00  0.00    +0.000 HD
ATOM     38  H   UNL     1       5.542   5.220  18.626  0.00  0.00    +0.000 HD
ENDBRANCH   6  36
TORSDOF 5
ENDMDL
