MODEL 1
REMARK VINA RESULT:      -7.5      0.000      0.000
REMARK  Name = 
REMARK  9 active torsions:
REMARK  status: ('A' for Active; 'I' for Inactive)
REMARK    1  A    between atoms: C_1  and  O_2
REMARK    2  A    between atoms: O_2  and  C_3
REMARK    3  A    between atoms: C_5  and  C_6
REMARK    4  A    between atoms: C_8  and  C_9
REMARK    5  A    between atoms: C_12  and  N_13
REMARK    6  A    between atoms: C_21  and  O_22
REMARK    7  A    between atoms: O_22  and  C_23
REMARK    8  A    between atoms: C_24  and  O_25
REMARK    9  A    between atoms: O_25  and  C_26
REMARK                            x       y       z     vdW  Elec       q    Type
REMARK                         _______ _______ _______ _____ _____    ______ ____
ROOT
ATOM      1  C   UNL     1       2.479   6.709  19.238  0.00  0.00    +0.000 A 
ATOM      2  N   UNL     1       2.068   7.955  19.337  0.00  0.00    +0.000 NA
ATOM      3  C   UNL     1       1.366   7.946  20.525  0.00  0.00    +0.000 A 
ATOM      4  N   UNL     1       1.326   6.744  21.124  0.00  0.00    +0.000 NA
ATOM      5  O   UNL     1       2.060   5.925  20.273  0.00  0.00    +0.000 OA
ENDROOT
BRANCH   1   8
ATOM      6  C   UNL     1       5.427   6.301  16.941  0.00  0.00    +0.000 A 
ATOM      7  C   UNL     1       4.378   6.883  17.675  0.00  0.00    +0.000 A 
ATOM      8  C   UNL     1       3.399   6.100  18.285  0.00  0.00    +0.000 A 
ATOM      9  C   UNL     1       3.407   4.729  18.036  0.00  0.00    +0.000 A 
ATOM     10  C   UNL     1       4.391   4.130  17.232  0.00  0.00    +0.000 A 
ATOM     11  C   UNL     1       5.425   4.913  16.676  0.00  0.00    +0.000 A 
BRANCH   6  13
ATOM     12  C   UNL     1       7.439   7.447  17.446  0.00  0.00    +0.000 C 
ATOM     13  O   UNL     1       6.448   7.091  16.476  0.00  0.00    +0.000 OA
ENDBRANCH   6  13
BRANCH  10  14
ATOM     14  O   UNL     1       4.190   2.774  17.147  0.00  0.00    +0.000 OA
ATOM     15  C   UNL     1       3.216   2.152  17.969  0.00  0.00    +0.000 C 
ENDBRANCH  10  14
BRANCH  11  16
ATOM     16  O   UNL     1       6.342   4.235  15.923  0.00  0.00    +0.000 OA
ATOM     17  C   UNL     1       6.184   4.091  14.523  0.00  0.00    +0.000 C 
ENDBRANCH  11  16
ENDBRANCH   1   8
BRANCH   3  18
ATOM     18  C   UNL     1       0.748   9.144  21.084  0.00  0.00    +0.000 A 
ATOM     19  C   UNL     1       0.843  10.377  20.430  0.00  0.00    +0.000 A 
ATOM     20  C   UNL     1       0.249  11.521  20.976  0.00  0.00    +0.000 A 
ATOM     21  C   UNL     1      -0.458  11.469  22.188  0.00  0.00    +0.000 A 
ATOM     22  C   UNL     1      -0.535  10.234  22.848  0.00  0.00    +0.000 A 
ATOM     23  C   UNL     1       0.051   9.083  22.300  0.00  0.00    +0.000 A 
BRANCH  21  24
ATOM     24  N   UNL     1      -0.976  12.680  22.690  0.00  0.00    +0.000 NA
ATOM     25  C   UNL     1      -2.073  12.638  23.108  0.00  0.00    +0.000 C 
ATOM     26  S   UNL     1      -3.550  12.630  23.708  0.00  0.00    +0.000 S 
ENDBRANCH  21  24
ENDBRANCH   3  18
TORSDOF 6
ENDMDL
MODEL 2
REMARK VINA RESULT:      -7.5      1.298      2.990
REMARK  Name = 
REMARK  9 active torsions:
REMARK  status: ('A' for Active; 'I' for Inactive)
REMARK    1  A    between atoms: C_1  and  O_2
REMARK    2  A    between atoms: O_2  and  C_3
REMARK    3  A    between atoms: C_5  and  C_6
REMARK    4  A    between atoms: C_8  and  C_9
REMARK    5  A    between atoms: C_12  and  N_13
REMARK    6  A    between atoms: C_21  and  O_22
REMARK    7  A    between atoms: O_22  and  C_23
REMARK    8  A    between atoms: C_24  and  O_25
REMARK    9  A    between atoms: O_25  and  C_26
REMARK                            x       y       z     vdW  Elec       q    Type
REMARK                         _______ _______ _______ _____ _____    ______ ____
ROOT
ATOM      1  C   UNL     1       2.590   7.906  18.326  0.00  0.00    +0.000 A 
ATOM      2  N   UNL     1       2.095   8.161  19.518  0.00  0.00    +0.000 NA
ATOM      3  C   UNL     1       1.258   9.230  19.273  0.00  0.00    +0.000 A 
ATOM      4  N   UNL     1       1.251   9.632  17.991  0.00  0.00    +0.000 NA
ATOM      5  O   UNL     1       2.133   8.759  17.365  0.00  0.00    +0.000 OA
ENDROOT
BRANCH   1   8
ATOM      6  C   UNL     1       3.561   4.475  17.135  0.00  0.00    +0.000 A 
ATOM      7  C   UNL     1       2.874   5.517  17.783  0.00  0.00    +0.000 A 
ATOM      8  C   UNL     1       3.422   6.797  17.877  0.00  0.00    +0.000 A 
ATOM      9  C   UNL     1       4.730   6.984  17.432  0.00  0.00    +0.000 A 
ATOM     10  C   UNL     1       5.472   5.938  16.861  0.00  0.00    +0.000 A 
ATOM     11  C   UNL     1       4.891   4.662  16.698  0.00  0.00    +0.000 A 
BRANCH   6  13
ATOM     12  C   UNL     1       2.917   2.394  18.070  0.00  0.00    +0.000 C 
ATOM     13  O   UNL     1       2.932   3.270  16.938  0.00  0.00    +0.000 OA
ENDBRANCH   6  13
BRANCH  10  14
ATOM     14  O   UNL     1       6.722   6.373  16.494  0.00  0.00    +0.000 OA
ATOM     15  C   UNL     1       7.436   7.263  17.337  0.00  0.00    +0.000 C 
ENDBRANCH  10  14
BRANCH  11  16
ATOM     16  O   UNL     1       5.690   3.717  16.120  0.00  0.00    +0.000 OA
ATOM     17  C   UNL     1       6.058   3.797  14.754  0.00  0.00    +0.000 C 
ENDBRANCH  11  16
ENDBRANCH   1   8
BRANCH   3  18
ATOM     18  C   UNL     1       0.439   9.845  20.313  0.00  0.00    +0.000 A 
ATOM     19  C   UNL     1       0.380   9.301  21.601  0.00  0.00    +0.000 A 
ATOM     20  C   UNL     1      -0.410   9.896  22.591  0.00  0.00    +0.000 A 
ATOM     21  C   UNL     1      -1.163  11.052  22.327  0.00  0.00    +0.000 A 
ATOM     22  C   UNL     1      -1.113  11.583  21.030  0.00  0.00    +0.000 A 
ATOM     23  C   UNL     1      -0.316  10.994  20.037  0.00  0.00    +0.000 A 
BRANCH  21  24
ATOM     24  N   UNL     1      -1.972  11.552  23.368  0.00  0.00    +0.000 NA
ATOM     25  C   UNL     1      -2.881  12.219  23.040  0.00  0.00    +0.000 C 
ATOM     26  S   UNL     1      -4.142  13.113  22.647  0.00  0.00    +0.000 S 
ENDBRANCH  21  24
ENDBRANCH   3  18
TORSDOF 6
ENDMDL
MODEL 3
REMARK VINA RESULT:      -7.4      1.380      2.909
REMARK  Name = 
REMARK  9 active torsions:
REMARK  status: ('A' for Active; 'I' for Inactive)
REMARK    1  A    between atoms: C_1  and  O_2
REMARK    2  A    between atoms: O_2  and  C_3
REMARK    3  A    between atoms: C_5  and  C_6
REMARK    4  A    between atoms: C_8  and  C_9
REMARK    5  A    between atoms: C_12  and  N_13
REMARK    6  A    between atoms: C_21  and  O_22
REMARK    7  A    between atoms: O_22  and  C_23
REMARK    8  A    between atoms: C_24  and  O_25
REMARK    9  A    between atoms: O_25  and  C_26
REMARK                            x       y       z     vdW  Elec       q    Type
REMARK                         _______ _______ _______ _____ _____    ______ ____
ROOT
ATOM      1  C   UNL     1       2.553   7.929  18.319  0.00  0.00    +0.000 A 
ATOM      2  N   UNL     1       2.066   8.207  19.509  0.00  0.00    +0.000 NA
ATOM      3  C   UNL     1       1.204   9.252  19.245  0.00  0.00    +0.000 A 
ATOM      4  N   UNL     1       1.175   9.618  17.953  0.00  0.00    +0.000 NA
ATOM      5  O   UNL     1       2.068   8.746  17.340  0.00  0.00    +0.000 OA
ENDROOT
BRANCH   1   8
ATOM      6  C   UNL     1       3.579   4.488  17.207  0.00  0.00    +0.000 A 
ATOM      7  C   UNL     1       2.878   5.533  17.834  0.00  0.00    +0.000 A 
ATOM      8  C   UNL     1       3.401   6.825  17.890  0.00  0.00    +0.000 A 
ATOM      9  C   UNL     1       4.702   7.025  17.429  0.00  0.00    +0.000 A 
ATOM     10  C   UNL     1       5.459   5.979  16.879  0.00  0.00    +0.000 A 
ATOM     11  C   UNL     1       4.901   4.689  16.753  0.00  0.00    +0.000 A 
BRANCH   6  13
ATOM     12  C   UNL     1       2.896   2.459  18.225  0.00  0.00    +0.000 C 
ATOM     13  O   UNL     1       2.972   3.267  17.045  0.00  0.00    +0.000 OA
ENDBRANCH   6  13
BRANCH  10  14
ATOM     14  O   UNL     1       6.698   6.428  16.489  0.00  0.00    +0.000 OA
ATOM     15  C   UNL     1       7.496   7.171  17.396  0.00  0.00    +0.000 C 
ENDBRANCH  10  14
BRANCH  11  16
ATOM     16  O   UNL     1       5.713   3.744  16.191  0.00  0.00    +0.000 OA
ATOM     17  C   UNL     1       6.004   3.751  14.805  0.00  0.00    +0.000 C 
ENDBRANCH  11  16
ENDBRANCH   1   8
BRANCH   3  18
ATOM     18  C   UNL     1       0.385   9.879  20.277  0.00  0.00    +0.000 A 
ATOM     19  C   UNL     1      -0.368  11.025  20.003  0.00  0.00    +0.000 A 
ATOM     20  C   UNL     1      -1.149  11.621  21.000  0.00  0.00    +0.000 A 
ATOM     21  C   UNL     1      -1.202  11.091  22.299  0.00  0.00    +0.000 A 
ATOM     22  C   UNL     1      -0.432   9.952  22.574  0.00  0.00    +0.000 A 
ATOM     23  C   UNL     1       0.345   9.347  21.574  0.00  0.00    +0.000 A 
BRANCH  21  24
ATOM     24  N   UNL     1      -1.971  11.787  23.254  0.00  0.00    +0.000 NA
ATOM     25  C   UNL     1      -1.691  12.916  23.419  0.00  0.00    +0.000 C 
ATOM     26  S   UNL     1      -1.365  14.457  23.666  0.00  0.00    +0.000 S 
ENDBRANCH  21  24
ENDBRANCH   3  18
TORSDOF 6
ENDMDL
MODEL 4
REMARK VINA RESULT:      -7.4      4.630      9.334
REMARK  Name = 
REMARK  9 active torsions:
REMARK  status: ('A' for Active; 'I' for Inactive)
REMARK    1  A    between atoms: C_1  and  O_2
REMARK    2  A    between atoms: O_2  and  C_3
REMARK    3  A    between atoms: C_5  and  C_6
REMARK    4  A    between atoms: C_8  and  C_9
REMARK    5  A    between atoms: C_12  and  N_13
REMARK    6  A    between atoms: C_21  and  O_22
REMARK    7  A    between atoms: O_22  and  C_23
REMARK    8  A    between atoms: C_24  and  O_25
REMARK    9  A    between atoms: O_25  and  C_26
REMARK                            x       y       z     vdW  Elec       q    Type
REMARK                         _______ _______ _______ _____ _____    ______ ____
ROOT
ATOM      1  C   UNL     1       2.075   8.088  19.100  0.00  0.00    +0.000 A 
ATOM      2  N   UNL     1       2.789   7.873  18.017  0.00  0.00    +0.000 NA
ATOM      3  C   UNL     1       3.288   6.605  18.232  0.00  0.00    +0.000 A 
ATOM      4  N   UNL     1       2.917   6.067  19.406  0.00  0.00    +0.000 NA
ATOM      5  O   UNL     1       2.117   7.047  19.982  0.00  0.00    +0.000 OA
ENDROOT
BRANCH   1   8
ATOM      6  C   UNL     1      -0.632  10.665  18.699  0.00  0.00    +0.000 A 
ATOM      7  C   UNL     1       0.419   9.778  18.406  0.00  0.00    +0.000 A 
ATOM      8  C   UNL     1       1.167   9.182  19.421  0.00  0.00    +0.000 A 
ATOM      9  C   UNL     1       0.937   9.593  20.733  0.00  0.00    +0.000 A 
ATOM     10  C   UNL     1      -0.047  10.544  21.047  0.00  0.00    +0.000 A 
ATOM     11  C   UNL     1      -0.855  11.091  20.027  0.00  0.00    +0.000 A 
BRANCH   6  13
ATOM     12  C   UNL     1      -2.074  10.103  16.904  0.00  0.00    +0.000 C 
ATOM     13  O   UNL     1      -1.436  11.121  17.684  0.00  0.00    +0.000 OA
ENDBRANCH   6  13
BRANCH  10  14
ATOM     14  O   UNL     1      -0.088  10.772  22.401  0.00  0.00    +0.000 OA
ATOM     15  C   UNL     1      -0.254   9.685  23.295  0.00  0.00    +0.000 C 
ENDBRANCH  10  14
BRANCH  11  16
ATOM     16  O   UNL     1      -1.793  11.997  20.437  0.00  0.00    +0.000 OA
ATOM     17  C   UNL     1      -1.569  13.392  20.328  0.00  0.00    +0.000 C 
ENDBRANCH  11  16
ENDBRANCH   1   8
BRANCH   3  18
ATOM     18  C   UNL     1       4.122   5.910  17.258  0.00  0.00    +0.000 A 
ATOM     19  C   UNL     1       4.821   6.615  16.272  0.00  0.00    +0.000 A 
ATOM     20  C   UNL     1       5.617   5.939  15.339  0.00  0.00    +0.000 A 
ATOM     21  C   UNL     1       5.740   4.541  15.363  0.00  0.00    +0.000 A 
ATOM     22  C   UNL     1       5.024   3.837  16.342  0.00  0.00    +0.000 A 
ATOM     23  C   UNL     1       4.232   4.511  17.284  0.00  0.00    +0.000 A 
BRANCH  21  24
ATOM     24  N   UNL     1       6.518   3.941  14.352  0.00  0.00    +0.000 NA
ATOM     25  C   UNL     1       5.948   3.643  13.370  0.00  0.00    +0.000 C 
ATOM     26  S   UNL     1       5.226   3.238  12.007  0.00  0.00    +0.000 S 
ENDBRANCH  21  24
ENDBRANCH   3  18
TORSDOF 6
ENDMDL
MODEL 5
REMARK VINA RESULT:      -7.3      1.983      2.817
REMARK  Name = 
REMARK  9 active torsions:
REMARK  status: ('A' for Active; 'I' for Inactive)
REMARK    1  A    between atoms: C_1  and  O_2
REMARK    2  A    between atoms: O_2  and  C_3
REMARK    3  A    between atoms: C_5  and  C_6
REMARK    4  A    between atoms: C_8  and  C_9
REMARK    5  A    between atoms: C_12  and  N_13
REMARK    6  A    between atoms: C_21  and  O_22
REMARK    7  A    between atoms: O_22  and  C_23
REMARK    8  A    between atoms: C_24  and  O_25
REMARK    9  A    between atoms: O_25  and  C_26
REMARK                            x       y       z     vdW  Elec       q    Type
REMARK                         _______ _______ _______ _____ _____    ______ ____
ROOT
ATOM      1  C   UNL     1       2.057   7.331  19.861  0.00  0.00    +0.000 A 
ATOM      2  N   UNL     1       1.377   7.841  20.866  0.00  0.00    +0.000 NA
ATOM      3  C   UNL     1       1.004   9.077  20.380  0.00  0.00    +0.000 A 
ATOM      4  N   UNL     1       1.450   9.330  19.138  0.00  0.00    +0.000 NA
ATOM      5  O   UNL     1       2.148   8.178  18.795  0.00  0.00    +0.000 OA
ENDROOT
BRANCH   1   8
ATOM      6  C   UNL     1       4.523   4.564  19.235  0.00  0.00    +0.000 A 
ATOM      7  C   UNL     1       3.890   5.819  19.202  0.00  0.00    +0.000 A 
ATOM      8  C   UNL     1       2.590   5.987  19.678  0.00  0.00    +0.000 A 
ATOM      9  C   UNL     1       1.880   4.850  20.063  0.00  0.00    +0.000 A 
ATOM     10  C   UNL     1       2.459   3.571  20.022  0.00  0.00    +0.000 A 
ATOM     11  C   UNL     1       3.799   3.411  19.611  0.00  0.00    +0.000 A 
BRANCH   6  13
ATOM     12  C   UNL     1       6.126   4.549  17.490  0.00  0.00    +0.000 C 
ATOM     13  O   UNL     1       5.849   4.465  18.891  0.00  0.00    +0.000 OA
ENDBRANCH   6  13
BRANCH  10  14
ATOM     14  O   UNL     1       1.567   2.621  20.458  0.00  0.00    +0.000 OA
ATOM     15  C   UNL     1       1.377   2.416  21.848  0.00  0.00    +0.000 C 
ENDBRANCH  10  14
BRANCH  11  16
ATOM     16  O   UNL     1       4.272   2.129  19.621  0.00  0.00    +0.000 OA
ATOM     17  C   UNL     1       3.957   1.218  18.583  0.00  0.00    +0.000 C 
ENDBRANCH  11  16
ENDBRANCH   1   8
BRANCH   3  18
ATOM     18  C   UNL     1       0.179  10.008  21.143  0.00  0.00    +0.000 A 
ATOM     19  C   UNL     1      -0.201  11.243  20.605  0.00  0.00    +0.000 A 
ATOM     20  C   UNL     1      -0.991  12.130  21.346  0.00  0.00    +0.000 A 
ATOM     21  C   UNL     1      -1.425  11.812  22.643  0.00  0.00    +0.000 A 
ATOM     22  C   UNL     1      -1.027  10.581  23.184  0.00  0.00    +0.000 A 
ATOM     23  C   UNL     1      -0.242   9.685  22.441  0.00  0.00    +0.000 A 
BRANCH  21  24
ATOM     24  N   UNL     1      -2.170  12.788  23.336  0.00  0.00    +0.000 NA
ATOM     25  C   UNL     1      -1.643  13.826  23.492  0.00  0.00    +0.000 C 
ATOM     26  S   UNL     1      -0.981  15.259  23.712  0.00  0.00    +0.000 S 
ENDBRANCH  21  24
ENDBRANCH   3  18
TORSDOF 6
ENDMDL
MODEL 6
REMARK VINA RESULT:      -7.3      1.727      3.375
REMARK  Name = 
REMARK  9 active torsions:
REMARK  status: ('A' for Active; 'I' for Inactive)
REMARK    1  A    between atoms: C_1  and  O_2
REMARK    2  A    between atoms: O_2  and  C_3
REMARK    3  A    between atoms: C_5  and  C_6
REMARK    4  A    between atoms: C_8  and  C_9
REMARK    5  A    between atoms: C_12  and  N_13
REMARK    6  A    between atoms: C_21  and  O_22
REMARK    7  A    between atoms: O_22  and  C_23
REMARK    8  A    between atoms: C_24  and  O_25
REMARK    9  A    between atoms: O_25  and  C_26
REMARK                            x       y       z     vdW  Elec       q    Type
REMARK                         _______ _______ _______ _____ _____    ______ ____
ROOT
ATOM      1  C   UNL     1       1.923   7.832  19.687  0.00  0.00    +0.000 A 
ATOM      2  N   UNL     1       1.265   8.276  20.736  0.00  0.00    +0.000 NA
ATOM      3  C   UNL     1       0.700   9.443  20.265  0.00  0.00    +0.000 A 
ATOM      4  N   UNL     1       1.012   9.721  18.988  0.00  0.00    +0.000 NA
ATOM      5  O   UNL     1       1.822   8.658  18.605  0.00  0.00    +0.000 OA
ENDROOT
BRANCH   1   8
ATOM      6  C   UNL     1       2.940   4.246  20.176  0.00  0.00    +0.000 A 
ATOM      7  C   UNL     1       2.500   5.556  20.439  0.00  0.00    +0.000 A 
ATOM      8  C   UNL     1       2.607   6.562  19.479  0.00  0.00    +0.000 A 
ATOM      9  C   UNL     1       3.287   6.271  18.298  0.00  0.00    +0.000 A 
ATOM     10  C   UNL     1       3.816   4.995  18.045  0.00  0.00    +0.000 A 
ATOM     11  C   UNL     1       3.641   3.956  18.985  0.00  0.00    +0.000 A 
BRANCH   6  13
ATOM     12  C   UNL     1       1.323   2.831  21.177  0.00  0.00    +0.000 C 
ATOM     13  O   UNL     1       2.689   3.252  21.089  0.00  0.00    +0.000 OA
ENDBRANCH   6  13
BRANCH  10  14
ATOM     14  O   UNL     1       4.427   4.957  16.816  0.00  0.00    +0.000 OA
ATOM     15  C   UNL     1       5.184   6.070  16.369  0.00  0.00    +0.000 C 
ENDBRANCH  10  14
BRANCH  11  16
ATOM     16  O   UNL     1       4.179   2.749  18.639  0.00  0.00    +0.000 OA
ATOM     17  C   UNL     1       3.384   1.721  18.074  0.00  0.00    +0.000 C 
ENDBRANCH  11  16
ENDBRANCH   1   8
BRANCH   3  18
ATOM     18  C   UNL     1      -0.174  10.280  21.080  0.00  0.00    +0.000 A 
ATOM     19  C   UNL     1      -0.812  11.400  20.536  0.00  0.00    +0.000 A 
ATOM     20  C   UNL     1      -1.648  12.199  21.327  0.00  0.00    +0.000 A 
ATOM     21  C   UNL     1      -1.872  11.903  22.681  0.00  0.00    +0.000 A 
ATOM     22  C   UNL     1      -1.216  10.789  23.225  0.00  0.00    +0.000 A 
ATOM     23  C   UNL     1      -0.385   9.981  22.434  0.00  0.00    +0.000 A 
BRANCH  21  24
ATOM     24  N   UNL     1      -2.684  12.792  23.414  0.00  0.00    +0.000 NA
ATOM     25  C   UNL     1      -3.787  12.919  23.031  0.00  0.00    +0.000 C 
ATOM     26  S   UNL     1      -5.301  13.110  22.566  0.00  0.00    +0.000 S 
ENDBRANCH  21  24
ENDBRANCH   3  18
TORSDOF 6
ENDMDL
MODEL 7
REMARK VINA RESULT:      -7.3      1.474      1.929
REMARK  Name = 
REMARK  9 active torsions:
REMARK  status: ('A' for Active; 'I' for Inactive)
REMARK    1  A    between atoms: C_1  and  O_2
REMARK    2  A    between atoms: O_2  and  C_3
REMARK    3  A    between atoms: C_5  and  C_6
REMARK    4  A    between atoms: C_8  and  C_9
REMARK    5  A    between atoms: C_12  and  N_13
REMARK    6  A    between atoms: C_21  and  O_22
REMARK    7  A    between atoms: O_22  and  C_23
REMARK    8  A    between atoms: C_24  and  O_25
REMARK    9  A    between atoms: O_25  and  C_26
REMARK                            x       y       z     vdW  Elec       q    Type
REMARK                         _______ _______ _______ _____ _____    ______ ____
ROOT
ATOM      1  C   UNL     1       2.237   8.297  18.379  0.00  0.00    +0.000 A 
ATOM      2  N   UNL     1       1.731   8.497  19.577  0.00  0.00    +0.000 NA
ATOM      3  C   UNL     1       0.954   9.621  19.392  0.00  0.00    +0.000 A 
ATOM      4  N   UNL     1       0.992  10.108  18.140  0.00  0.00    +0.000 NA
ATOM      5  O   UNL     1       1.842   9.235  17.471  0.00  0.00    +0.000 OA
ENDROOT
BRANCH   1   8
ATOM      6  C   UNL     1       5.133   6.378  16.943  0.00  0.00    +0.000 A 
ATOM      7  C   UNL     1       4.240   7.424  17.236  0.00  0.00    +0.000 A 
ATOM      8  C   UNL     1       3.021   7.180  17.869  0.00  0.00    +0.000 A 
ATOM      9  C   UNL     1       2.647   5.854  18.082  0.00  0.00    +0.000 A 
ATOM     10  C   UNL     1       3.482   4.784  17.719  0.00  0.00    +0.000 A 
ATOM     11  C   UNL     1       4.747   5.034  17.147  0.00  0.00    +0.000 A 
BRANCH   6  13
ATOM     12  C   UNL     1       7.376   6.963  17.438  0.00  0.00    +0.000 C 
ATOM     13  O   UNL     1       6.381   6.671  16.451  0.00  0.00    +0.000 OA
ENDBRANCH   6  13
BRANCH  10  14
ATOM     14  O   UNL     1       2.899   3.582  18.040  0.00  0.00    +0.000 OA
ATOM     15  C   UNL     1       3.005   3.076  19.360  0.00  0.00    +0.000 C 
ENDBRANCH  10  14
BRANCH  11  16
ATOM     16  O   UNL     1       5.489   3.928  16.843  0.00  0.00    +0.000 OA
ATOM     17  C   UNL     1       5.896   3.654  15.514  0.00  0.00    +0.000 C 
ENDBRANCH  11  16
ENDBRANCH   1   8
BRANCH   3  18
ATOM     18  C   UNL     1       0.146  10.205  20.458  0.00  0.00    +0.000 A 
ATOM     19  C   UNL     1       0.114   9.634  21.735  0.00  0.00    +0.000 A 
ATOM     20  C   UNL     1      -0.665  10.201  22.750  0.00  0.00    +0.000 A 
ATOM     21  C   UNL     1      -1.434  11.353  22.522  0.00  0.00    +0.000 A 
ATOM     22  C   UNL     1      -1.412  11.912  21.236  0.00  0.00    +0.000 A 
ATOM     23  C   UNL     1      -0.625  11.352  20.218  0.00  0.00    +0.000 A 
BRANCH  21  24
ATOM     24  N   UNL     1      -2.231  11.823  23.587  0.00  0.00    +0.000 NA
ATOM     25  C   UNL     1      -3.229  12.363  23.285  0.00  0.00    +0.000 C 
ATOM     26  S   UNL     1      -4.606  13.085  22.930  0.00  0.00    +0.000 S 
ENDBRANCH  21  24
ENDBRANCH   3  18
TORSDOF 6
ENDMDL
MODEL 8
REMARK VINA RESULT:      -7.2      2.099      2.900
REMARK  Name = 
REMARK  9 active torsions:
REMARK  status: ('A' for Active; 'I' for Inactive)
REMARK    1  A    between atoms: C_1  and  O_2
REMARK    2  A    between atoms: O_2  and  C_3
REMARK    3  A    between atoms: C_5  and  C_6
REMARK    4  A    between atoms: C_8  and  C_9
REMARK    5  A    between atoms: C_12  and  N_13
REMARK    6  A    between atoms: C_21  and  O_22
REMARK    7  A    between atoms: O_22  and  C_23
REMARK    8  A    between atoms: C_24  and  O_25
REMARK    9  A    between atoms: O_25  and  C_26
REMARK                            x       y       z     vdW  Elec       q    Type
REMARK                         _______ _______ _______ _____ _____    ______ ____
ROOT
ATOM      1  C   UNL     1       1.999   7.438  19.777  0.00  0.00    +0.000 A 
ATOM      2  N   UNL     1       1.282   7.923  20.768  0.00  0.00    +0.000 NA
ATOM      3  C   UNL     1       0.940   9.177  20.306  0.00  0.00    +0.000 A 
ATOM      4  N   UNL     1       1.439   9.464  19.092  0.00  0.00    +0.000 NA
ATOM      5  O   UNL     1       2.142   8.316  18.743  0.00  0.00    +0.000 OA
ENDROOT
BRANCH   1   8
ATOM      6  C   UNL     1       4.444   4.679  19.039  0.00  0.00    +0.000 A 
ATOM      7  C   UNL     1       3.803   5.931  19.031  0.00  0.00    +0.000 A 
ATOM      8  C   UNL     1       2.529   6.096  19.575  0.00  0.00    +0.000 A 
ATOM      9  C   UNL     1       1.848   4.958  20.004  0.00  0.00    +0.000 A 
ATOM     10  C   UNL     1       2.430   3.681  19.941  0.00  0.00    +0.000 A 
ATOM     11  C   UNL     1       3.747   3.526  19.460  0.00  0.00    +0.000 A 
BRANCH   6  13
ATOM     12  C   UNL     1       6.663   5.477  19.273  0.00  0.00    +0.000 C 
ATOM     13  O   UNL     1       5.750   4.585  18.626  0.00  0.00    +0.000 OA
ENDBRANCH   6  13
BRANCH  10  14
ATOM     14  O   UNL     1       1.568   2.730  20.430  0.00  0.00    +0.000 OA
ATOM     15  C   UNL     1       1.479   2.509  21.828  0.00  0.00    +0.000 C 
ENDBRANCH  10  14
BRANCH  11  16
ATOM     16  O   UNL     1       4.227   2.246  19.453  0.00  0.00    +0.000 OA
ATOM     17  C   UNL     1       3.801   1.303  18.485  0.00  0.00    +0.000 C 
ENDBRANCH  11  16
ENDBRANCH   1   8
BRANCH   3  18
ATOM     18  C   UNL     1       0.090  10.091  21.063  0.00  0.00    +0.000 A 
ATOM     19  C   UNL     1      -0.207   9.852  22.409  0.00  0.00    +0.000 A 
ATOM     20  C   UNL     1      -1.025  10.734  23.126  0.00  0.00    +0.000 A 
ATOM     21  C   UNL     1      -1.568  11.879  22.523  0.00  0.00    +0.000 A 
ATOM     22  C   UNL     1      -1.281  12.104  21.169  0.00  0.00    +0.000 A 
ATOM     23  C   UNL     1      -0.455  11.228  20.448  0.00  0.00    +0.000 A 
BRANCH  21  24
ATOM     24  N   UNL     1      -2.424  12.680  23.305  0.00  0.00    +0.000 NA
ATOM     25  C   UNL     1      -1.961  13.675  23.723  0.00  0.00    +0.000 C 
ATOM     26  S   UNL     1      -1.387  15.048  24.297  0.00  0.00    +0.000 S 
ENDBRANCH  21  24
ENDBRANCH   3  18
TORSDOF 6
ENDMDL
MODEL 9
REMARK VINA RESULT:      -7.2      1.744      2.845
REMARK  Name = 
REMARK  9 active torsions:
REMARK  status: ('A' for Active; 'I' for Inactive)
REMARK    1  A    between atoms: C_1  and  O_2
REMARK    2  A    between atoms: O_2  and  C_3
REMARK    3  A    between atoms: C_5  and  C_6
REMARK    4  A    between atoms: C_8  and  C_9
REMARK    5  A    between atoms: C_12  and  N_13
REMARK    6  A    between atoms: C_21  and  O_22
REMARK    7  A    between atoms: O_22  and  C_23
REMARK    8  A    between atoms: C_24  and  O_25
REMARK    9  A    between atoms: O_25  and  C_26
REMARK                            x       y       z     vdW  Elec       q    Type
REMARK                         _______ _______ _______ _____ _____    ______ ____
ROOT
ATOM      1  C   UNL     1       1.845   7.683  19.753  0.00  0.00    +0.000 A 
ATOM      2  N   UNL     1       1.110   8.126  20.750  0.00  0.00    +0.000 NA
ATOM      3  C   UNL     1       0.786   9.403  20.341  0.00  0.00    +0.000 A 
ATOM      4  N   UNL     1       1.313   9.743  19.153  0.00  0.00    +0.000 NA
ATOM      5  O   UNL     1       2.015   8.608  18.764  0.00  0.00    +0.000 OA
ENDROOT
BRANCH   1   8
ATOM      6  C   UNL     1       3.806   4.904  18.152  0.00  0.00    +0.000 A 
ATOM      7  C   UNL     1       3.084   6.098  18.327  0.00  0.00    +0.000 A 
ATOM      8  C   UNL     1       2.370   6.347  19.499  0.00  0.00    +0.000 A 
ATOM      9  C   UNL     1       2.274   5.323  20.439  0.00  0.00    +0.000 A 
ATOM     10  C   UNL     1       2.911   4.085  20.249  0.00  0.00    +0.000 A 
ATOM     11  C   UNL     1       3.696   3.861  19.098  0.00  0.00    +0.000 A 
BRANCH   6  13
ATOM     12  C   UNL     1       5.833   5.500  17.079  0.00  0.00    +0.000 C 
ATOM     13  O   UNL     1       4.611   4.755  17.050  0.00  0.00    +0.000 OA
ENDBRANCH   6  13
BRANCH  10  14
ATOM     14  O   UNL     1       2.677   3.250  21.314  0.00  0.00    +0.000 OA
ATOM     15  C   UNL     1       1.395   2.670  21.488  0.00  0.00    +0.000 C 
ENDBRANCH  10  14
BRANCH  11  16
ATOM     16  O   UNL     1       4.286   2.631  19.014  0.00  0.00    +0.000 OA
ATOM     17  C   UNL     1       3.605   1.523  18.454  0.00  0.00    +0.000 C 
ENDBRANCH  11  16
ENDBRANCH   1   8
BRANCH   3  18
ATOM     18  C   UNL     1      -0.073  10.287  21.122  0.00  0.00    +0.000 A 
ATOM     19  C   UNL     1      -0.382  10.000  22.456  0.00  0.00    +0.000 A 
ATOM     20  C   UNL     1      -1.209  10.853  23.196  0.00  0.00    +0.000 A 
ATOM     21  C   UNL     1      -1.750  12.017  22.629  0.00  0.00    +0.000 A 
ATOM     22  C   UNL     1      -1.452  12.292  21.287  0.00  0.00    +0.000 A 
ATOM     23  C   UNL     1      -0.616  11.444  20.543  0.00  0.00    +0.000 A 
BRANCH  21  24
ATOM     24  N   UNL     1      -2.616  12.788  23.431  0.00  0.00    +0.000 NA
ATOM     25  C   UNL     1      -3.714  12.912  23.035  0.00  0.00    +0.000 C 
ATOM     26  S   UNL     1      -5.223  13.094  22.551  0.00  0.00    +0.000 S 
ENDBRANCH  21  24
ENDBRANCH   3  18
TORSDOF 6
ENDMDL
