MODEL 1
REMARK VINA RESULT:      -8.0      0.000      0.000
REMARK  Name = 
REMARK  7 active torsions:
REMARK  status: ('A' for Active; 'I' for Inactive)
REMARK    1  A    between atoms: C_1  and  C_2
REMARK    2  A    between atoms: C_2  and  O_3
REMARK    3  A    between atoms: O_3  and  C_4
REMARK    4  A    between atoms: C_9  and  C_10
REMARK    5  A    between atoms: N_12  and  C_13
REMARK    6  A    between atoms: N_21  and  C_22
REMARK    7  A    between atoms: C_23  and  C_24
REMARK                            x       y       z     vdW  Elec       q    Type
REMARK                         _______ _______ _______ _____ _____    ______ ____
ROOT
ATOM      1  C   UNL     1       5.083   4.510  17.697  0.00  0.00    +0.000 C 
ATOM      2  O   UNL     1       5.758   4.254  18.690  0.00  0.00    +0.000 OA
ATOM      3  N   UNL     1       3.709   4.676  17.739  0.00  0.00    +0.000 N 
ATOM      4  H   UNL     1       3.217   4.529  16.865  0.00  0.00    +0.000 HD
ENDROOT
BRANCH   3   5
ATOM      5  C   UNL     1       3.011   4.506  18.923  0.00  0.00    +0.000 A 
ATOM      6  C   UNL     1       2.424   5.435  19.820  0.00  0.00    +0.000 A 
ATOM      7  N   UNL     1       2.186   6.827  19.664  0.00  0.00    +0.000 N 
ATOM      8  C   UNL     1       1.604   7.674  20.577  0.00  0.00    +0.000 A 
ATOM      9  N   UNL     1       1.456   8.875  20.065  0.00  0.00    +0.000 NA
ATOM     10  N   UNL     1       1.935   8.839  18.781  0.00  0.00    +0.000 NA
ATOM     11  C   UNL     1       2.360   7.616  18.555  0.00  0.00    +0.000 A 
ATOM     12  N   UNL     1       1.925   4.836  20.910  0.00  0.00    +0.000 NA
ATOM     13  N   UNL     1       2.162   3.529  20.696  0.00  0.00    +0.000 N 
ATOM     14  C   UNL     1       1.798   2.577  21.722  0.00  0.00    +0.000 C 
ATOM     15  C   UNL     1       2.754   3.267  19.483  0.00  0.00    +0.000 A 
ATOM     16  C   UNL     1       3.108   1.903  19.016  0.00  0.00    +0.000 C 
ENDBRANCH   3   5
BRANCH   1  22
ATOM     17  C   UNL     1       6.970   5.318  16.136  0.00  0.00    +0.000 A 
ATOM     18  C   UNL     1       7.580   5.233  14.874  0.00  0.00    +0.000 A 
ATOM     19  C   UNL     1       6.954   4.566  13.820  0.00  0.00    +0.000 A 
ATOM     20  C   UNL     1       5.723   3.954  14.020  0.00  0.00    +0.000 A 
ATOM     21  C   UNL     1       5.143   3.970  15.286  0.00  0.00    +0.000 A 
ATOM     22  C   UNL     1       5.764   4.630  16.364  0.00  0.00    +0.000 A 
BRANCH  17  23
ATOM     23  O   UNL     1       7.512   6.044  17.166  0.00  0.00    +0.000 OA
BRANCH  23  25
ATOM     24  C   UNL     1       8.152   8.151  18.076  0.00  0.00    +0.000 C 
ATOM     25  C   UNL     1       7.115   7.416  17.248  0.00  0.00    +0.000 C 
ENDBRANCH  23  25
ENDBRANCH  17  23
ENDBRANCH   1  22
TORSDOF 4
ENDMDL
MODEL 2
REMARK VINA RESULT:      -7.8      1.035      1.039
REMARK  Name = 
REMARK  7 active torsions:
REMARK  status: ('A' for Active; 'I' for Inactive)
REMARK    1  A    between atoms: C_1  and  C_2
REMARK    2  A    between atoms: C_2  and  O_3
REMARK    3  A    between atoms: O_3  and  C_4
REMARK    4  A    between atoms: C_9  and  C_10
REMARK    5  A    between atoms: N_12  and  C_13
REMARK    6  A    between atoms: N_21  and  C_22
REMARK    7  A    between atoms: C_23  and  C_24
REMARK                            x       y       z     vdW  Elec       q    Type
REMARK                         _______ _______ _______ _____ _____    ______ ____
ROOT
ATOM      1  C   UNL     1       4.218   4.409  16.993  0.00  0.00    +0.000 C 
ATOM      2  O   UNL     1       3.129   3.950  16.662  0.00  0.00    +0.000 OA
ATOM      3  N   UNL     1       4.534   4.740  18.301  0.00  0.00    +0.000 N 
ATOM      4  H   UNL     1       5.279   5.416  18.420  0.00  0.00    +0.000 HD
ENDROOT
BRANCH   3   5
ATOM      5  C   UNL     1       3.594   4.612  19.310  0.00  0.00    +0.000 A 
ATOM      6  C   UNL     1       2.729   5.552  19.926  0.00  0.00    +0.000 A 
ATOM      7  N   UNL     1       2.409   6.882  19.543  0.00  0.00    +0.000 N 
ATOM      8  C   UNL     1       1.553   7.744  20.187  0.00  0.00    +0.000 A 
ATOM      9  N   UNL     1       1.421   8.860  19.505  0.00  0.00    +0.000 NA
ATOM     10  N   UNL     1       2.192   8.748  18.377  0.00  0.00    +0.000 NA
ATOM     11  C   UNL     1       2.768   7.567  18.411  0.00  0.00    +0.000 A 
ATOM     12  N   UNL     1       2.044   5.014  20.944  0.00  0.00    +0.000 NA
ATOM     13  N   UNL     1       2.442   3.729  20.958  0.00  0.00    +0.000 N 
ATOM     14  C   UNL     1       1.935   2.853  21.989  0.00  0.00    +0.000 C 
ATOM     15  C   UNL     1       3.326   3.416  19.952  0.00  0.00    +0.000 A 
ATOM     16  C   UNL     1       3.904   2.061  19.755  0.00  0.00    +0.000 C 
ENDBRANCH   3   5
BRANCH   1  22
ATOM     17  C   UNL     1       6.237   5.660  15.988  0.00  0.00    +0.000 A 
ATOM     18  C   UNL     1       7.245   5.688  15.012  0.00  0.00    +0.000 A 
ATOM     19  C   UNL     1       7.228   4.795  13.939  0.00  0.00    +0.000 A 
ATOM     20  C   UNL     1       6.217   3.847  13.842  0.00  0.00    +0.000 A 
ATOM     21  C   UNL     1       5.252   3.763  14.844  0.00  0.00    +0.000 A 
ATOM     22  C   UNL     1       5.259   4.649  15.938  0.00  0.00    +0.000 A 
BRANCH  17  23
ATOM     23  O   UNL     1       6.172   6.581  17.003  0.00  0.00    +0.000 OA
BRANCH  23  25
ATOM     24  C   UNL     1       7.789   6.228  18.718  0.00  0.00    +0.000 C 
ATOM     25  C   UNL     1       7.425   7.059  17.502  0.00  0.00    +0.000 C 
ENDBRANCH  23  25
ENDBRANCH  17  23
ENDBRANCH   1  22
TORSDOF 4
ENDMDL
MODEL 3
REMARK VINA RESULT:      -7.6      1.216      3.463
REMARK  Name = 
REMARK  7 active torsions:
REMARK  status: ('A' for Active; 'I' for Inactive)
REMARK    1  A    between atoms: C_1  and  C_2
REMARK    2  A    between atoms: C_2  and  O_3
REMARK    3  A    between atoms: O_3  and  C_4
REMARK    4  A    between atoms: C_9  and  C_10
REMARK    5  A    between atoms: N_12  and  C_13
REMARK    6  A    between atoms: N_21  and  C_22
REMARK    7  A    between atoms: C_23  and  C_24
REMARK                            x       y       z     vdW  Elec       q    Type
REMARK                         _______ _______ _______ _____ _____    ______ ____
ROOT
ATOM      1  C   UNL     1       4.635   5.717  18.060  0.00  0.00    +0.000 C 
ATOM      2  O   UNL     1       5.290   5.829  19.092  0.00  0.00    +0.000 OA
ATOM      3  N   UNL     1       3.276   5.977  17.995  0.00  0.00    +0.000 N 
ATOM      4  H   UNL     1       2.775   5.530  17.236  0.00  0.00    +0.000 HD
ENDROOT
BRANCH   3   5
ATOM      5  C   UNL     1       2.568   6.334  19.131  0.00  0.00    +0.000 A 
ATOM      6  C   UNL     1       2.132   5.582  20.252  0.00  0.00    +0.000 A 
ATOM      7  N   UNL     1       2.477   4.265  20.655  0.00  0.00    +0.000 N 
ATOM      8  C   UNL     1       2.017   3.592  21.763  0.00  0.00    +0.000 A 
ATOM      9  N   UNL     1       2.616   2.429  21.880  0.00  0.00    +0.000 NA
ATOM     10  N   UNL     1       3.503   2.315  20.840  0.00  0.00    +0.000 NA
ATOM     11  C   UNL     1       3.413   3.414  20.125  0.00  0.00    +0.000 A 
ATOM     12  N   UNL     1       1.380   6.313  21.087  0.00  0.00    +0.000 NA
ATOM     13  N   UNL     1       1.365   7.534  20.521  0.00  0.00    +0.000 N 
ATOM     14  C   UNL     1       0.581   8.580  21.140  0.00  0.00    +0.000 C 
ATOM     15  C   UNL     1       2.120   7.620  19.375  0.00  0.00    +0.000 A 
ATOM     16  C   UNL     1       2.265   8.863  18.574  0.00  0.00    +0.000 C 
ENDBRANCH   3   5
BRANCH   1  22
ATOM     17  C   UNL     1       6.340   5.965  16.141  0.00  0.00    +0.000 A 
ATOM     18  C   UNL     1       7.004   5.359  15.063  0.00  0.00    +0.000 A 
ATOM     19  C   UNL     1       6.597   4.115  14.578  0.00  0.00    +0.000 A 
ATOM     20  C   UNL     1       5.537   3.449  15.182  0.00  0.00    +0.000 A 
ATOM     21  C   UNL     1       4.919   4.007  16.299  0.00  0.00    +0.000 A 
ATOM     22  C   UNL     1       5.322   5.257  16.807  0.00  0.00    +0.000 A 
BRANCH  17  23
ATOM     23  O   UNL     1       6.653   7.226  16.582  0.00  0.00    +0.000 OA
BRANCH  23  25
ATOM     24  C   UNL     1       7.984   8.788  17.794  0.00  0.00    +0.000 C 
ATOM     25  C   UNL     1       7.742   7.318  17.506  0.00  0.00    +0.000 C 
ENDBRANCH  23  25
ENDBRANCH  17  23
ENDBRANCH   1  22
TORSDOF 4
ENDMDL
MODEL 4
REMARK VINA RESULT:      -7.6      2.740      6.253
REMARK  Name = 
REMARK  7 active torsions:
REMARK  status: ('A' for Active; 'I' for Inactive)
REMARK    1  A    between atoms: C_1  and  C_2
REMARK    2  A    between atoms: C_2  and  O_3
REMARK    3  A    between atoms: O_3  and  C_4
REMARK    4  A    between atoms: C_9  and  C_10
REMARK    5  A    between atoms: N_12  and  C_13
REMARK    6  A    between atoms: N_21  and  C_22
REMARK    7  A    between atoms: C_23  and  C_24
REMARK                            x       y       z     vdW  Elec       q    Type
REMARK                         _______ _______ _______ _____ _____    ______ ____
ROOT
ATOM      1  C   UNL     1       2.440   7.108  19.164  0.00  0.00    +0.000 C 
ATOM      2  O   UNL     1       2.943   6.727  20.216  0.00  0.00    +0.000 OA
ATOM      3  N   UNL     1       2.430   6.342  18.009  0.00  0.00    +0.000 N 
ATOM      4  H   UNL     1       2.327   6.852  17.139  0.00  0.00    +0.000 HD
ENDROOT
BRANCH   3   5
ATOM      5  C   UNL     1       3.048   5.103  17.976  0.00  0.00    +0.000 A 
ATOM      6  C   UNL     1       4.299   4.681  17.457  0.00  0.00    +0.000 A 
ATOM      7  N   UNL     1       5.401   5.450  16.998  0.00  0.00    +0.000 N 
ATOM      8  C   UNL     1       6.594   4.974  16.507  0.00  0.00    +0.000 A 
ATOM      9  N   UNL     1       7.423   5.965  16.264  0.00  0.00    +0.000 NA
ATOM     10  N   UNL     1       6.785   7.129  16.605  0.00  0.00    +0.000 NA
ATOM     11  C   UNL     1       5.589   6.808  17.043  0.00  0.00    +0.000 A 
ATOM     12  N   UNL     1       4.460   3.354  17.550  0.00  0.00    +0.000 NA
ATOM     13  N   UNL     1       3.334   2.934  18.156  0.00  0.00    +0.000 N 
ATOM     14  C   UNL     1       3.142   1.517  18.366  0.00  0.00    +0.000 C 
ATOM     15  C   UNL     1       2.478   3.955  18.496  0.00  0.00    +0.000 A 
ATOM     16  C   UNL     1       1.175   3.745  19.178  0.00  0.00    +0.000 C 
ENDBRANCH   3   5
BRANCH   1  22
ATOM     17  C   UNL     1       1.062   9.060  20.134  0.00  0.00    +0.000 A 
ATOM     18  C   UNL     1       0.663  10.400  20.015  0.00  0.00    +0.000 A 
ATOM     19  C   UNL     1       0.916  11.122  18.847  0.00  0.00    +0.000 A 
ATOM     20  C   UNL     1       1.593  10.521  17.794  0.00  0.00    +0.000 A 
ATOM     21  C   UNL     1       2.059   9.215  17.930  0.00  0.00    +0.000 A 
ATOM     22  C   UNL     1       1.821   8.474  19.104  0.00  0.00    +0.000 A 
BRANCH  17  23
ATOM     23  O   UNL     1       0.749   8.295  21.229  0.00  0.00    +0.000 OA
BRANCH  23  25
ATOM     24  C   UNL     1       0.031   9.400  23.215  0.00  0.00    +0.000 C 
ATOM     25  C   UNL     1      -0.421   8.684  21.956  0.00  0.00    +0.000 C 
ENDBRANCH  23  25
ENDBRANCH  17  23
ENDBRANCH   1  22
TORSDOF 4
ENDMDL
MODEL 5
REMARK VINA RESULT:      -7.3      2.847      6.308
REMARK  Name = 
REMARK  7 active torsions:
REMARK  status: ('A' for Active; 'I' for Inactive)
REMARK    1  A    between atoms: C_1  and  C_2
REMARK    2  A    between atoms: C_2  and  O_3
REMARK    3  A    between atoms: O_3  and  C_4
REMARK    4  A    between atoms: C_9  and  C_10
REMARK    5  A    between atoms: N_12  and  C_13
REMARK    6  A    between atoms: N_21  and  C_22
REMARK    7  A    between atoms: C_23  and  C_24
REMARK                            x       y       z     vdW  Elec       q    Type
REMARK                         _______ _______ _______ _____ _____    ______ ____
ROOT
ATOM      1  C   UNL     1       2.321   7.505  18.601  0.00  0.00    +0.000 C 
ATOM      2  O   UNL     1       1.906   6.911  17.611  0.00  0.00    +0.000 OA
ATOM      3  N   UNL     1       3.230   6.953  19.489  0.00  0.00    +0.000 N 
ATOM      4  H   UNL     1       3.235   7.350  20.422  0.00  0.00    +0.000 HD
ENDROOT
BRANCH   3   5
ATOM      5  C   UNL     1       3.682   5.655  19.323  0.00  0.00    +0.000 A 
ATOM      6  C   UNL     1       4.659   5.093  18.462  0.00  0.00    +0.000 A 
ATOM      7  N   UNL     1       5.632   5.733  17.649  0.00  0.00    +0.000 N 
ATOM      8  C   UNL     1       6.559   5.125  16.836  0.00  0.00    +0.000 A 
ATOM      9  N   UNL     1       7.363   6.017  16.302  0.00  0.00    +0.000 NA
ATOM     10  N   UNL     1       6.981   7.248  16.770  0.00  0.00    +0.000 NA
ATOM     11  C   UNL     1       5.957   7.063  17.572  0.00  0.00    +0.000 A 
ATOM     12  N   UNL     1       4.710   3.758  18.562  0.00  0.00    +0.000 NA
ATOM     13  N   UNL     1       3.795   3.470  19.506  0.00  0.00    +0.000 N 
ATOM     14  C   UNL     1       3.540   2.084  19.830  0.00  0.00    +0.000 C 
ATOM     15  C   UNL     1       3.193   4.581  20.046  0.00  0.00    +0.000 A 
ATOM     16  C   UNL     1       2.155   4.522  21.108  0.00  0.00    +0.000 C 
ENDBRANCH   3   5
BRANCH   1  22
ATOM     17  C   UNL     1       1.156   9.276  20.070  0.00  0.00    +0.000 A 
ATOM     18  C   UNL     1       0.861  10.633  20.279  0.00  0.00    +0.000 A 
ATOM     19  C   UNL     1       1.115  11.582  19.287  0.00  0.00    +0.000 A 
ATOM     20  C   UNL     1       1.690  11.190  18.084  0.00  0.00    +0.000 A 
ATOM     21  C   UNL     1       2.053   9.859  17.895  0.00  0.00    +0.000 A 
ATOM     22  C   UNL     1       1.813   8.889  18.888  0.00  0.00    +0.000 A 
BRANCH  17  23
ATOM     23  O   UNL     1       0.834   8.306  20.985  0.00  0.00    +0.000 OA
BRANCH  23  25
ATOM     24  C   UNL     1      -0.009   9.204  23.026  0.00  0.00    +0.000 C 
ATOM     25  C   UNL     1      -0.373   8.512  21.725  0.00  0.00    +0.000 C 
ENDBRANCH  23  25
ENDBRANCH  17  23
ENDBRANCH   1  22
TORSDOF 4
ENDMDL
MODEL 6
REMARK VINA RESULT:      -6.8      2.710      6.516
REMARK  Name = 
REMARK  7 active torsions:
REMARK  status: ('A' for Active; 'I' for Inactive)
REMARK    1  A    between atoms: C_1  and  C_2
REMARK    2  A    between atoms: C_2  and  O_3
REMARK    3  A    between atoms: O_3  and  C_4
REMARK    4  A    between atoms: C_9  and  C_10
REMARK    5  A    between atoms: N_12  and  C_13
REMARK    6  A    between atoms: N_21  and  C_22
REMARK    7  A    between atoms: C_23  and  C_24
REMARK                            x       y       z     vdW  Elec       q    Type
REMARK                         _______ _______ _______ _____ _____    ______ ____
ROOT
ATOM      1  C   UNL     1       2.610   7.240  19.108  0.00  0.00    +0.000 C 
ATOM      2  O   UNL     1       2.742   6.598  20.146  0.00  0.00    +0.000 OA
ATOM      3  N   UNL     1       3.302   6.947  17.944  0.00  0.00    +0.000 N 
ATOM      4  H   UNL     1       3.402   7.710  17.284  0.00  0.00    +0.000 HD
ENDROOT
BRANCH   3   5
ATOM      5  C   UNL     1       4.235   5.924  17.914  0.00  0.00    +0.000 A 
ATOM      6  C   UNL     1       4.122   4.530  18.147  0.00  0.00    +0.000 A 
ATOM      7  N   UNL     1       2.963   3.719  18.275  0.00  0.00    +0.000 N 
ATOM      8  C   UNL     1       2.923   2.363  18.497  0.00  0.00    +0.000 A 
ATOM      9  N   UNL     1       1.684   1.925  18.466  0.00  0.00    +0.000 NA
ATOM     10  N   UNL     1       0.873   3.000  18.208  0.00  0.00    +0.000 NA
ATOM     11  C   UNL     1       1.646   4.056  18.092  0.00  0.00    +0.000 A 
ATOM     12  N   UNL     1       5.312   3.915  18.111  0.00  0.00    +0.000 NA
ATOM     13  N   UNL     1       6.177   4.904  17.822  0.00  0.00    +0.000 N 
ATOM     14  C   UNL     1       7.589   4.600  17.762  0.00  0.00    +0.000 C 
ATOM     15  C   UNL     1       5.574   6.124  17.627  0.00  0.00    +0.000 A 
ATOM     16  C   UNL     1       6.316   7.367  17.292  0.00  0.00    +0.000 C 
ENDBRANCH   3   5
BRANCH   1  22
ATOM     17  C   UNL     1       1.082   8.989  20.231  0.00  0.00    +0.000 A 
ATOM     18  C   UNL     1       0.342  10.174  20.095  0.00  0.00    +0.000 A 
ATOM     19  C   UNL     1       0.098  10.727  18.837  0.00  0.00    +0.000 A 
ATOM     20  C   UNL     1       0.613  10.116  17.700  0.00  0.00    +0.000 A 
ATOM     21  C   UNL     1       1.410   8.981  17.829  0.00  0.00    +0.000 A 
ATOM     22  C   UNL     1       1.674   8.414  19.090  0.00  0.00    +0.000 A 
BRANCH  17  23
ATOM     23  O   UNL     1       1.261   8.368  21.441  0.00  0.00    +0.000 OA
BRANCH  23  25
ATOM     24  C   UNL     1       0.046   9.362  23.235  0.00  0.00    +0.000 C 
ATOM     25  C   UNL     1       1.406   9.229  22.575  0.00  0.00    +0.000 C 
ENDBRANCH  23  25
ENDBRANCH  17  23
ENDBRANCH   1  22
TORSDOF 4
ENDMDL
MODEL 7
REMARK VINA RESULT:      -6.7      1.524      3.578
REMARK  Name = 
REMARK  7 active torsions:
REMARK  status: ('A' for Active; 'I' for Inactive)
REMARK    1  A    between atoms: C_1  and  C_2
REMARK    2  A    between atoms: C_2  and  O_3
REMARK    3  A    between atoms: O_3  and  C_4
REMARK    4  A    between atoms: C_9  and  C_10
REMARK    5  A    between atoms: N_12  and  C_13
REMARK    6  A    between atoms: N_21  and  C_22
REMARK    7  A    between atoms: C_23  and  C_24
REMARK                            x       y       z     vdW  Elec       q    Type
REMARK                         _______ _______ _______ _____ _____    ______ ____
ROOT
ATOM      1  C   UNL     1       4.228   4.715  16.826  0.00  0.00    +0.000 C 
ATOM      2  O   UNL     1       3.313   3.896  16.847  0.00  0.00    +0.000 OA
ATOM      3  N   UNL     1       4.381   5.702  17.787  0.00  0.00    +0.000 N 
ATOM      4  H   UNL     1       4.918   6.514  17.506  0.00  0.00    +0.000 HD
ENDROOT
BRANCH   3   5
ATOM      5  C   UNL     1       3.458   5.844  18.809  0.00  0.00    +0.000 A 
ATOM      6  C   UNL     1       3.012   4.951  19.816  0.00  0.00    +0.000 A 
ATOM      7  N   UNL     1       3.540   3.695  20.218  0.00  0.00    +0.000 N 
ATOM      8  C   UNL     1       3.059   2.875  21.212  0.00  0.00    +0.000 A 
ATOM      9  N   UNL     1       3.847   1.837  21.377  0.00  0.00    +0.000 NA
ATOM     10  N   UNL     1       4.883   1.959  20.487  0.00  0.00    +0.000 NA
ATOM     11  C   UNL     1       4.690   3.068  19.810  0.00  0.00    +0.000 A 
ATOM     12  N   UNL     1       2.020   5.473  20.550  0.00  0.00    +0.000 NA
ATOM     13  N   UNL     1       1.854   6.706  20.036  0.00  0.00    +0.000 N 
ATOM     14  C   UNL     1       0.802   7.545  20.563  0.00  0.00    +0.000 C 
ATOM     15  C   UNL     1       2.740   7.007  19.029  0.00  0.00    +0.000 A 
ATOM     16  C   UNL     1       2.761   8.307  18.310  0.00  0.00    +0.000 C 
ENDBRANCH   3   5
BRANCH   1  22
ATOM     17  C   UNL     1       6.556   5.108  15.790  0.00  0.00    +0.000 A 
ATOM     18  C   UNL     1       7.426   4.877  14.713  0.00  0.00    +0.000 A 
ATOM     19  C   UNL     1       6.960   4.316  13.523  0.00  0.00    +0.000 A 
ATOM     20  C   UNL     1       5.623   3.957  13.403  0.00  0.00    +0.000 A 
ATOM     21  C   UNL     1       4.767   4.114  14.491  0.00  0.00    +0.000 A 
ATOM     22  C   UNL     1       5.222   4.670  15.702  0.00  0.00    +0.000 A 
BRANCH  17  23
ATOM     23  O   UNL     1       6.960   5.742  16.938  0.00  0.00    +0.000 OA
BRANCH  23  25
ATOM     24  C   UNL     1       7.782   5.737  19.175  0.00  0.00    +0.000 C 
ATOM     25  C   UNL     1       7.648   4.932  17.896  0.00  0.00    +0.000 C 
ENDBRANCH  23  25
ENDBRANCH  17  23
ENDBRANCH   1  22
TORSDOF 4
ENDMDL
MODEL 8
REMARK VINA RESULT:      -6.6      1.420      3.535
REMARK  Name = 
REMARK  7 active torsions:
REMARK  status: ('A' for Active; 'I' for Inactive)
REMARK    1  A    between atoms: C_1  and  C_2
REMARK    2  A    between atoms: C_2  and  O_3
REMARK    3  A    between atoms: O_3  and  C_4
REMARK    4  A    between atoms: C_9  and  C_10
REMARK    5  A    between atoms: N_12  and  C_13
REMARK    6  A    between atoms: N_21  and  C_22
REMARK    7  A    between atoms: C_23  and  C_24
REMARK                            x       y       z     vdW  Elec       q    Type
REMARK                         _______ _______ _______ _____ _____    ______ ____
ROOT
ATOM      1  C   UNL     1       4.748   6.091  17.197  0.00  0.00    +0.000 C 
ATOM      2  O   UNL     1       5.310   7.016  17.776  0.00  0.00    +0.000 OA
ATOM      3  N   UNL     1       3.499   5.616  17.564  0.00  0.00    +0.000 N 
ATOM      4  H   UNL     1       3.286   4.666  17.282  0.00  0.00    +0.000 HD
ENDROOT
BRANCH   3   5
ATOM      5  C   UNL     1       2.835   6.143  18.659  0.00  0.00    +0.000 A 
ATOM      6  C   UNL     1       2.386   5.555  19.869  0.00  0.00    +0.000 A 
ATOM      7  N   UNL     1       2.673   4.278  20.423  0.00  0.00    +0.000 N 
ATOM      8  C   UNL     1       2.204   3.768  21.610  0.00  0.00    +0.000 A 
ATOM      9  N   UNL     1       2.746   2.597  21.857  0.00  0.00    +0.000 NA
ATOM     10  N   UNL     1       3.603   2.314  20.825  0.00  0.00    +0.000 NA
ATOM     11  C   UNL     1       3.553   3.322  19.985  0.00  0.00    +0.000 A 
ATOM     12  N   UNL     1       1.690   6.419  20.621  0.00  0.00    +0.000 NA
ATOM     13  N   UNL     1       1.725   7.562  19.912  0.00  0.00    +0.000 N 
ATOM     14  C   UNL     1       1.008   8.714  20.413  0.00  0.00    +0.000 C 
ATOM     15  C   UNL     1       2.458   7.471  18.753  0.00  0.00    +0.000 A 
ATOM     16  C   UNL     1       2.648   8.600  17.806  0.00  0.00    +0.000 C 
ENDBRANCH   3   5
BRANCH   1  22
ATOM     17  C   UNL     1       6.826   5.154  15.989  0.00  0.00    +0.000 A 
ATOM     18  C   UNL     1       7.331   4.388  14.927  0.00  0.00    +0.000 A 
ATOM     19  C   UNL     1       6.503   3.979  13.881  0.00  0.00    +0.000 A 
ATOM     20  C   UNL     1       5.153   4.309  13.896  0.00  0.00    +0.000 A 
ATOM     21  C   UNL     1       4.626   5.006  14.980  0.00  0.00    +0.000 A 
ATOM     22  C   UNL     1       5.445   5.419  16.049  0.00  0.00    +0.000 A 
BRANCH  17  23
ATOM     23  O   UNL     1       7.629   5.651  16.984  0.00  0.00    +0.000 OA
BRANCH  23  25
ATOM     24  C   UNL     1       7.912   5.648  19.351  0.00  0.00    +0.000 C 
ATOM     25  C   UNL     1       7.854   4.787  18.103  0.00  0.00    +0.000 C 
ENDBRANCH  23  25
ENDBRANCH  17  23
ENDBRANCH   1  22
TORSDOF 4
ENDMDL
MODEL 9
REMARK VINA RESULT:      -6.6      3.670      6.463
REMARK  Name = 
REMARK  7 active torsions:
REMARK  status: ('A' for Active; 'I' for Inactive)
REMARK    1  A    between atoms: C_1  and  C_2
REMARK    2  A    between atoms: C_2  and  O_3
REMARK    3  A    between atoms: O_3  and  C_4
REMARK    4  A    between atoms: C_9  and  C_10
REMARK    5  A    between atoms: N_12  and  C_13
REMARK    6  A    between atoms: N_21  and  C_22
REMARK    7  A    between atoms: C_23  and  C_24
REMARK                            x       y       z     vdW  Elec       q    Type
REMARK                         _______ _______ _______ _____ _____    ______ ____
ROOT
ATOM      1  C   UNL     1       1.734   8.920  18.896  0.00  0.00    +0.000 C 
ATOM      2  O   UNL     1       2.002  10.042  18.477  0.00  0.00    +0.000 OA
ATOM      3  N   UNL     1       0.702   8.672  19.786  0.00  0.00    +0.000 N 
ATOM      4  H   UNL     1       0.782   7.821  20.331  0.00  0.00    +0.000 HD
ENDROOT
BRANCH   3   5
ATOM      5  C   UNL     1      -0.058   9.711  20.296  0.00  0.00    +0.000 A 
ATOM      6  C   UNL     1      -0.936  10.637  19.677  0.00  0.00    +0.000 A 
ATOM      7  N   UNL     1      -1.474  10.642  18.362  0.00  0.00    +0.000 N 
ATOM      8  C   UNL     1      -2.329  11.574  17.823  0.00  0.00    +0.000 A 
ATOM      9  N   UNL     1      -2.698  11.218  16.613  0.00  0.00    +0.000 NA
ATOM     10  N   UNL     1      -2.091  10.021  16.332  0.00  0.00    +0.000 NA
ATOM     11  C   UNL     1      -1.372   9.690  17.381  0.00  0.00    +0.000 A 
ATOM     12  N   UNL     1      -1.394  11.553  20.541  0.00  0.00    +0.000 NA
ATOM     13  N   UNL     1      -0.838  11.195  21.714  0.00  0.00    +0.000 N 
ATOM     14  C   UNL     1      -1.077  12.018  22.878  0.00  0.00    +0.000 C 
ATOM     15  C   UNL     1      -0.077  10.053  21.637  0.00  0.00    +0.000 A 
ATOM     16  C   UNL     1       0.633   9.455  22.798  0.00  0.00    +0.000 C 
ENDBRANCH   3   5
BRANCH   1  22
ATOM     17  C   UNL     1       2.501   6.459  18.992  0.00  0.00    +0.000 A 
ATOM     18  C   UNL     1       3.226   5.422  18.387  0.00  0.00    +0.000 A 
ATOM     19  C   UNL     1       4.091   5.679  17.321  0.00  0.00    +0.000 A 
ATOM     20  C   UNL     1       4.222   6.973  16.832  0.00  0.00    +0.000 A 
ATOM     21  C   UNL     1       3.452   7.997  17.378  0.00  0.00    +0.000 A 
ATOM     22  C   UNL     1       2.568   7.755  18.447  0.00  0.00    +0.000 A 
BRANCH  17  23
ATOM     23  O   UNL     1       1.715   6.258  20.099  0.00  0.00    +0.000 OA
BRANCH  23  25
ATOM     24  C   UNL     1       0.956   4.036  20.508  0.00  0.00    +0.000 C 
ATOM     25  C   UNL     1       1.995   5.082  20.865  0.00  0.00    +0.000 C 
ENDBRANCH  23  25
ENDBRANCH  17  23
ENDBRANCH   1  22
TORSDOF 4
ENDMDL
