MODEL 1
REMARK VINA RESULT:      -7.5      0.000      0.000
REMARK  Name = 
REMARK  13 active torsions:
REMARK  status: ('A' for Active; 'I' for Inactive)
REMARK    1  A    between atoms: C_1  and  C_2
REMARK    2  A    between atoms: C_2  and  C_3
REMARK    3  A    between atoms: C_2  and  C_4
REMARK    4  A    between atoms: C_2  and  N_22
REMARK    5  A    between atoms: C_4  and  C_5
REMARK    6  A    between atoms: C_8  and  N_9
REMARK    7  A    between atoms: N_9  and  S_10
REMARK    8  A    between atoms: S_10  and  N_13
REMARK    9  A    between atoms: N_13  and  C_14
REMARK   10  A    between atoms: N_22  and  C_23
REMARK   11  A    between atoms: C_23  and  C_24
REMARK   12  A    between atoms: C_24  and  O_25
REMARK   13  A    between atoms: C_24  and  C_26
REMARK                            x       y       z     vdW  Elec       q    Type
REMARK                         _______ _______ _______ _____ _____    ______ ____
ROOT
ATOM      1  C   UNL     1       2.295   7.104  18.469  0.00  0.00    +0.000 A 
ATOM      2  C   UNL     1       2.103   7.125  19.857  0.00  0.00    +0.000 A 
ATOM      3  C   UNL     1       1.687   8.298  20.495  0.00  0.00    +0.000 A 
ATOM      4  C   UNL     1       1.456   9.449  19.742  0.00  0.00    +0.000 A 
ATOM      5  C   UNL     1       1.660   9.445  18.365  0.00  0.00    +0.000 A 
ATOM      6  C   UNL     1       2.068   8.272  17.730  0.00  0.00    +0.000 A 
ENDROOT
BRANCH   4   7
ATOM      7  N   UNL     1       1.050  10.664  20.377  0.00  0.00    +0.000 N 
ATOM      8  H   UNL     1       1.435  11.477  19.896  0.00  0.00    +0.000 HD
BRANCH   7   9
ATOM      9  S   UNL     1      -0.618  10.911  20.463  0.00  0.00    +0.000 S 
ATOM     10  O   UNL     1      -1.255   9.617  20.393  0.00  0.00    +0.000 OA
ATOM     11  O   UNL     1      -0.939  11.861  21.500  0.00  0.00    +0.000 OA
BRANCH   9  12
ATOM     12  N   UNL     1      -0.881  11.713  18.996  0.00  0.00    +0.000 N 
ATOM     13  H   UNL     1      -0.970  12.707  19.213  0.00  0.00    +0.000 HD
BRANCH  12  14
ATOM     14  C   UNL     1      -1.945  11.229  18.173  0.00  0.00    +0.000 A 
ATOM     15  C   UNL     1      -1.687  10.325  17.144  0.00  0.00    +0.000 A 
ATOM     16  C   UNL     1      -2.724   9.911  16.307  0.00  0.00    +0.000 A 
ATOM     17  C   UNL     1      -4.014  10.409  16.495  0.00  0.00    +0.000 A 
ATOM     18  C   UNL     1      -4.270  11.321  17.519  0.00  0.00    +0.000 A 
ATOM     19  C   UNL     1      -3.235  11.732  18.358  0.00  0.00    +0.000 A 
ENDBRANCH  12  14
ENDBRANCH   9  12
ENDBRANCH   7   9
ENDBRANCH   4   7
BRANCH   1  20
ATOM     20  C   UNL     1       2.793   5.854  17.775  0.00  0.00    +0.000 C 
BRANCH  20  22
ATOM     21  C   UNL     1       4.687   4.541  16.677  0.00  0.00    +0.000 C 
ATOM     22  C   UNL     1       4.335   5.652  17.690  0.00  0.00    +0.000 C 
ATOM     23  C   UNL     1       5.069   6.936  17.262  0.00  0.00    +0.000 C 
BRANCH  22  24
ATOM     24  N   UNL     1       4.868   5.160  18.987  0.00  0.00    +0.000 NA
ATOM     25  H   UNL     1       4.130   5.222  19.689  0.00  0.00    +0.000 HD
BRANCH  24  26
ATOM     26  C   UNL     1       5.397   3.783  18.992  0.00  0.00    +0.000 C 
BRANCH  26  27
ATOM     27  C   UNL     1       4.583   2.859  19.935  0.00  0.00    +0.000 C 
BRANCH  27  28
ATOM     28  C   UNL     1       3.082   2.833  19.720  0.00  0.00    +0.000 A 
ATOM     29  C   UNL     1       2.217   3.480  20.612  0.00  0.00    +0.000 A 
ATOM     30  C   UNL     1       0.845   3.494  20.374  0.00  0.00    +0.000 A 
ATOM     31  C   UNL     1       0.372   2.874  19.233  0.00  0.00    +0.000 A 
ATOM     32  N   UNL     1       1.165   2.249  18.341  0.00  0.00    +0.000 NA
ATOM     33  C   UNL     1       2.494   2.243  18.603  0.00  0.00    +0.000 A 
ENDBRANCH  27  28
BRANCH  27  34
ATOM     34  O   UNL     1       5.132   1.536  19.816  0.00  0.00    +0.000 OA
ATOM     35  H   UNL     1       5.822   1.597  19.132  0.00  0.00    +0.000 HD
ENDBRANCH  27  34
ENDBRANCH  26  27
ENDBRANCH  24  26
ENDBRANCH  22  24
ENDBRANCH  20  22
ENDBRANCH   1  20
TORSDOF 11
ENDMDL
MODEL 2
REMARK VINA RESULT:      -7.5      1.734      3.560
REMARK  Name = 
REMARK  13 active torsions:
REMARK  status: ('A' for Active; 'I' for Inactive)
REMARK    1  A    between atoms: C_1  and  C_2
REMARK    2  A    between atoms: C_2  and  C_3
REMARK    3  A    between atoms: C_2  and  C_4
REMARK    4  A    between atoms: C_2  and  N_22
REMARK    5  A    between atoms: C_4  and  C_5
REMARK    6  A    between atoms: C_8  and  N_9
REMARK    7  A    between atoms: N_9  and  S_10
REMARK    8  A    between atoms: S_10  and  N_13
REMARK    9  A    between atoms: N_13  and  C_14
REMARK   10  A    between atoms: N_22  and  C_23
REMARK   11  A    between atoms: C_23  and  C_24
REMARK   12  A    between atoms: C_24  and  O_25
REMARK   13  A    between atoms: C_24  and  C_26
REMARK                            x       y       z     vdW  Elec       q    Type
REMARK                         _______ _______ _______ _____ _____    ______ ____
ROOT
ATOM      1  C   UNL     1       2.356   7.058  19.411  0.00  0.00    +0.000 A 
ATOM      2  C   UNL     1       1.683   7.846  20.353  0.00  0.00    +0.000 A 
ATOM      3  C   UNL     1       1.232   9.125  20.012  0.00  0.00    +0.000 A 
ATOM      4  C   UNL     1       1.449   9.613  18.723  0.00  0.00    +0.000 A 
ATOM      5  C   UNL     1       2.131   8.846  17.783  0.00  0.00    +0.000 A 
ATOM      6  C   UNL     1       2.573   7.567  18.124  0.00  0.00    +0.000 A 
ENDROOT
BRANCH   4   7
ATOM      7  N   UNL     1       1.014  10.926  18.359  0.00  0.00    +0.000 N 
ATOM      8  H   UNL     1       0.792  10.977  17.366  0.00  0.00    +0.000 HD
BRANCH   7   9
ATOM      9  S   UNL     1      -0.351  11.486  19.179  0.00  0.00    +0.000 S 
ATOM     10  O   UNL     1      -0.037  11.507  20.588  0.00  0.00    +0.000 OA
ATOM     11  O   UNL     1      -0.912  12.634  18.509  0.00  0.00    +0.000 OA
BRANCH   9  12
ATOM     12  N   UNL     1      -1.423  10.207  18.893  0.00  0.00    +0.000 N 
ATOM     13  H   UNL     1      -0.860   9.357  18.836  0.00  0.00    +0.000 HD
BRANCH  12  14
ATOM     14  C   UNL     1      -2.325  10.350  17.794  0.00  0.00    +0.000 A 
ATOM     15  C   UNL     1      -1.973   9.890  16.526  0.00  0.00    +0.000 A 
ATOM     16  C   UNL     1      -2.835  10.094  15.448  0.00  0.00    +0.000 A 
ATOM     17  C   UNL     1      -4.044  10.764  15.639  0.00  0.00    +0.000 A 
ATOM     18  C   UNL     1      -4.392  11.232  16.906  0.00  0.00    +0.000 A 
ATOM     19  C   UNL     1      -3.532  11.026  17.984  0.00  0.00    +0.000 A 
ENDBRANCH  12  14
ENDBRANCH   9  12
ENDBRANCH   7   9
ENDBRANCH   4   7
BRANCH   1  20
ATOM     20  C   UNL     1       2.893   5.692  19.784  0.00  0.00    +0.000 C 
BRANCH  20  22
ATOM     21  C   UNL     1       1.017   4.009  20.187  0.00  0.00    +0.000 C 
ATOM     22  C   UNL     1       2.138   4.451  19.222  0.00  0.00    +0.000 C 
ATOM     23  C   UNL     1       1.500   4.730  17.848  0.00  0.00    +0.000 C 
BRANCH  22  24
ATOM     24  N   UNL     1       3.049   3.280  19.142  0.00  0.00    +0.000 NA
ATOM     25  H   UNL     1       2.796   2.723  18.325  0.00  0.00    +0.000 HD
BRANCH  24  26
ATOM     26  C   UNL     1       4.491   3.582  19.069  0.00  0.00    +0.000 C 
BRANCH  26  27
ATOM     27  C   UNL     1       4.875   4.223  17.710  0.00  0.00    +0.000 C 
BRANCH  27  28
ATOM     28  C   UNL     1       5.874   5.362  17.762  0.00  0.00    +0.000 A 
ATOM     29  C   UNL     1       6.889   5.384  18.727  0.00  0.00    +0.000 A 
ATOM     30  C   UNL     1       7.832   6.408  18.732  0.00  0.00    +0.000 A 
ATOM     31  C   UNL     1       7.748   7.380  17.752  0.00  0.00    +0.000 A 
ATOM     32  N   UNL     1       6.797   7.397  16.798  0.00  0.00    +0.000 NA
ATOM     33  C   UNL     1       5.887   6.393  16.825  0.00  0.00    +0.000 A 
ENDBRANCH  27  28
BRANCH  27  34
ATOM     34  O   UNL     1       5.357   3.168  16.861  0.00  0.00    +0.000 OA
ATOM     35  H   UNL     1       4.830   2.383  17.090  0.00  0.00    +0.000 HD
ENDBRANCH  27  34
ENDBRANCH  26  27
ENDBRANCH  24  26
ENDBRANCH  22  24
ENDBRANCH  20  22
ENDBRANCH   1  20
TORSDOF 11
ENDMDL
MODEL 3
REMARK VINA RESULT:      -7.4      1.327      1.946
REMARK  Name = 
REMARK  13 active torsions:
REMARK  status: ('A' for Active; 'I' for Inactive)
REMARK    1  A    between atoms: C_1  and  C_2
REMARK    2  A    between atoms: C_2  and  C_3
REMARK    3  A    between atoms: C_2  and  C_4
REMARK    4  A    between atoms: C_2  and  N_22
REMARK    5  A    between atoms: C_4  and  C_5
REMARK    6  A    between atoms: C_8  and  N_9
REMARK    7  A    between atoms: N_9  and  S_10
REMARK    8  A    between atoms: S_10  and  N_13
REMARK    9  A    between atoms: N_13  and  C_14
REMARK   10  A    between atoms: N_22  and  C_23
REMARK   11  A    between atoms: C_23  and  C_24
REMARK   12  A    between atoms: C_24  and  O_25
REMARK   13  A    between atoms: C_24  and  C_26
REMARK                            x       y       z     vdW  Elec       q    Type
REMARK                         _______ _______ _______ _____ _____    ______ ____
ROOT
ATOM      1  C   UNL     1       2.642   6.487  18.400  0.00  0.00    +0.000 A 
ATOM      2  C   UNL     1       2.459   7.781  17.895  0.00  0.00    +0.000 A 
ATOM      3  C   UNL     1       2.009   8.809  18.730  0.00  0.00    +0.000 A 
ATOM      4  C   UNL     1       1.749   8.542  20.074  0.00  0.00    +0.000 A 
ATOM      5  C   UNL     1       1.910   7.257  20.583  0.00  0.00    +0.000 A 
ATOM      6  C   UNL     1       2.366   6.235  19.751  0.00  0.00    +0.000 A 
ENDROOT
BRANCH   4   7
ATOM      7  N   UNL     1       1.268   9.574  20.940  0.00  0.00    +0.000 N 
ATOM      8  H   UNL     1       1.812  10.429  20.829  0.00  0.00    +0.000 HD
BRANCH   7   9
ATOM      9  S   UNL     1      -0.348  10.008  20.717  0.00  0.00    +0.000 S 
ATOM     10  O   UNL     1      -1.101   8.795  20.499  0.00  0.00    +0.000 OA
ATOM     11  O   UNL     1      -0.752  10.986  21.697  0.00  0.00    +0.000 OA
BRANCH   9  12
ATOM     12  N   UNL     1      -0.239  10.837  19.245  0.00  0.00    +0.000 N 
ATOM     13  H   UNL     1       0.081  11.783  19.461  0.00  0.00    +0.000 HD
BRANCH  12  14
ATOM     14  C   UNL     1      -1.394  10.822  18.404  0.00  0.00    +0.000 A 
ATOM     15  C   UNL     1      -2.501  11.611  18.709  0.00  0.00    +0.000 A 
ATOM     16  C   UNL     1      -3.647  11.537  17.916  0.00  0.00    +0.000 A 
ATOM     17  C   UNL     1      -3.686  10.668  16.825  0.00  0.00    +0.000 A 
ATOM     18  C   UNL     1      -2.581   9.871  16.525  0.00  0.00    +0.000 A 
ATOM     19  C   UNL     1      -1.435   9.947  17.316  0.00  0.00    +0.000 A 
ENDBRANCH  12  14
ENDBRANCH   9  12
ENDBRANCH   7   9
ENDBRANCH   4   7
BRANCH   1  20
ATOM     20  C   UNL     1       3.080   5.356  17.494  0.00  0.00    +0.000 C 
BRANCH  20  22
ATOM     21  C   UNL     1       5.150   5.988  16.141  0.00  0.00    +0.000 C 
ATOM     22  C   UNL     1       4.612   5.139  17.313  0.00  0.00    +0.000 C 
ATOM     23  C   UNL     1       5.407   5.516  18.577  0.00  0.00    +0.000 C 
BRANCH  22  24
ATOM     24  N   UNL     1       4.897   3.735  16.922  0.00  0.00    +0.000 NA
ATOM     25  H   UNL     1       5.750   3.431  17.392  0.00  0.00    +0.000 HD
BRANCH  24  26
ATOM     26  C   UNL     1       3.835   2.752  17.209  0.00  0.00    +0.000 C 
BRANCH  26  27
ATOM     27  C   UNL     1       4.049   2.060  18.581  0.00  0.00    +0.000 C 
BRANCH  27  28
ATOM     28  C   UNL     1       3.069   2.425  19.679  0.00  0.00    +0.000 A 
ATOM     29  C   UNL     1       1.733   2.720  19.380  0.00  0.00    +0.000 A 
ATOM     30  C   UNL     1       0.830   3.002  20.402  0.00  0.00    +0.000 A 
ATOM     31  C   UNL     1       1.286   2.963  21.707  0.00  0.00    +0.000 A 
ATOM     32  N   UNL     1       2.559   2.676  22.044  0.00  0.00    +0.000 NA
ATOM     33  C   UNL     1       3.416   2.415  21.028  0.00  0.00    +0.000 A 
ENDBRANCH  27  28
BRANCH  27  34
ATOM     34  O   UNL     1       4.040   0.642  18.349  0.00  0.00    +0.000 OA
ATOM     35  H   UNL     1       4.342   0.521  17.432  0.00  0.00    +0.000 HD
ENDBRANCH  27  34
ENDBRANCH  26  27
ENDBRANCH  24  26
ENDBRANCH  22  24
ENDBRANCH  20  22
ENDBRANCH   1  20
TORSDOF 11
ENDMDL
MODEL 4
REMARK VINA RESULT:      -7.3      3.063      4.753
REMARK  Name = 
REMARK  13 active torsions:
REMARK  status: ('A' for Active; 'I' for Inactive)
REMARK    1  A    between atoms: C_1  and  C_2
REMARK    2  A    between atoms: C_2  and  C_3
REMARK    3  A    between atoms: C_2  and  C_4
REMARK    4  A    between atoms: C_2  and  N_22
REMARK    5  A    between atoms: C_4  and  C_5
REMARK    6  A    between atoms: C_8  and  N_9
REMARK    7  A    between atoms: N_9  and  S_10
REMARK    8  A    between atoms: S_10  and  N_13
REMARK    9  A    between atoms: N_13  and  C_14
REMARK   10  A    between atoms: N_22  and  C_23
REMARK   11  A    between atoms: C_23  and  C_24
REMARK   12  A    between atoms: C_24  and  O_25
REMARK   13  A    between atoms: C_24  and  C_26
REMARK                            x       y       z     vdW  Elec       q    Type
REMARK                         _______ _______ _______ _____ _____    ______ ____
ROOT
ATOM      1  C   UNL     1       2.835   6.856  19.269  0.00  0.00    +0.000 A 
ATOM      2  C   UNL     1       2.968   7.414  17.990  0.00  0.00    +0.000 A 
ATOM      3  C   UNL     1       2.287   8.589  17.657  0.00  0.00    +0.000 A 
ATOM      4  C   UNL     1       1.478   9.212  18.608  0.00  0.00    +0.000 A 
ATOM      5  C   UNL     1       1.324   8.658  19.875  0.00  0.00    +0.000 A 
ATOM      6  C   UNL     1       2.010   7.490  20.208  0.00  0.00    +0.000 A 
ENDROOT
BRANCH   4   7
ATOM      7  N   UNL     1       0.757  10.403  18.281  0.00  0.00    +0.000 N 
ATOM      8  H   UNL     1      -0.165  10.405  18.715  0.00  0.00    +0.000 HD
BRANCH   7   9
ATOM      9  S   UNL     1       1.501  11.846  18.746  0.00  0.00    +0.000 S 
ATOM     10  O   UNL     1       1.499  11.893  20.189  0.00  0.00    +0.000 OA
ATOM     11  O   UNL     1       2.703  12.068  17.981  0.00  0.00    +0.000 OA
BRANCH   9  12
ATOM     12  N   UNL     1       0.368  12.968  18.176  0.00  0.00    +0.000 N 
ATOM     13  H   UNL     1       0.506  13.041  17.167  0.00  0.00    +0.000 HD
BRANCH  12  14
ATOM     14  C   UNL     1       0.333  14.241  18.824  0.00  0.00    +0.000 A 
ATOM     15  C   UNL     1       1.410  15.119  18.716  0.00  0.00    +0.000 A 
ATOM     16  C   UNL     1       1.391  16.330  19.408  0.00  0.00    +0.000 A 
ATOM     17  C   UNL     1       0.298  16.659  20.211  0.00  0.00    +0.000 A 
ATOM     18  C   UNL     1      -0.776  15.776  20.325  0.00  0.00    +0.000 A 
ATOM     19  C   UNL     1      -0.758  14.566  19.632  0.00  0.00    +0.000 A 
ENDBRANCH  12  14
ENDBRANCH   9  12
ENDBRANCH   7   9
ENDBRANCH   4   7
BRANCH   1  20
ATOM     20  C   UNL     1       3.526   5.558  19.624  0.00  0.00    +0.000 C 
BRANCH  20  22
ATOM     21  C   UNL     1       3.594   3.007  19.688  0.00  0.00    +0.000 C 
ATOM     22  C   UNL     1       2.900   4.242  19.074  0.00  0.00    +0.000 C 
ATOM     23  C   UNL     1       1.394   4.142  19.379  0.00  0.00    +0.000 C 
BRANCH  22  24
ATOM     24  N   UNL     1       3.141   4.121  17.613  0.00  0.00    +0.000 NA
ATOM     25  H   UNL     1       3.248   5.056  17.220  0.00  0.00    +0.000 HD
BRANCH  24  26
ATOM     26  C   UNL     1       4.308   3.313  17.211  0.00  0.00    +0.000 C 
BRANCH  26  27
ATOM     27  C   UNL     1       5.275   4.115  16.302  0.00  0.00    +0.000 C 
BRANCH  27  28
ATOM     28  C   UNL     1       6.126   5.166  16.988  0.00  0.00    +0.000 A 
ATOM     29  C   UNL     1       6.905   4.841  18.106  0.00  0.00    +0.000 A 
ATOM     30  C   UNL     1       7.724   5.801  18.695  0.00  0.00    +0.000 A 
ATOM     31  C   UNL     1       7.757   7.065  18.136  0.00  0.00    +0.000 A 
ATOM     32  N   UNL     1       7.035   7.422  17.056  0.00  0.00    +0.000 NA
ATOM     33  C   UNL     1       6.240   6.469  16.510  0.00  0.00    +0.000 A 
ENDBRANCH  27  28
BRANCH  27  34
ATOM     34  O   UNL     1       6.105   3.163  15.617  0.00  0.00    +0.000 OA
ATOM     35  H   UNL     1       5.708   2.292  15.791  0.00  0.00    +0.000 HD
ENDBRANCH  27  34
ENDBRANCH  26  27
ENDBRANCH  24  26
ENDBRANCH  22  24
ENDBRANCH  20  22
ENDBRANCH   1  20
TORSDOF 11
ENDMDL
MODEL 5
REMARK VINA RESULT:      -7.2      1.969      2.696
REMARK  Name = 
REMARK  13 active torsions:
REMARK  status: ('A' for Active; 'I' for Inactive)
REMARK    1  A    between atoms: C_1  and  C_2
REMARK    2  A    between atoms: C_2  and  C_3
REMARK    3  A    between atoms: C_2  and  C_4
REMARK    4  A    between atoms: C_2  and  N_22
REMARK    5  A    between atoms: C_4  and  C_5
REMARK    6  A    between atoms: C_8  and  N_9
REMARK    7  A    between atoms: N_9  and  S_10
REMARK    8  A    between atoms: S_10  and  N_13
REMARK    9  A    between atoms: N_13  and  C_14
REMARK   10  A    between atoms: N_22  and  C_23
REMARK   11  A    between atoms: C_23  and  C_24
REMARK   12  A    between atoms: C_24  and  O_25
REMARK   13  A    between atoms: C_24  and  C_26
REMARK                            x       y       z     vdW  Elec       q    Type
REMARK                         _______ _______ _______ _____ _____    ______ ____
ROOT
ATOM      1  C   UNL     1       2.466   7.110  18.348  0.00  0.00    +0.000 A 
ATOM      2  C   UNL     1       2.220   8.297  17.647  0.00  0.00    +0.000 A 
ATOM      3  C   UNL     1       1.760   9.433  18.320  0.00  0.00    +0.000 A 
ATOM      4  C   UNL     1       1.551   9.382  19.698  0.00  0.00    +0.000 A 
ATOM      5  C   UNL     1       1.774   8.203  20.403  0.00  0.00    +0.000 A 
ATOM      6  C   UNL     1       2.241   7.073  19.731  0.00  0.00    +0.000 A 
ENDROOT
BRANCH   4   7
ATOM      7  N   UNL     1       1.061  10.526  20.402  0.00  0.00    +0.000 N 
ATOM      8  H   UNL     1       1.164  11.373  19.845  0.00  0.00    +0.000 HD
BRANCH   7   9
ATOM      9  S   UNL     1      -0.565  10.453  20.853  0.00  0.00    +0.000 S 
ATOM     10  O   UNL     1      -1.343  10.254  19.653  0.00  0.00    +0.000 OA
ATOM     11  O   UNL     1      -0.734   9.615  22.015  0.00  0.00    +0.000 OA
BRANCH   9  12
ATOM     12  N   UNL     1      -0.803  12.043  21.384  0.00  0.00    +0.000 N 
ATOM     13  H   UNL     1      -0.073  12.239  22.070  0.00  0.00    +0.000 HD
BRANCH  12  14
ATOM     14  C   UNL     1      -2.110  12.382  21.854  0.00  0.00    +0.000 A 
ATOM     15  C   UNL     1      -2.416  12.298  23.211  0.00  0.00    +0.000 A 
ATOM     16  C   UNL     1      -3.713  12.568  23.649  0.00  0.00    +0.000 A 
ATOM     17  C   UNL     1      -4.703  12.913  22.727  0.00  0.00    +0.000 A 
ATOM     18  C   UNL     1      -4.399  12.987  21.368  0.00  0.00    +0.000 A 
ATOM     19  C   UNL     1      -3.101  12.720  20.931  0.00  0.00    +0.000 A 
ENDBRANCH  12  14
ENDBRANCH   9  12
ENDBRANCH   7   9
ENDBRANCH   4   7
BRANCH   1  20
ATOM     20  C   UNL     1       2.916   5.860  17.622  0.00  0.00    +0.000 C 
BRANCH  20  22
ATOM     21  C   UNL     1       4.748   4.458  16.529  0.00  0.00    +0.000 C 
ATOM     22  C   UNL     1       4.450   5.616  17.505  0.00  0.00    +0.000 C 
ATOM     23  C   UNL     1       5.202   6.864  17.006  0.00  0.00    +0.000 C 
BRANCH  22  24
ATOM     24  N   UNL     1       5.006   5.164  18.806  0.00  0.00    +0.000 NA
ATOM     25  H   UNL     1       4.311   5.327  19.535  0.00  0.00    +0.000 HD
BRANCH  24  26
ATOM     26  C   UNL     1       5.428   3.751  18.877  0.00  0.00    +0.000 C 
BRANCH  26  27
ATOM     27  C   UNL     1       4.599   2.957  19.921  0.00  0.00    +0.000 C 
BRANCH  27  28
ATOM     28  C   UNL     1       3.102   2.902  19.688  0.00  0.00    +0.000 A 
ATOM     29  C   UNL     1       2.213   3.508  20.585  0.00  0.00    +0.000 A 
ATOM     30  C   UNL     1       0.843   3.496  20.333  0.00  0.00    +0.000 A 
ATOM     31  C   UNL     1       0.397   2.890  19.172  0.00  0.00    +0.000 A 
ATOM     32  N   UNL     1       1.213   2.303  18.276  0.00  0.00    +0.000 NA
ATOM     33  C   UNL     1       2.539   2.322  18.553  0.00  0.00    +0.000 A 
ENDBRANCH  27  28
BRANCH  27  34
ATOM     34  O   UNL     1       5.150   1.631  19.983  0.00  0.00    +0.000 OA
ATOM     35  H   UNL     1       6.033   1.729  20.378  0.00  0.00    +0.000 HD
ENDBRANCH  27  34
ENDBRANCH  26  27
ENDBRANCH  24  26
ENDBRANCH  22  24
ENDBRANCH  20  22
ENDBRANCH   1  20
TORSDOF 11
ENDMDL
MODEL 6
REMARK VINA RESULT:      -7.2      1.766      3.863
REMARK  Name = 
REMARK  13 active torsions:
REMARK  status: ('A' for Active; 'I' for Inactive)
REMARK    1  A    between atoms: C_1  and  C_2
REMARK    2  A    between atoms: C_2  and  C_3
REMARK    3  A    between atoms: C_2  and  C_4
REMARK    4  A    between atoms: C_2  and  N_22
REMARK    5  A    between atoms: C_4  and  C_5
REMARK    6  A    between atoms: C_8  and  N_9
REMARK    7  A    between atoms: N_9  and  S_10
REMARK    8  A    between atoms: S_10  and  N_13
REMARK    9  A    between atoms: N_13  and  C_14
REMARK   10  A    between atoms: N_22  and  C_23
REMARK   11  A    between atoms: C_23  and  C_24
REMARK   12  A    between atoms: C_24  and  O_25
REMARK   13  A    between atoms: C_24  and  C_26
REMARK                            x       y       z     vdW  Elec       q    Type
REMARK                         _______ _______ _______ _____ _____    ______ ____
ROOT
ATOM      1  C   UNL     1       2.656   6.479  19.609  0.00  0.00    +0.000 A 
ATOM      2  C   UNL     1       2.824   6.800  18.256  0.00  0.00    +0.000 A 
ATOM      3  C   UNL     1       2.273   7.974  17.734  0.00  0.00    +0.000 A 
ATOM      4  C   UNL     1       1.559   8.833  18.570  0.00  0.00    +0.000 A 
ATOM      5  C   UNL     1       1.370   8.516  19.911  0.00  0.00    +0.000 A 
ATOM      6  C   UNL     1       1.927   7.348  20.432  0.00  0.00    +0.000 A 
ENDROOT
BRANCH   4   7
ATOM      7  N   UNL     1       0.970  10.028  18.052  0.00  0.00    +0.000 N 
ATOM      8  H   UNL     1       0.261   9.815  17.350  0.00  0.00    +0.000 HD
BRANCH   7   9
ATOM      9  S   UNL     1       0.219  11.017  19.196  0.00  0.00    +0.000 S 
ATOM     10  O   UNL     1      -0.734  10.206  19.917  0.00  0.00    +0.000 OA
ATOM     11  O   UNL     1       1.193  11.833  19.881  0.00  0.00    +0.000 OA
BRANCH   9  12
ATOM     12  N   UNL     1      -0.636  12.064  18.178  0.00  0.00    +0.000 N 
ATOM     13  H   UNL     1      -0.496  13.009  18.540  0.00  0.00    +0.000 HD
BRANCH  12  14
ATOM     14  C   UNL     1      -2.012  11.760  17.941  0.00  0.00    +0.000 A 
ATOM     15  C   UNL     1      -2.982  12.094  18.886  0.00  0.00    +0.000 A 
ATOM     16  C   UNL     1      -4.313  11.732  18.673  0.00  0.00    +0.000 A 
ATOM     17  C   UNL     1      -4.670  11.031  17.520  0.00  0.00    +0.000 A 
ATOM     18  C   UNL     1      -3.698  10.689  16.580  0.00  0.00    +0.000 A 
ATOM     19  C   UNL     1      -2.368  11.053  16.791  0.00  0.00    +0.000 A 
ENDBRANCH  12  14
ENDBRANCH   9  12
ENDBRANCH   7   9
ENDBRANCH   4   7
BRANCH   1  20
ATOM     20  C   UNL     1       3.204   5.186  20.173  0.00  0.00    +0.000 C 
BRANCH  20  22
ATOM     21  C   UNL     1       2.614   2.797  20.853  0.00  0.00    +0.000 C 
ATOM     22  C   UNL     1       2.501   3.864  19.743  0.00  0.00    +0.000 C 
ATOM     23  C   UNL     1       1.007   4.073  19.434  0.00  0.00    +0.000 C 
BRANCH  22  24
ATOM     24  N   UNL     1       3.192   3.264  18.573  0.00  0.00    +0.000 NA
ATOM     25  H   UNL     1       2.800   3.664  17.720  0.00  0.00    +0.000 HD
BRANCH  24  26
ATOM     26  C   UNL     1       4.657   3.426  18.529  0.00  0.00    +0.000 C 
BRANCH  26  27
ATOM     27  C   UNL     1       5.107   4.245  17.291  0.00  0.00    +0.000 C 
BRANCH  27  28
ATOM     28  C   UNL     1       6.076   5.382  17.553  0.00  0.00    +0.000 A 
ATOM     29  C   UNL     1       6.960   5.337  18.638  0.00  0.00    +0.000 A 
ATOM     30  C   UNL     1       7.882   6.361  18.837  0.00  0.00    +0.000 A 
ATOM     31  C   UNL     1       7.908   7.403  17.928  0.00  0.00    +0.000 A 
ATOM     32  N   UNL     1       7.086   7.486  16.864  0.00  0.00    +0.000 NA
ATOM     33  C   UNL     1       6.194   6.479  16.702  0.00  0.00    +0.000 A 
ENDBRANCH  27  28
BRANCH  27  34
ATOM     34  O   UNL     1       5.663   3.317  16.345  0.00  0.00    +0.000 OA
ATOM     35  H   UNL     1       5.674   2.455  16.795  0.00  0.00    +0.000 HD
ENDBRANCH  27  34
ENDBRANCH  26  27
ENDBRANCH  24  26
ENDBRANCH  22  24
ENDBRANCH  20  22
ENDBRANCH   1  20
TORSDOF 11
ENDMDL
MODEL 7
REMARK VINA RESULT:      -7.2      1.899      2.400
REMARK  Name = 
REMARK  13 active torsions:
REMARK  status: ('A' for Active; 'I' for Inactive)
REMARK    1  A    between atoms: C_1  and  C_2
REMARK    2  A    between atoms: C_2  and  C_3
REMARK    3  A    between atoms: C_2  and  C_4
REMARK    4  A    between atoms: C_2  and  N_22
REMARK    5  A    between atoms: C_4  and  C_5
REMARK    6  A    between atoms: C_8  and  N_9
REMARK    7  A    between atoms: N_9  and  S_10
REMARK    8  A    between atoms: S_10  and  N_13
REMARK    9  A    between atoms: N_13  and  C_14
REMARK   10  A    between atoms: N_22  and  C_23
REMARK   11  A    between atoms: C_23  and  C_24
REMARK   12  A    between atoms: C_24  and  O_25
REMARK   13  A    between atoms: C_24  and  C_26
REMARK                            x       y       z     vdW  Elec       q    Type
REMARK                         _______ _______ _______ _____ _____    ______ ____
ROOT
ATOM      1  C   UNL     1       2.269   7.150  18.503  0.00  0.00    +0.000 A 
ATOM      2  C   UNL     1       2.109   7.150  19.895  0.00  0.00    +0.000 A 
ATOM      3  C   UNL     1       1.716   8.315  20.561  0.00  0.00    +0.000 A 
ATOM      4  C   UNL     1       1.477   9.481  19.832  0.00  0.00    +0.000 A 
ATOM      5  C   UNL     1       1.649   9.497  18.452  0.00  0.00    +0.000 A 
ATOM      6  C   UNL     1       2.033   8.332  17.788  0.00  0.00    +0.000 A 
ENDROOT
BRANCH   4   7
ATOM      7  N   UNL     1       1.095  10.688  20.496  0.00  0.00    +0.000 N 
ATOM      8  H   UNL     1       0.700  11.360  19.839  0.00  0.00    +0.000 HD
BRANCH   7   9
ATOM      9  S   UNL     1      -0.047  10.504  21.727  0.00  0.00    +0.000 S 
ATOM     10  O   UNL     1      -1.138   9.720  21.198  0.00  0.00    +0.000 OA
ATOM     11  O   UNL     1       0.597  10.165  22.972  0.00  0.00    +0.000 OA
BRANCH   9  12
ATOM     12  N   UNL     1      -0.574  12.104  21.893  0.00  0.00    +0.000 N 
ATOM     13  H   UNL     1      -0.099  12.489  22.711  0.00  0.00    +0.000 HD
BRANCH  12  14
ATOM     14  C   UNL     1      -1.986  12.324  21.917  0.00  0.00    +0.000 A 
ATOM     15  C   UNL     1      -2.677  12.612  20.741  0.00  0.00    +0.000 A 
ATOM     16  C   UNL     1      -4.043  12.889  20.789  0.00  0.00    +0.000 A 
ATOM     17  C   UNL     1      -4.715  12.885  22.012  0.00  0.00    +0.000 A 
ATOM     18  C   UNL     1      -4.021  12.606  23.190  0.00  0.00    +0.000 A 
ATOM     19  C   UNL     1      -2.656  12.326  23.142  0.00  0.00    +0.000 A 
ENDBRANCH  12  14
ENDBRANCH   9  12
ENDBRANCH   7   9
ENDBRANCH   4   7
BRANCH   1  20
ATOM     20  C   UNL     1       2.742   5.909  17.777  0.00  0.00    +0.000 C 
BRANCH  20  22
ATOM     21  C   UNL     1       4.604   4.529  16.708  0.00  0.00    +0.000 C 
ATOM     22  C   UNL     1       4.279   5.676  17.689  0.00  0.00    +0.000 C 
ATOM     23  C   UNL     1       5.033   6.933  17.217  0.00  0.00    +0.000 C 
BRANCH  22  24
ATOM     24  N   UNL     1       4.812   5.214  18.997  0.00  0.00    +0.000 NA
ATOM     25  H   UNL     1       4.062   5.251  19.688  0.00  0.00    +0.000 HD
BRANCH  24  26
ATOM     26  C   UNL     1       5.396   3.860  19.019  0.00  0.00    +0.000 C 
BRANCH  26  27
ATOM     27  C   UNL     1       4.594   2.904  19.941  0.00  0.00    +0.000 C 
BRANCH  27  28
ATOM     28  C   UNL     1       3.089   2.900  19.757  0.00  0.00    +0.000 A 
ATOM     29  C   UNL     1       2.255   3.587  20.648  0.00  0.00    +0.000 A 
ATOM     30  C   UNL     1       0.878   3.620  20.438  0.00  0.00    +0.000 A 
ATOM     31  C   UNL     1       0.370   2.976  19.325  0.00  0.00    +0.000 A 
ATOM     32  N   UNL     1       1.133   2.311  18.436  0.00  0.00    +0.000 NA
ATOM     33  C   UNL     1       2.467   2.288  18.671  0.00  0.00    +0.000 A 
ENDBRANCH  27  28
BRANCH  27  34
ATOM     34  O   UNL     1       5.129   1.584  19.755  0.00  0.00    +0.000 OA
ATOM     35  H   UNL     1       6.080   1.653  19.948  0.00  0.00    +0.000 HD
ENDBRANCH  27  34
ENDBRANCH  26  27
ENDBRANCH  24  26
ENDBRANCH  22  24
ENDBRANCH  20  22
ENDBRANCH   1  20
TORSDOF 11
ENDMDL
MODEL 8
REMARK VINA RESULT:      -7.1      1.407      3.184
REMARK  Name = 
REMARK  13 active torsions:
REMARK  status: ('A' for Active; 'I' for Inactive)
REMARK    1  A    between atoms: C_1  and  C_2
REMARK    2  A    between atoms: C_2  and  C_3
REMARK    3  A    between atoms: C_2  and  C_4
REMARK    4  A    between atoms: C_2  and  N_22
REMARK    5  A    between atoms: C_4  and  C_5
REMARK    6  A    between atoms: C_8  and  N_9
REMARK    7  A    between atoms: N_9  and  S_10
REMARK    8  A    between atoms: S_10  and  N_13
REMARK    9  A    between atoms: N_13  and  C_14
REMARK   10  A    between atoms: N_22  and  C_23
REMARK   11  A    between atoms: C_23  and  C_24
REMARK   12  A    between atoms: C_24  and  O_25
REMARK   13  A    between atoms: C_24  and  C_26
REMARK                            x       y       z     vdW  Elec       q    Type
REMARK                         _______ _______ _______ _____ _____    ______ ____
ROOT
ATOM      1  C   UNL     1       2.290   7.265  19.383  0.00  0.00    +0.000 A 
ATOM      2  C   UNL     1       1.696   8.035  20.391  0.00  0.00    +0.000 A 
ATOM      3  C   UNL     1       1.213   9.317  20.110  0.00  0.00    +0.000 A 
ATOM      4  C   UNL     1       1.320   9.826  18.815  0.00  0.00    +0.000 A 
ATOM      5  C   UNL     1       1.925   9.078  17.810  0.00  0.00    +0.000 A 
ATOM      6  C   UNL     1       2.398   7.796  18.091  0.00  0.00    +0.000 A 
ENDROOT
BRANCH   4   7
ATOM      7  N   UNL     1       0.852  11.143  18.511  0.00  0.00    +0.000 N 
ATOM      8  H   UNL     1       0.685  11.252  17.511  0.00  0.00    +0.000 HD
BRANCH   7   9
ATOM      9  S   UNL     1      -0.581  11.595  19.282  0.00  0.00    +0.000 S 
ATOM     10  O   UNL     1      -0.353  11.522  20.706  0.00  0.00    +0.000 OA
ATOM     11  O   UNL     1      -1.143  12.770  18.662  0.00  0.00    +0.000 OA
BRANCH   9  12
ATOM     12  N   UNL     1      -1.584  10.306  18.837  0.00  0.00    +0.000 N 
ATOM     13  H   UNL     1      -0.992   9.476  18.780  0.00  0.00    +0.000 HD
BRANCH  12  14
ATOM     14  C   UNL     1      -2.397  10.486  17.676  0.00  0.00    +0.000 A 
ATOM     15  C   UNL     1      -3.604  11.179  17.759  0.00  0.00    +0.000 A 
ATOM     16  C   UNL     1      -4.420  11.291  16.633  0.00  0.00    +0.000 A 
ATOM     17  C   UNL     1      -4.031  10.704  15.428  0.00  0.00    +0.000 A 
ATOM     18  C   UNL     1      -2.828  10.003  15.347  0.00  0.00    +0.000 A 
ATOM     19  C   UNL     1      -2.011   9.893  16.472  0.00  0.00    +0.000 A 
ENDBRANCH  12  14
ENDBRANCH   9  12
ENDBRANCH   7   9
ENDBRANCH   4   7
BRANCH   1  20
ATOM     20  C   UNL     1       2.861   5.896  19.688  0.00  0.00    +0.000 C 
BRANCH  20  22
ATOM     21  C   UNL     1       0.745   4.633  20.353  0.00  0.00    +0.000 C 
ATOM     22  C   UNL     1       1.955   4.664  19.395  0.00  0.00    +0.000 C 
ATOM     23  C   UNL     1       1.418   4.666  17.951  0.00  0.00    +0.000 C 
BRANCH  22  24
ATOM     24  N   UNL     1       2.687   3.401  19.673  0.00  0.00    +0.000 NA
ATOM     25  H   UNL     1       2.087   2.790  20.227  0.00  0.00    +0.000 HD
BRANCH  24  26
ATOM     26  C   UNL     1       3.154   2.647  18.493  0.00  0.00    +0.000 C 
BRANCH  26  27
ATOM     27  C   UNL     1       4.684   2.795  18.287  0.00  0.00    +0.000 C 
BRANCH  27  28
ATOM     28  C   UNL     1       5.168   4.142  17.785  0.00  0.00    +0.000 A 
ATOM     29  C   UNL     1       6.063   4.911  18.540  0.00  0.00    +0.000 A 
ATOM     30  C   UNL     1       6.541   6.121  18.044  0.00  0.00    +0.000 A 
ATOM     31  C   UNL     1       6.124   6.524  16.788  0.00  0.00    +0.000 A 
ATOM     32  N   UNL     1       5.273   5.815  16.022  0.00  0.00    +0.000 NA
ATOM     33  C   UNL     1       4.817   4.647  16.535  0.00  0.00    +0.000 A 
ENDBRANCH  27  28
BRANCH  27  34
ATOM     34  O   UNL     1       5.316   2.466  19.535  0.00  0.00    +0.000 OA
ATOM     35  H   UNL     1       4.611   2.494  20.205  0.00  0.00    +0.000 HD
ENDBRANCH  27  34
ENDBRANCH  26  27
ENDBRANCH  24  26
ENDBRANCH  22  24
ENDBRANCH  20  22
ENDBRANCH   1  20
TORSDOF 11
ENDMDL
MODEL 9
REMARK VINA RESULT:      -7.1      2.281      4.373
REMARK  Name = 
REMARK  13 active torsions:
REMARK  status: ('A' for Active; 'I' for Inactive)
REMARK    1  A    between atoms: C_1  and  C_2
REMARK    2  A    between atoms: C_2  and  C_3
REMARK    3  A    between atoms: C_2  and  C_4
REMARK    4  A    between atoms: C_2  and  N_22
REMARK    5  A    between atoms: C_4  and  C_5
REMARK    6  A    between atoms: C_8  and  N_9
REMARK    7  A    between atoms: N_9  and  S_10
REMARK    8  A    between atoms: S_10  and  N_13
REMARK    9  A    between atoms: N_13  and  C_14
REMARK   10  A    between atoms: N_22  and  C_23
REMARK   11  A    between atoms: C_23  and  C_24
REMARK   12  A    between atoms: C_24  and  O_25
REMARK   13  A    between atoms: C_24  and  C_26
REMARK                            x       y       z     vdW  Elec       q    Type
REMARK                         _______ _______ _______ _____ _____    ______ ____
ROOT
ATOM      1  C   UNL     1       2.243   5.052  18.889  0.00  0.00    +0.000 A 
ATOM      2  C   UNL     1       2.696   6.337  18.567  0.00  0.00    +0.000 A 
ATOM      3  C   UNL     1       2.535   7.391  19.472  0.00  0.00    +0.000 A 
ATOM      4  C   UNL     1       1.925   7.156  20.704  0.00  0.00    +0.000 A 
ATOM      5  C   UNL     1       1.455   5.887  21.029  0.00  0.00    +0.000 A 
ATOM      6  C   UNL     1       1.624   4.836  20.128  0.00  0.00    +0.000 A 
ENDROOT
BRANCH   4   7
ATOM      7  N   UNL     1       1.732   8.224  21.635  0.00  0.00    +0.000 N 
ATOM      8  H   UNL     1       2.501   8.892  21.594  0.00  0.00    +0.000 HD
BRANCH   7   9
ATOM      9  S   UNL     1       0.317   9.120  21.422  0.00  0.00    +0.000 S 
ATOM     10  O   UNL     1      -0.800   8.244  21.689  0.00  0.00    +0.000 OA
ATOM     11  O   UNL     1       0.433  10.413  22.051  0.00  0.00    +0.000 OA
BRANCH   9  12
ATOM     12  N   UNL     1       0.384   9.402  19.754  0.00  0.00    +0.000 N 
ATOM     13  H   UNL     1       1.291   9.058  19.433  0.00  0.00    +0.000 HD
BRANCH  12  14
ATOM     14  C   UNL     1       0.106  10.730  19.308  0.00  0.00    +0.000 A 
ATOM     15  C   UNL     1       1.147  11.603  18.996  0.00  0.00    +0.000 A 
ATOM     16  C   UNL     1       0.864  12.918  18.625  0.00  0.00    +0.000 A 
ATOM     17  C   UNL     1      -0.459  13.359  18.574  0.00  0.00    +0.000 A 
ATOM     18  C   UNL     1      -1.500  12.488  18.896  0.00  0.00    +0.000 A 
ATOM     19  C   UNL     1      -1.217  11.173  19.264  0.00  0.00    +0.000 A 
ENDBRANCH  12  14
ENDBRANCH   9  12
ENDBRANCH   7   9
ENDBRANCH   4   7
BRANCH   1  20
ATOM     20  C   UNL     1       2.367   3.915  17.898  0.00  0.00    +0.000 C 
BRANCH  20  22
ATOM     21  C   UNL     1       4.462   3.380  19.254  0.00  0.00    +0.000 C 
ATOM     22  C   UNL     1       3.553   2.925  18.092  0.00  0.00    +0.000 C 
ATOM     23  C   UNL     1       3.074   1.493  18.396  0.00  0.00    +0.000 C 
BRANCH  22  24
ATOM     24  N   UNL     1       4.437   2.931  16.898  0.00  0.00    +0.000 NA
ATOM     25  H   UNL     1       4.118   2.211  16.249  0.00  0.00    +0.000 HD
BRANCH  24  26
ATOM     26  C   UNL     1       4.530   4.207  16.164  0.00  0.00    +0.000 C 
BRANCH  26  27
ATOM     27  C   UNL     1       5.998   4.555  15.802  0.00  0.00    +0.000 C 
BRANCH  27  28
ATOM     28  C   UNL     1       6.796   5.288  16.862  0.00  0.00    +0.000 A 
ATOM     29  C   UNL     1       6.886   6.686  16.856  0.00  0.00    +0.000 A 
ATOM     30  C   UNL     1       7.577   7.351  17.865  0.00  0.00    +0.000 A 
ATOM     31  C   UNL     1       8.150   6.596  18.873  0.00  0.00    +0.000 A 
ATOM     32  N   UNL     1       8.082   5.251  18.927  0.00  0.00    +0.000 NA
ATOM     33  C   UNL     1       7.411   4.632  17.927  0.00  0.00    +0.000 A 
ENDBRANCH  27  28
BRANCH  27  34
ATOM     34  O   UNL     1       6.650   3.327  15.439  0.00  0.00    +0.000 OA
ATOM     35  H   UNL     1       6.107   2.938  14.732  0.00  0.00    +0.000 HD
ENDBRANCH  27  34
ENDBRANCH  26  27
ENDBRANCH  24  26
ENDBRANCH  22  24
ENDBRANCH  20  22
ENDBRANCH   1  20
TORSDOF 11
ENDMDL
