MODEL 1
REMARK VINA RESULT:      -8.3      0.000      0.000
REMARK  Name = 
REMARK  6 active torsions:
REMARK  status: ('A' for Active; 'I' for Inactive)
REMARK    1  A    between atoms: N_3  and  N_4
REMARK    2  A    between atoms: C_5  and  C_6
REMARK    3  A    between atoms: C_12  and  O_13
REMARK    4  A    between atoms: N_16  and  C_17
REMARK    5  A    between atoms: C_17  and  C_18
REMARK    6  A    between atoms: C_18  and  C_19
REMARK                            x       y       z     vdW  Elec       q    Type
REMARK                         _______ _______ _______ _____ _____    ______ ____
ROOT
ATOM      1  N   UNL     1       1.148   1.488  18.829  0.00  0.00    +0.000 N 
ATOM      2  C   UNL     1       2.249   2.374  18.674  0.00  0.00    +0.000 C 
ATOM      3  N   UNL     1       3.072   2.152  17.707  0.00  0.00    +0.000 NA
ATOM      4  N   UNL     1       2.431   3.483  19.564  0.00  0.00    +0.000 N 
ATOM      5  H   UNL     1       1.030   0.696  18.180  0.00  0.00    +0.000 HD
ATOM      6  H   UNL     1       0.468   1.587  19.593  0.00  0.00    +0.000 HD
ATOM      7  H   UNL     1       3.340   3.968  19.583  0.00  0.00    +0.000 HD
ENDROOT
BRANCH   3   8
ATOM      8  N   UNL     1       4.110   3.001  17.407  0.00  0.00    +0.000 NA
ATOM      9  C   UNL     1       3.881   4.130  16.839  0.00  0.00    +0.000 C 
BRANCH   9  10
ATOM     10  C   UNL     1       4.957   5.113  16.626  0.00  0.00    +0.000 A 
ATOM     11  C   UNL     1       5.127   5.876  15.476  0.00  0.00    +0.000 A 
ATOM     12  N   UNL     1       6.184   6.707  15.619  0.00  0.00    +0.000 N 
ATOM     13  C   UNL     1       6.683   6.480  16.846  0.00  0.00    +0.000 A 
ATOM     14  C   UNL     1       7.771   7.111  17.447  0.00  0.00    +0.000 A 
ATOM     15  C   UNL     1       8.125   6.718  18.749  0.00  0.00    +0.000 A 
ATOM     16  C   UNL     1       7.389   5.710  19.420  0.00  0.00    +0.000 A 
ATOM     17  C   UNL     1       6.293   5.096  18.786  0.00  0.00    +0.000 A 
ATOM     18  C   UNL     1       5.964   5.505  17.494  0.00  0.00    +0.000 A 
ATOM     19  H   UNL     1       6.536   7.394  14.916  0.00  0.00    +0.000 HD
BRANCH  16  20
ATOM     20  O   UNL     1       7.729   5.326  20.667  0.00  0.00    +0.000 OA
ATOM     21  H   UNL     1       7.897   5.965  21.374  0.00  0.00    +0.000 HD
ENDBRANCH  16  20
ENDBRANCH   9  10
ENDBRANCH   3   8
BRANCH   4  22
ATOM     22  C   UNL     1       1.351   3.986  20.395  0.00  0.00    +0.000 C 
BRANCH  22  23
ATOM     23  C   UNL     1       1.798   5.184  21.249  0.00  0.00    +0.000 C 
BRANCH  23  24
ATOM     24  C   UNL     1       1.823   6.461  20.436  0.00  0.00    +0.000 A 
ATOM     25  C   UNL     1       2.441   6.479  19.174  0.00  0.00    +0.000 A 
ATOM     26  C   UNL     1       2.461   7.651  18.410  0.00  0.00    +0.000 A 
ATOM     27  C   UNL     1       1.863   8.819  18.893  0.00  0.00    +0.000 A 
ATOM     28 CL   UNL     1       1.904  10.269  17.900  0.00  0.00    +0.000 Cl
ATOM     29  C   UNL     1       1.244   8.814  20.154  0.00  0.00    +0.000 A 
ATOM     30 CL   UNL     1       0.475  10.260  20.793  0.00  0.00    +0.000 Cl
ATOM     31  C   UNL     1       1.231   7.642  20.921  0.00  0.00    +0.000 A 
ENDBRANCH  23  24
ENDBRANCH  22  23
ENDBRANCH   4  22
TORSDOF 6
ENDMDL
MODEL 2
REMARK VINA RESULT:      -8.1      5.067      7.117
REMARK  Name = 
REMARK  6 active torsions:
REMARK  status: ('A' for Active; 'I' for Inactive)
REMARK    1  A    between atoms: N_3  and  N_4
REMARK    2  A    between atoms: C_5  and  C_6
REMARK    3  A    between atoms: C_12  and  O_13
REMARK    4  A    between atoms: N_16  and  C_17
REMARK    5  A    between atoms: C_17  and  C_18
REMARK    6  A    between atoms: C_18  and  C_19
REMARK                            x       y       z     vdW  Elec       q    Type
REMARK                         _______ _______ _______ _____ _____    ______ ____
ROOT
ATOM      1  N   UNL     1       6.158   6.492  16.537  0.00  0.00    +0.000 N 
ATOM      2  C   UNL     1       7.071   7.054  17.470  0.00  0.00    +0.000 C 
ATOM      3  N   UNL     1       7.624   8.180  17.172  0.00  0.00    +0.000 NA
ATOM      4  N   UNL     1       7.361   6.389  18.707  0.00  0.00    +0.000 N 
ATOM      5  H   UNL     1       5.959   6.982  15.652  0.00  0.00    +0.000 HD
ATOM      6  H   UNL     1       5.702   5.584  16.694  0.00  0.00    +0.000 HD
ATOM      7  H   UNL     1       8.182   6.685  19.256  0.00  0.00    +0.000 HD
ENDROOT
BRANCH   3   8
ATOM      8  N   UNL     1       8.442   8.858  18.043  0.00  0.00    +0.000 NA
ATOM      9  C   UNL     1       8.679  10.109  17.868  0.00  0.00    +0.000 C 
BRANCH   9  10
ATOM     10  C   UNL     1       9.444  10.888  18.856  0.00  0.00    +0.000 A 
ATOM     11  C   UNL     1       9.378  10.718  20.235  0.00  0.00    +0.000 A 
ATOM     12  N   UNL     1      10.235  11.562  20.852  0.00  0.00    +0.000 N 
ATOM     13  C   UNL     1      10.843  12.264  19.881  0.00  0.00    +0.000 A 
ATOM     14  C   UNL     1      11.819  13.246  20.033  0.00  0.00    +0.000 A 
ATOM     15  C   UNL     1      12.326  13.857  18.872  0.00  0.00    +0.000 A 
ATOM     16  C   UNL     1      11.851  13.475  17.593  0.00  0.00    +0.000 A 
ATOM     17  C   UNL     1      10.868  12.474  17.475  0.00  0.00    +0.000 A 
ATOM     18  C   UNL     1      10.383  11.886  18.643  0.00  0.00    +0.000 A 
ATOM     19  H   UNL     1      10.395  11.645  21.881  0.00  0.00    +0.000 HD
BRANCH  16  20
ATOM     20  O   UNL     1      12.331  14.062  16.479  0.00  0.00    +0.000 OA
ATOM     21  H   UNL     1      13.194  14.499  16.458  0.00  0.00    +0.000 HD
ENDBRANCH  16  20
ENDBRANCH   9  10
ENDBRANCH   3   8
BRANCH   4  22
ATOM     22  C   UNL     1       6.496   5.354  19.244  0.00  0.00    +0.000 C 
BRANCH  22  23
ATOM     23  C   UNL     1       6.086   4.336  18.166  0.00  0.00    +0.000 C 
BRANCH  23  24
ATOM     24  C   UNL     1       4.651   3.892  18.346  0.00  0.00    +0.000 A 
ATOM     25  C   UNL     1       4.157   2.796  17.615  0.00  0.00    +0.000 A 
ATOM     26  C   UNL     1       2.835   2.371  17.780  0.00  0.00    +0.000 A 
ATOM     27  C   UNL     1       1.988   3.029  18.677  0.00  0.00    +0.000 A 
ATOM     28 CL   UNL     1       0.335   2.459  18.862  0.00  0.00    +0.000 Cl
ATOM     29  C   UNL     1       2.469   4.126  19.412  0.00  0.00    +0.000 A 
ATOM     30 CL   UNL     1       1.437   4.976  20.554  0.00  0.00    +0.000 Cl
ATOM     31  C   UNL     1       3.791   4.556  19.240  0.00  0.00    +0.000 A 
ENDBRANCH  23  24
ENDBRANCH  22  23
ENDBRANCH   4  22
TORSDOF 6
ENDMDL
MODEL 3
REMARK VINA RESULT:      -7.9      3.004      4.175
REMARK  Name = 
REMARK  6 active torsions:
REMARK  status: ('A' for Active; 'I' for Inactive)
REMARK    1  A    between atoms: N_3  and  N_4
REMARK    2  A    between atoms: C_5  and  C_6
REMARK    3  A    between atoms: C_12  and  O_13
REMARK    4  A    between atoms: N_16  and  C_17
REMARK    5  A    between atoms: C_17  and  C_18
REMARK    6  A    between atoms: C_18  and  C_19
REMARK                            x       y       z     vdW  Elec       q    Type
REMARK                         _______ _______ _______ _____ _____    ______ ____
ROOT
ATOM      1  N   UNL     1       1.232   3.672  19.340  0.00  0.00    +0.000 N 
ATOM      2  C   UNL     1       2.267   4.326  18.618  0.00  0.00    +0.000 C 
ATOM      3  N   UNL     1       2.738   3.740  17.572  0.00  0.00    +0.000 NA
ATOM      4  N   UNL     1       2.765   5.603  19.041  0.00  0.00    +0.000 N 
ATOM      5  H   UNL     1       0.884   2.755  19.023  0.00  0.00    +0.000 HD
ATOM      6  H   UNL     1       0.828   4.067  20.199  0.00  0.00    +0.000 HD
ATOM      7  H   UNL     1       3.655   5.949  18.653  0.00  0.00    +0.000 HD
ENDROOT
BRANCH   3   8
ATOM      8  N   UNL     1       3.667   4.327  16.747  0.00  0.00    +0.000 NA
ATOM      9  C   UNL     1       4.917   4.058  16.883  0.00  0.00    +0.000 C 
BRANCH   9  10
ATOM     10  C   UNL     1       5.918   4.570  15.932  0.00  0.00    +0.000 A 
ATOM     11  C   UNL     1       6.950   5.446  16.251  0.00  0.00    +0.000 A 
ATOM     12  N   UNL     1       7.714   5.685  15.161  0.00  0.00    +0.000 N 
ATOM     13  C   UNL     1       7.178   4.970  14.158  0.00  0.00    +0.000 A 
ATOM     14  C   UNL     1       7.631   4.888  12.843  0.00  0.00    +0.000 A 
ATOM     15  C   UNL     1       6.917   4.072  11.948  0.00  0.00    +0.000 A 
ATOM     16  C   UNL     1       5.772   3.359  12.384  0.00  0.00    +0.000 A 
ATOM     17  C   UNL     1       5.345   3.460  13.721  0.00  0.00    +0.000 A 
ATOM     18  C   UNL     1       6.072   4.277  14.586  0.00  0.00    +0.000 A 
ATOM     19  H   UNL     1       8.557   6.299  15.115  0.00  0.00    +0.000 HD
BRANCH  16  20
ATOM     20  O   UNL     1       5.081   2.581  11.528  0.00  0.00    +0.000 OA
ATOM     21  H   UNL     1       5.179   1.618  11.515  0.00  0.00    +0.000 HD
ENDBRANCH  16  20
ENDBRANCH   9  10
ENDBRANCH   3   8
BRANCH   4  22
ATOM     22  C   UNL     1       2.020   6.454  19.952  0.00  0.00    +0.000 C 
BRANCH  22  23
ATOM     23  C   UNL     1       2.046   7.926  19.508  0.00  0.00    +0.000 C 
BRANCH  23  24
ATOM     24  C   UNL     1       1.169   8.784  20.396  0.00  0.00    +0.000 A 
ATOM     25  C   UNL     1       1.178   8.592  21.789  0.00  0.00    +0.000 A 
ATOM     26  C   UNL     1       0.379   9.385  22.619  0.00  0.00    +0.000 A 
ATOM     27  C   UNL     1      -0.436  10.381  22.073  0.00  0.00    +0.000 A 
ATOM     28 CL   UNL     1      -1.420  11.362  23.151  0.00  0.00    +0.000 Cl
ATOM     29  C   UNL     1      -0.454  10.582  20.683  0.00  0.00    +0.000 A 
ATOM     30 CL   UNL     1      -1.460  11.828  19.959  0.00  0.00    +0.000 Cl
ATOM     31  C   UNL     1       0.340   9.782  19.852  0.00  0.00    +0.000 A 
ENDBRANCH  23  24
ENDBRANCH  22  23
ENDBRANCH   4  22
TORSDOF 6
ENDMDL
MODEL 4
REMARK VINA RESULT:      -7.9      5.257      7.081
REMARK  Name = 
REMARK  6 active torsions:
REMARK  status: ('A' for Active; 'I' for Inactive)
REMARK    1  A    between atoms: N_3  and  N_4
REMARK    2  A    between atoms: C_5  and  C_6
REMARK    3  A    between atoms: C_12  and  O_13
REMARK    4  A    between atoms: N_16  and  C_17
REMARK    5  A    between atoms: C_17  and  C_18
REMARK    6  A    between atoms: C_18  and  C_19
REMARK                            x       y       z     vdW  Elec       q    Type
REMARK                         _______ _______ _______ _____ _____    ______ ____
ROOT
ATOM      1  N   UNL     1       6.649   6.295  16.230  0.00  0.00    +0.000 N 
ATOM      2  C   UNL     1       7.195   6.951  17.366  0.00  0.00    +0.000 C 
ATOM      3  N   UNL     1       7.850   8.045  17.176  0.00  0.00    +0.000 NA
ATOM      4  N   UNL     1       7.016   6.413  18.683  0.00  0.00    +0.000 N 
ATOM      5  H   UNL     1       6.785   6.695  15.290  0.00  0.00    +0.000 HD
ATOM      6  H   UNL     1       6.139   5.406  16.302  0.00  0.00    +0.000 HD
ATOM      7  H   UNL     1       7.602   6.765  19.454  0.00  0.00    +0.000 HD
ENDROOT
BRANCH   3   8
ATOM      8  N   UNL     1       8.333   8.810  18.210  0.00  0.00    +0.000 NA
ATOM      9  C   UNL     1       8.845   9.966  17.978  0.00  0.00    +0.000 C 
BRANCH   9  10
ATOM     10  C   UNL     1       9.249  10.859  19.076  0.00  0.00    +0.000 A 
ATOM     11  C   UNL     1       9.422  10.471  20.401  0.00  0.00    +0.000 A 
ATOM     12  N   UNL     1       9.835  11.522  21.145  0.00  0.00    +0.000 N 
ATOM     13  C   UNL     1       9.927  12.568  20.308  0.00  0.00    +0.000 A 
ATOM     14  C   UNL     1      10.329  13.866  20.618  0.00  0.00    +0.000 A 
ATOM     15  C   UNL     1      10.356  14.814  19.580  0.00  0.00    +0.000 A 
ATOM     16  C   UNL     1       9.984  14.448  18.262  0.00  0.00    +0.000 A 
ATOM     17  C   UNL     1       9.589  13.126  17.983  0.00  0.00    +0.000 A 
ATOM     18  C   UNL     1       9.572  12.207  19.031  0.00  0.00    +0.000 A 
ATOM     19  H   UNL     1      10.047  11.515  22.168  0.00  0.00    +0.000 HD
BRANCH  16  20
ATOM     20  O   UNL     1      10.003  15.355  17.266  0.00  0.00    +0.000 OA
ATOM     21  H   UNL     1      10.013  16.307  17.438  0.00  0.00    +0.000 HD
ENDBRANCH  16  20
ENDBRANCH   9  10
ENDBRANCH   3   8
BRANCH   4  22
ATOM     22  C   UNL     1       5.987   5.431  18.978  0.00  0.00    +0.000 C 
BRANCH  22  23
ATOM     23  C   UNL     1       4.609   6.086  19.166  0.00  0.00    +0.000 C 
BRANCH  23  24
ATOM     24  C   UNL     1       3.499   5.059  19.100  0.00  0.00    +0.000 A 
ATOM     25  C   UNL     1       2.868   4.783  17.874  0.00  0.00    +0.000 A 
ATOM     26  C   UNL     1       1.847   3.830  17.800  0.00  0.00    +0.000 A 
ATOM     27  C   UNL     1       1.443   3.138  18.946  0.00  0.00    +0.000 A 
ATOM     28 CL   UNL     1       0.160   1.943  18.810  0.00  0.00    +0.000 Cl
ATOM     29  C   UNL     1       2.063   3.407  20.177  0.00  0.00    +0.000 A 
ATOM     30 CL   UNL     1       1.587   2.554  21.639  0.00  0.00    +0.000 Cl
ATOM     31  C   UNL     1       3.080   4.367  20.251  0.00  0.00    +0.000 A 
ENDBRANCH  23  24
ENDBRANCH  22  23
ENDBRANCH   4  22
TORSDOF 6
ENDMDL
MODEL 5
REMARK VINA RESULT:      -7.7      4.376      5.758
REMARK  Name = 
REMARK  6 active torsions:
REMARK  status: ('A' for Active; 'I' for Inactive)
REMARK    1  A    between atoms: N_3  and  N_4
REMARK    2  A    between atoms: C_5  and  C_6
REMARK    3  A    between atoms: C_12  and  O_13
REMARK    4  A    between atoms: N_16  and  C_17
REMARK    5  A    between atoms: C_17  and  C_18
REMARK    6  A    between atoms: C_18  and  C_19
REMARK                            x       y       z     vdW  Elec       q    Type
REMARK                         _______ _______ _______ _____ _____    ______ ____
ROOT
ATOM      1  N   UNL     1       0.463   9.630  21.368  0.00  0.00    +0.000 N 
ATOM      2  C   UNL     1       1.081   9.000  20.253  0.00  0.00    +0.000 C 
ATOM      3  N   UNL     1       1.766   7.929  20.467  0.00  0.00    +0.000 NA
ATOM      4  N   UNL     1       0.938   9.539  18.932  0.00  0.00    +0.000 N 
ATOM      5  H   UNL     1       0.574   9.230  22.311  0.00  0.00    +0.000 HD
ATOM      6  H   UNL     1      -0.074  10.501  21.277  0.00  0.00    +0.000 HD
ATOM      7  H   UNL     1       1.569   9.212  18.185  0.00  0.00    +0.000 HD
ENDROOT
BRANCH   3   8
ATOM      8  N   UNL     1       2.319   7.188  19.451  0.00  0.00    +0.000 NA
ATOM      9  C   UNL     1       2.708   5.982  19.666  0.00  0.00    +0.000 C 
BRANCH   9  10
ATOM     10  C   UNL     1       3.183   5.123  18.568  0.00  0.00    +0.000 A 
ATOM     11  C   UNL     1       2.544   3.972  18.119  0.00  0.00    +0.000 A 
ATOM     12  N   UNL     1       3.217   3.442  17.072  0.00  0.00    +0.000 N 
ATOM     13  C   UNL     1       4.273   4.244  16.854  0.00  0.00    +0.000 A 
ATOM     14  C   UNL     1       5.248   4.109  15.868  0.00  0.00    +0.000 A 
ATOM     15  C   UNL     1       6.272   5.070  15.816  0.00  0.00    +0.000 A 
ATOM     16  C   UNL     1       6.300   6.141  16.744  0.00  0.00    +0.000 A 
ATOM     17  C   UNL     1       5.296   6.251  17.724  0.00  0.00    +0.000 A 
ATOM     18  C   UNL     1       4.292   5.283  17.752  0.00  0.00    +0.000 A 
ATOM     19  H   UNL     1       2.960   2.583  16.538  0.00  0.00    +0.000 HD
BRANCH  16  20
ATOM     20  O   UNL     1       7.283   7.062  16.701  0.00  0.00    +0.000 OA
ATOM     21  H   UNL     1       7.480   7.639  17.452  0.00  0.00    +0.000 HD
ENDBRANCH  16  20
ENDBRANCH   9  10
ENDBRANCH   3   8
BRANCH   4  22
ATOM     22  C   UNL     1      -0.111  10.485  18.597  0.00  0.00    +0.000 C 
BRANCH  22  23
ATOM     23  C   UNL     1      -0.985   9.983  17.437  0.00  0.00    +0.000 C 
BRANCH  23  24
ATOM     24  C   UNL     1      -2.355  10.625  17.461  0.00  0.00    +0.000 A 
ATOM     25  C   UNL     1      -3.189  10.546  16.331  0.00  0.00    +0.000 A 
ATOM     26  C   UNL     1      -4.460  11.129  16.345  0.00  0.00    +0.000 A 
ATOM     27  C   UNL     1      -4.920  11.794  17.486  0.00  0.00    +0.000 A 
ATOM     28 CL   UNL     1      -6.527  12.506  17.467  0.00  0.00    +0.000 Cl
ATOM     29  C   UNL     1      -4.096  11.881  18.620  0.00  0.00    +0.000 A 
ATOM     30 CL   UNL     1      -4.639  12.704  20.076  0.00  0.00    +0.000 Cl
ATOM     31  C   UNL     1      -2.820  11.304  18.602  0.00  0.00    +0.000 A 
ENDBRANCH  23  24
ENDBRANCH  22  23
ENDBRANCH   4  22
TORSDOF 6
ENDMDL
MODEL 6
REMARK VINA RESULT:      -7.7      2.719      3.473
REMARK  Name = 
REMARK  6 active torsions:
REMARK  status: ('A' for Active; 'I' for Inactive)
REMARK    1  A    between atoms: N_3  and  N_4
REMARK    2  A    between atoms: C_5  and  C_6
REMARK    3  A    between atoms: C_12  and  O_13
REMARK    4  A    between atoms: N_16  and  C_17
REMARK    5  A    between atoms: C_17  and  C_18
REMARK    6  A    between atoms: C_18  and  C_19
REMARK                            x       y       z     vdW  Elec       q    Type
REMARK                         _______ _______ _______ _____ _____    ______ ____
ROOT
ATOM      1  N   UNL     1       0.884   2.515  18.953  0.00  0.00    +0.000 N 
ATOM      2  C   UNL     1       1.916   3.335  18.420  0.00  0.00    +0.000 C 
ATOM      3  N   UNL     1       2.465   2.971  17.311  0.00  0.00    +0.000 NA
ATOM      4  N   UNL     1       2.326   4.532  19.094  0.00  0.00    +0.000 N 
ATOM      5  H   UNL     1       0.600   1.658  18.456  0.00  0.00    +0.000 HD
ATOM      6  H   UNL     1       0.421   2.727  19.845  0.00  0.00    +0.000 HD
ATOM      7  H   UNL     1       3.214   4.981  18.824  0.00  0.00    +0.000 HD
ENDROOT
BRANCH   3   8
ATOM      8  N   UNL     1       3.400   3.739  16.659  0.00  0.00    +0.000 NA
ATOM      9  C   UNL     1       4.654   3.520  16.833  0.00  0.00    +0.000 C 
BRANCH   9  10
ATOM     10  C   UNL     1       5.672   4.240  16.050  0.00  0.00    +0.000 A 
ATOM     11  C   UNL     1       6.553   5.187  16.560  0.00  0.00    +0.000 A 
ATOM     12  N   UNL     1       7.384   5.625  15.587  0.00  0.00    +0.000 N 
ATOM     13  C   UNL     1       7.040   4.966  14.468  0.00  0.00    +0.000 A 
ATOM     14  C   UNL     1       7.625   5.076  13.208  0.00  0.00    +0.000 A 
ATOM     15  C   UNL     1       7.105   4.285  12.168  0.00  0.00    +0.000 A 
ATOM     16  C   UNL     1       6.020   3.406  12.407  0.00  0.00    +0.000 A 
ATOM     17  C   UNL     1       5.456   3.315  13.694  0.00  0.00    +0.000 A 
ATOM     18  C   UNL     1       5.991   4.111  14.706  0.00  0.00    +0.000 A 
ATOM     19  H   UNL     1       8.146   6.331  15.691  0.00  0.00    +0.000 HD
BRANCH  16  20
ATOM     20  O   UNL     1       5.516   2.651  11.412  0.00  0.00    +0.000 OA
ATOM     21  H   UNL     1       6.032   1.955  10.982  0.00  0.00    +0.000 HD
ENDBRANCH  16  20
ENDBRANCH   9  10
ENDBRANCH   3   8
BRANCH   4  22
ATOM     22  C   UNL     1       1.497   5.169  20.102  0.00  0.00    +0.000 C 
BRANCH  22  23
ATOM     23  C   UNL     1       2.229   6.331  20.792  0.00  0.00    +0.000 C 
BRANCH  23  24
ATOM     24  C   UNL     1       1.727   7.670  20.297  0.00  0.00    +0.000 A 
ATOM     25  C   UNL     1       2.000   8.080  18.980  0.00  0.00    +0.000 A 
ATOM     26  C   UNL     1       1.533   9.311  18.508  0.00  0.00    +0.000 A 
ATOM     27  C   UNL     1       0.785  10.149  19.341  0.00  0.00    +0.000 A 
ATOM     28 CL   UNL     1       0.210  11.685  18.709  0.00  0.00    +0.000 Cl
ATOM     29  C   UNL     1       0.507   9.752  20.660  0.00  0.00    +0.000 A 
ATOM     30 CL   UNL     1      -0.435  10.773  21.736  0.00  0.00    +0.000 Cl
ATOM     31  C   UNL     1       0.982   8.521  21.133  0.00  0.00    +0.000 A 
ENDBRANCH  23  24
ENDBRANCH  22  23
ENDBRANCH   4  22
TORSDOF 6
ENDMDL
MODEL 7
REMARK VINA RESULT:      -7.6      3.566      6.421
REMARK  Name = 
REMARK  6 active torsions:
REMARK  status: ('A' for Active; 'I' for Inactive)
REMARK    1  A    between atoms: N_3  and  N_4
REMARK    2  A    between atoms: C_5  and  C_6
REMARK    3  A    between atoms: C_12  and  O_13
REMARK    4  A    between atoms: N_16  and  C_17
REMARK    5  A    between atoms: C_17  and  C_18
REMARK    6  A    between atoms: C_18  and  C_19
REMARK                            x       y       z     vdW  Elec       q    Type
REMARK                         _______ _______ _______ _____ _____    ______ ____
ROOT
ATOM      1  N   UNL     1       3.344   3.010  20.734  0.00  0.00    +0.000 N 
ATOM      2  C   UNL     1       2.552   4.074  20.221  0.00  0.00    +0.000 C 
ATOM      3  N   UNL     1       2.369   5.107  20.970  0.00  0.00    +0.000 NA
ATOM      4  N   UNL     1       1.982   3.999  18.907  0.00  0.00    +0.000 N 
ATOM      5  H   UNL     1       3.747   3.079  21.679  0.00  0.00    +0.000 HD
ATOM      6  H   UNL     1       3.509   2.145  20.205  0.00  0.00    +0.000 HD
ATOM      7  H   UNL     1       1.235   4.659  18.645  0.00  0.00    +0.000 HD
ENDROOT
BRANCH   3   8
ATOM      8  N   UNL     1       1.706   6.229  20.536  0.00  0.00    +0.000 NA
ATOM      9  C   UNL     1       2.365   7.242  20.097  0.00  0.00    +0.000 C 
BRANCH   9  10
ATOM     10  C   UNL     1       1.679   8.403  19.505  0.00  0.00    +0.000 A 
ATOM     11  C   UNL     1       1.633   8.700  18.147  0.00  0.00    +0.000 A 
ATOM     12  N   UNL     1       0.890   9.809  17.936  0.00  0.00    +0.000 N 
ATOM     13  C   UNL     1       0.465  10.218  19.143  0.00  0.00    +0.000 A 
ATOM     14  C   UNL     1      -0.345  11.316  19.428  0.00  0.00    +0.000 A 
ATOM     15  C   UNL     1      -0.674  11.562  20.772  0.00  0.00    +0.000 A 
ATOM     16  C   UNL     1      -0.191  10.712  21.797  0.00  0.00    +0.000 A 
ATOM     17  C   UNL     1       0.620   9.608  21.475  0.00  0.00    +0.000 A 
ATOM     18  C   UNL     1       0.931   9.387  20.133  0.00  0.00    +0.000 A 
ATOM     19  H   UNL     1       0.684  10.254  17.014  0.00  0.00    +0.000 HD
BRANCH  16  20
ATOM     20  O   UNL     1      -0.500  10.948  23.088  0.00  0.00    +0.000 OA
ATOM     21  H   UNL     1      -1.410  11.098  23.380  0.00  0.00    +0.000 HD
ENDBRANCH  16  20
ENDBRANCH   9  10
ENDBRANCH   3   8
BRANCH   4  22
ATOM     22  C   UNL     1       2.470   3.062  17.911  0.00  0.00    +0.000 C 
BRANCH  22  23
ATOM     23  C   UNL     1       2.963   3.780  16.644  0.00  0.00    +0.000 C 
BRANCH  23  24
ATOM     24  C   UNL     1       4.148   4.672  16.944  0.00  0.00    +0.000 A 
ATOM     25  C   UNL     1       3.985   6.068  16.985  0.00  0.00    +0.000 A 
ATOM     26  C   UNL     1       5.071   6.902  17.270  0.00  0.00    +0.000 A 
ATOM     27  C   UNL     1       6.333   6.356  17.521  0.00  0.00    +0.000 A 
ATOM     28 CL   UNL     1       7.672   7.438  17.883  0.00  0.00    +0.000 Cl
ATOM     29  C   UNL     1       6.510   4.963  17.481  0.00  0.00    +0.000 A 
ATOM     30 CL   UNL     1       8.080   4.238  17.797  0.00  0.00    +0.000 Cl
ATOM     31  C   UNL     1       5.423   4.130  17.188  0.00  0.00    +0.000 A 
ENDBRANCH  23  24
ENDBRANCH  22  23
ENDBRANCH   4  22
TORSDOF 6
ENDMDL
MODEL 8
REMARK VINA RESULT:      -7.6      3.132      4.249
REMARK  Name = 
REMARK  6 active torsions:
REMARK  status: ('A' for Active; 'I' for Inactive)
REMARK    1  A    between atoms: N_3  and  N_4
REMARK    2  A    between atoms: C_5  and  C_6
REMARK    3  A    between atoms: C_12  and  O_13
REMARK    4  A    between atoms: N_16  and  C_17
REMARK    5  A    between atoms: C_17  and  C_18
REMARK    6  A    between atoms: C_18  and  C_19
REMARK                            x       y       z     vdW  Elec       q    Type
REMARK                         _______ _______ _______ _____ _____    ______ ____
ROOT
ATOM      1  N   UNL     1       1.521   4.543  19.887  0.00  0.00    +0.000 N 
ATOM      2  C   UNL     1       2.717   4.928  19.222  0.00  0.00    +0.000 C 
ATOM      3  N   UNL     1       3.412   4.008  18.646  0.00  0.00    +0.000 NA
ATOM      4  N   UNL     1       3.132   6.301  19.190  0.00  0.00    +0.000 N 
ATOM      5  H   UNL     1       1.236   3.553  19.900  0.00  0.00    +0.000 HD
ATOM      6  H   UNL     1       0.933   5.218  20.391  0.00  0.00    +0.000 HD
ATOM      7  H   UNL     1       4.098   6.527  18.912  0.00  0.00    +0.000 HD
ENDROOT
BRANCH   3   8
ATOM      8  N   UNL     1       4.528   4.282  17.893  0.00  0.00    +0.000 NA
ATOM      9  C   UNL     1       4.471   4.239  16.610  0.00  0.00    +0.000 C 
BRANCH   9  10
ATOM     10  C   UNL     1       5.613   4.655  15.778  0.00  0.00    +0.000 A 
ATOM     11  C   UNL     1       6.661   5.464  16.205  0.00  0.00    +0.000 A 
ATOM     12  N   UNL     1       7.565   5.621  15.211  0.00  0.00    +0.000 N 
ATOM     13  C   UNL     1       7.101   4.921  14.162  0.00  0.00    +0.000 A 
ATOM     14  C   UNL     1       7.700   4.774  12.912  0.00  0.00    +0.000 A 
ATOM     15  C   UNL     1       7.039   3.989  11.952  0.00  0.00    +0.000 A 
ATOM     16  C   UNL     1       5.802   3.370  12.258  0.00  0.00    +0.000 A 
ATOM     17  C   UNL     1       5.227   3.535  13.532  0.00  0.00    +0.000 A 
ATOM     18  C   UNL     1       5.904   4.319  14.465  0.00  0.00    +0.000 A 
ATOM     19  H   UNL     1       8.450   6.172  15.256  0.00  0.00    +0.000 HD
BRANCH  16  20
ATOM     20  O   UNL     1       5.162   2.621  11.338  0.00  0.00    +0.000 OA
ATOM     21  H   UNL     1       4.867   2.987  10.492  0.00  0.00    +0.000 HD
ENDBRANCH  16  20
ENDBRANCH   9  10
ENDBRANCH   3   8
BRANCH   4  22
ATOM     22  C   UNL     1       2.212   7.388  19.476  0.00  0.00    +0.000 C 
BRANCH  22  23
ATOM     23  C   UNL     1       1.936   8.244  18.230  0.00  0.00    +0.000 C 
BRANCH  23  24
ATOM     24  C   UNL     1       1.554   9.659  18.608  0.00  0.00    +0.000 A 
ATOM     25  C   UNL     1       2.244  10.748  18.047  0.00  0.00    +0.000 A 
ATOM     26  C   UNL     1       1.893  12.060  18.382  0.00  0.00    +0.000 A 
ATOM     27  C   UNL     1       0.848  12.304  19.278  0.00  0.00    +0.000 A 
ATOM     28 CL   UNL     1       0.433  13.968  19.669  0.00  0.00    +0.000 Cl
ATOM     29  C   UNL     1       0.152  11.225  19.848  0.00  0.00    +0.000 A 
ATOM     30 CL   UNL     1      -1.171  11.491  20.974  0.00  0.00    +0.000 Cl
ATOM     31  C   UNL     1       0.509   9.912  19.517  0.00  0.00    +0.000 A 
ENDBRANCH  23  24
ENDBRANCH  22  23
ENDBRANCH   4  22
TORSDOF 6
ENDMDL
MODEL 9
REMARK VINA RESULT:      -7.6      5.583      7.694
REMARK  Name = 
REMARK  6 active torsions:
REMARK  status: ('A' for Active; 'I' for Inactive)
REMARK    1  A    between atoms: N_3  and  N_4
REMARK    2  A    between atoms: C_5  and  C_6
REMARK    3  A    between atoms: C_12  and  O_13
REMARK    4  A    between atoms: N_16  and  C_17
REMARK    5  A    between atoms: C_17  and  C_18
REMARK    6  A    between atoms: C_18  and  C_19
REMARK                            x       y       z     vdW  Elec       q    Type
REMARK                         _______ _______ _______ _____ _____    ______ ____
ROOT
ATOM      1  N   UNL     1       6.468   6.925  16.809  0.00  0.00    +0.000 N 
ATOM      2  C   UNL     1       7.434   7.545  17.648  0.00  0.00    +0.000 C 
ATOM      3  N   UNL     1       7.748   8.771  17.405  0.00  0.00    +0.000 NA
ATOM      4  N   UNL     1       8.034   6.826  18.735  0.00  0.00    +0.000 N 
ATOM      5  H   UNL     1       6.045   7.455  16.033  0.00  0.00    +0.000 HD
ATOM      6  H   UNL     1       6.190   5.942  16.926  0.00  0.00    +0.000 HD
ATOM      7  H   UNL     1       8.884   7.205  19.179  0.00  0.00    +0.000 HD
ENDROOT
BRANCH   3   8
ATOM      8  N   UNL     1       8.593   9.495  18.212  0.00  0.00    +0.000 NA
ATOM      9  C   UNL     1       9.025  10.644  17.833  0.00  0.00    +0.000 C 
BRANCH   9  10
ATOM     10  C   UNL     1       9.824  11.496  18.730  0.00  0.00    +0.000 A 
ATOM     11  C   UNL     1      10.155  11.185  20.044  0.00  0.00    +0.000 A 
ATOM     12  N   UNL     1      10.930  12.158  20.574  0.00  0.00    +0.000 N 
ATOM     13  C   UNL     1      11.094  13.080  19.611  0.00  0.00    +0.000 A 
ATOM     14  C   UNL     1      11.830  14.260  19.687  0.00  0.00    +0.000 A 
ATOM     15  C   UNL     1      11.871  15.087  18.551  0.00  0.00    +0.000 A 
ATOM     16  C   UNL     1      11.181  14.719  17.369  0.00  0.00    +0.000 A 
ATOM     17  C   UNL     1      10.451  13.516  17.324  0.00  0.00    +0.000 A 
ATOM     18  C   UNL     1      10.428  12.716  18.466  0.00  0.00    +0.000 A 
ATOM     19  H   UNL     1      11.327  12.181  21.540  0.00  0.00    +0.000 HD
BRANCH  16  20
ATOM     20  O   UNL     1      11.213  15.511  16.280  0.00  0.00    +0.000 OA
ATOM     21  H   UNL     1      12.044  15.791  15.871  0.00  0.00    +0.000 HD
ENDBRANCH  16  20
ENDBRANCH   9  10
ENDBRANCH   3   8
BRANCH   4  22
ATOM     22  C   UNL     1       7.445   5.613  19.272  0.00  0.00    +0.000 C 
BRANCH  22  23
ATOM     23  C   UNL     1       6.700   4.813  18.190  0.00  0.00    +0.000 C 
BRANCH  23  24
ATOM     24  C   UNL     1       5.265   4.548  18.592  0.00  0.00    +0.000 A 
ATOM     25  C   UNL     1       4.632   5.381  19.531  0.00  0.00    +0.000 A 
ATOM     26  C   UNL     1       3.304   5.151  19.903  0.00  0.00    +0.000 A 
ATOM     27  C   UNL     1       2.587   4.090  19.342  0.00  0.00    +0.000 A 
ATOM     28 CL   UNL     1       0.917   3.838  19.829  0.00  0.00    +0.000 Cl
ATOM     29  C   UNL     1       3.208   3.249  18.404  0.00  0.00    +0.000 A 
ATOM     30 CL   UNL     1       2.340   1.908  17.671  0.00  0.00    +0.000 Cl
ATOM     31  C   UNL     1       4.542   3.476  18.038  0.00  0.00    +0.000 A 
ENDBRANCH  23  24
ENDBRANCH  22  23
ENDBRANCH   4  22
TORSDOF 6
ENDMDL
