MODEL 1
REMARK VINA RESULT:      -6.9      0.000      0.000
REMARK  Name = 
REMARK  5 active torsions:
REMARK  status: ('A' for Active; 'I' for Inactive)
REMARK    1  A    between atoms: C_1  and  O_2
REMARK    2  A    between atoms: O_2  and  C_3
REMARK    3  A    between atoms: C_3  and  C_5
REMARK    4  A    between atoms: C_6  and  N_7
REMARK    5  A    between atoms: C_13  and  O_14
REMARK                            x       y       z     vdW  Elec       q    Type
REMARK                         _______ _______ _______ _____ _____    ______ ____
ROOT
ATOM      1  C   UNL     1       4.966   5.273  16.613  0.00  0.00    +0.000 A 
ATOM      2  C   UNL     1       5.246   3.928  16.485  0.00  0.00    +0.000 A 
ATOM      3  O   UNL     1       4.551   3.195  17.385  0.00  0.00    +0.000 OA
ATOM      4  C   UNL     1       3.804   4.061  18.126  0.00  0.00    +0.000 A 
ATOM      5  C   UNL     1       4.007   5.372  17.684  0.00  0.00    +0.000 A 
ATOM      6  C   UNL     1       3.264   6.383  18.331  0.00  0.00    +0.000 A 
ATOM      7 BR   UNL     1       3.290   8.193  17.749  0.00  0.00    +0.000 Br
ATOM      8  C   UNL     1       2.419   6.048  19.410  0.00  0.00    +0.000 A 
ATOM      9  C   UNL     1       2.236   4.735  19.850  0.00  0.00    +0.000 A 
ATOM     10  N   UNL     1       1.398   4.455  20.873  0.00  0.00    +0.000 NA
ATOM     11  C   UNL     1       1.226   3.169  21.243  0.00  0.00    +0.000 A 
ATOM     12  C   UNL     1       1.862   2.102  20.638  0.00  0.00    +0.000 A 
ATOM     13  C   UNL     1       2.737   2.370  19.590  0.00  0.00    +0.000 A 
ATOM     14  C   UNL     1       2.934   3.706  19.188  0.00  0.00    +0.000 A 
ENDROOT
BRANCH   2  15
ATOM     15  N   UNL     1       6.072   3.245  15.678  0.00  0.00    +0.000 N 
ATOM     16  H   UNL     1       6.635   3.747  14.998  0.00  0.00    +0.000 HD
ATOM     17  H   UNL     1       5.822   2.303  15.394  0.00  0.00    +0.000 HD
ENDBRANCH   2  15
BRANCH   1  18
ATOM     18  C   UNL     1       5.588   6.312  15.814  0.00  0.00    +0.000 C 
ATOM     19  O   UNL     1       4.986   7.016  15.015  0.00  0.00    +0.000 OA
BRANCH  18  21
ATOM     20  C   UNL     1       7.245   6.988  17.329  0.00  0.00    +0.000 C 
ATOM     21  O   UNL     1       6.930   6.425  16.057  0.00  0.00    +0.000 OA
ENDBRANCH  18  21
ENDBRANCH   1  18
BRANCH   8  22
ATOM     22  O   UNL     1       1.722   7.048  20.064  0.00  0.00    +0.000 OA
ATOM     23  H   UNL     1       2.355   7.744  20.311  0.00  0.00    +0.000 HD
ENDBRANCH   8  22
TORSDOF 4
ENDMDL
MODEL 2
REMARK VINA RESULT:      -6.6      2.480      5.269
REMARK  Name = 
REMARK  5 active torsions:
REMARK  status: ('A' for Active; 'I' for Inactive)
REMARK    1  A    between atoms: C_1  and  O_2
REMARK    2  A    between atoms: O_2  and  C_3
REMARK    3  A    between atoms: C_3  and  C_5
REMARK    4  A    between atoms: C_6  and  N_7
REMARK    5  A    between atoms: C_13  and  O_14
REMARK                            x       y       z     vdW  Elec       q    Type
REMARK                         _______ _______ _______ _____ _____    ______ ____
ROOT
ATOM      1  C   UNL     1       3.399   3.677  19.876  0.00  0.00    +0.000 A 
ATOM      2  C   UNL     1       2.547   3.980  20.919  0.00  0.00    +0.000 A 
ATOM      3  O   UNL     1       2.069   5.241  20.810  0.00  0.00    +0.000 OA
ATOM      4  C   UNL     1       2.612   5.787  19.686  0.00  0.00    +0.000 A 
ATOM      5  C   UNL     1       3.441   4.856  19.050  0.00  0.00    +0.000 A 
ATOM      6  C   UNL     1       4.044   5.265  17.842  0.00  0.00    +0.000 A 
ATOM      7 BR   UNL     1       5.063   4.075  16.762  0.00  0.00    +0.000 Br
ATOM      8  C   UNL     1       3.846   6.580  17.370  0.00  0.00    +0.000 A 
ATOM      9  C   UNL     1       3.028   7.504  18.023  0.00  0.00    +0.000 A 
ATOM     10  N   UNL     1       2.845   8.746  17.524  0.00  0.00    +0.000 NA
ATOM     11  C   UNL     1       2.018   9.595  18.169  0.00  0.00    +0.000 A 
ATOM     12  C   UNL     1       1.336   9.274  19.326  0.00  0.00    +0.000 A 
ATOM     13  C   UNL     1       1.518   8.004  19.863  0.00  0.00    +0.000 A 
ATOM     14  C   UNL     1       2.378   7.101  19.207  0.00  0.00    +0.000 A 
ENDROOT
BRANCH   2  15
ATOM     15  N   UNL     1       2.145   3.286  21.994  0.00  0.00    +0.000 N 
ATOM     16  H   UNL     1       2.802   3.104  22.747  0.00  0.00    +0.000 HD
ATOM     17  H   UNL     1       1.432   2.571  21.886  0.00  0.00    +0.000 HD
ENDBRANCH   2  15
BRANCH   1  18
ATOM     18  C   UNL     1       4.099   2.413  19.741  0.00  0.00    +0.000 C 
ATOM     19  O   UNL     1       4.944   2.009  20.527  0.00  0.00    +0.000 OA
BRANCH  18  21
ATOM     20  C   UNL     1       2.298   1.758  18.388  0.00  0.00    +0.000 C 
ATOM     21  O   UNL     1       3.703   1.713  18.633  0.00  0.00    +0.000 OA
ENDBRANCH  18  21
ENDBRANCH   1  18
BRANCH   8  22
ATOM     22  O   UNL     1       4.471   6.986  16.205  0.00  0.00    +0.000 OA
ATOM     23  H   UNL     1       5.426   7.042  16.379  0.00  0.00    +0.000 HD
ENDBRANCH   8  22
TORSDOF 4
ENDMDL
MODEL 3
REMARK VINA RESULT:      -6.5      2.867      5.075
REMARK  Name = 
REMARK  5 active torsions:
REMARK  status: ('A' for Active; 'I' for Inactive)
REMARK    1  A    between atoms: C_1  and  O_2
REMARK    2  A    between atoms: O_2  and  C_3
REMARK    3  A    between atoms: C_3  and  C_5
REMARK    4  A    between atoms: C_6  and  N_7
REMARK    5  A    between atoms: C_13  and  O_14
REMARK                            x       y       z     vdW  Elec       q    Type
REMARK                         _______ _______ _______ _____ _____    ______ ____
ROOT
ATOM      1  C   UNL     1       3.179   3.956  19.959  0.00  0.00    +0.000 A 
ATOM      2  C   UNL     1       2.426   3.910  21.115  0.00  0.00    +0.000 A 
ATOM      3  O   UNL     1       1.787   5.083  21.330  0.00  0.00    +0.000 OA
ATOM      4  C   UNL     1       2.123   5.924  20.310  0.00  0.00    +0.000 A 
ATOM      5  C   UNL     1       2.978   5.274  19.413  0.00  0.00    +0.000 A 
ATOM      6  C   UNL     1       3.380   6.007  18.276  0.00  0.00    +0.000 A 
ATOM      7 BR   UNL     1       4.402   5.227  16.874  0.00  0.00    +0.000 Br
ATOM      8  C   UNL     1       2.969   7.348  18.126  0.00  0.00    +0.000 A 
ATOM      9  C   UNL     1       2.126   7.988  19.037  0.00  0.00    +0.000 A 
ATOM     10  N   UNL     1       1.736   9.268  18.843  0.00  0.00    +0.000 NA
ATOM     11  C   UNL     1       0.893   9.836  19.731  0.00  0.00    +0.000 A 
ATOM     12  C   UNL     1       0.397   9.187  20.845  0.00  0.00    +0.000 A 
ATOM     13  C   UNL     1       0.795   7.873  21.069  0.00  0.00    +0.000 A 
ATOM     14  C   UNL     1       1.675   7.260  20.156  0.00  0.00    +0.000 A 
ENDROOT
BRANCH   2  15
ATOM     15  N   UNL     1       2.241   2.958  22.041  0.00  0.00    +0.000 N 
ATOM     16  H   UNL     1       2.262   1.981  21.766  0.00  0.00    +0.000 HD
ATOM     17  H   UNL     1       1.643   3.151  22.839  0.00  0.00    +0.000 HD
ENDBRANCH   2  15
BRANCH   1  18
ATOM     18  C   UNL     1       4.007   2.863  19.486  0.00  0.00    +0.000 C 
ATOM     19  O   UNL     1       5.230   2.871  19.506  0.00  0.00    +0.000 OA
BRANCH  18  21
ATOM     20  C   UNL     1       2.467   2.122  17.880  0.00  0.00    +0.000 C 
ATOM     21  O   UNL     1       3.267   1.810  19.020  0.00  0.00    +0.000 OA
ENDBRANCH  18  21
ENDBRANCH   1  18
BRANCH   8  22
ATOM     22  O   UNL     1       3.397   8.072  17.029  0.00  0.00    +0.000 OA
ATOM     23  H   UNL     1       2.644   8.174  16.422  0.00  0.00    +0.000 HD
ENDBRANCH   8  22
TORSDOF 4
ENDMDL
MODEL 4
REMARK VINA RESULT:      -6.5      1.319      1.629
REMARK  Name = 
REMARK  5 active torsions:
REMARK  status: ('A' for Active; 'I' for Inactive)
REMARK    1  A    between atoms: C_1  and  O_2
REMARK    2  A    between atoms: O_2  and  C_3
REMARK    3  A    between atoms: C_3  and  C_5
REMARK    4  A    between atoms: C_6  and  N_7
REMARK    5  A    between atoms: C_13  and  O_14
REMARK                            x       y       z     vdW  Elec       q    Type
REMARK                         _______ _______ _______ _____ _____    ______ ____
ROOT
ATOM      1  C   UNL     1       5.802   5.784  17.790  0.00  0.00    +0.000 A 
ATOM      2  C   UNL     1       6.522   4.635  18.053  0.00  0.00    +0.000 A 
ATOM      3  O   UNL     1       5.845   3.815  18.890  0.00  0.00    +0.000 OA
ATOM      4  C   UNL     1       4.665   4.426  19.195  0.00  0.00    +0.000 A 
ATOM      5  C   UNL     1       4.571   5.651  18.527  0.00  0.00    +0.000 A 
ATOM      6  C   UNL     1       3.379   6.384  18.710  0.00  0.00    +0.000 A 
ATOM      7 BR   UNL     1       3.014   7.985  17.751  0.00  0.00    +0.000 Br
ATOM      8  C   UNL     1       2.385   5.896  19.584  0.00  0.00    +0.000 A 
ATOM      9  C   UNL     1       2.498   4.677  20.255  0.00  0.00    +0.000 A 
ATOM     10  N   UNL     1       1.511   4.234  21.066  0.00  0.00    +0.000 NA
ATOM     11  C   UNL     1       1.648   3.034  21.667  0.00  0.00    +0.000 A 
ATOM     12  C   UNL     1       2.749   2.215  21.509  0.00  0.00    +0.000 A 
ATOM     13  C   UNL     1       3.781   2.656  20.688  0.00  0.00    +0.000 A 
ATOM     14  C   UNL     1       3.661   3.907  20.051  0.00  0.00    +0.000 A 
ENDROOT
BRANCH   2  15
ATOM     15  N   UNL     1       7.735   4.215  17.666  0.00  0.00    +0.000 N 
ATOM     16  H   UNL     1       8.134   3.381  18.086  0.00  0.00    +0.000 HD
ATOM     17  H   UNL     1       8.424   4.897  17.365  0.00  0.00    +0.000 HD
ENDBRANCH   2  15
BRANCH   1  18
ATOM     18  C   UNL     1       6.283   6.870  16.958  0.00  0.00    +0.000 C 
ATOM     19  O   UNL     1       7.189   7.628  17.276  0.00  0.00    +0.000 OA
BRANCH  18  21
ATOM     20  C   UNL     1       5.518   5.711  15.068  0.00  0.00    +0.000 C 
ATOM     21  O   UNL     1       5.615   6.951  15.766  0.00  0.00    +0.000 OA
ENDBRANCH  18  21
ENDBRANCH   1  18
BRANCH   8  22
ATOM     22  O   UNL     1       1.235   6.637  19.788  0.00  0.00    +0.000 OA
ATOM     23  H   UNL     1       0.605   6.416  19.081  0.00  0.00    +0.000 HD
ENDBRANCH   8  22
TORSDOF 4
ENDMDL
MODEL 5
REMARK VINA RESULT:      -6.4      2.598      5.146
REMARK  Name = 
REMARK  5 active torsions:
REMARK  status: ('A' for Active; 'I' for Inactive)
REMARK    1  A    between atoms: C_1  and  O_2
REMARK    2  A    between atoms: O_2  and  C_3
REMARK    3  A    between atoms: C_3  and  C_5
REMARK    4  A    between atoms: C_6  and  N_7
REMARK    5  A    between atoms: C_13  and  O_14
REMARK                            x       y       z     vdW  Elec       q    Type
REMARK                         _______ _______ _______ _____ _____    ______ ____
ROOT
ATOM      1  C   UNL     1       3.317   3.483  19.891  0.00  0.00    +0.000 A 
ATOM      2  C   UNL     1       2.508   3.676  20.993  0.00  0.00    +0.000 A 
ATOM      3  O   UNL     1       2.006   4.932  21.018  0.00  0.00    +0.000 OA
ATOM      4  C   UNL     1       2.490   5.587  19.925  0.00  0.00    +0.000 A 
ATOM      5  C   UNL     1       3.303   4.732  19.173  0.00  0.00    +0.000 A 
ATOM      6  C   UNL     1       3.845   5.258  17.981  0.00  0.00    +0.000 A 
ATOM      7 BR   UNL     1       4.832   4.189  16.756  0.00  0.00    +0.000 Br
ATOM      8  C   UNL     1       3.606   6.605  17.638  0.00  0.00    +0.000 A 
ATOM      9  C   UNL     1       2.803   7.451  18.406  0.00  0.00    +0.000 A 
ATOM     10  N   UNL     1       2.580   8.730  18.028  0.00  0.00    +0.000 NA
ATOM     11  C   UNL     1       1.770   9.502  18.782  0.00  0.00    +0.000 A 
ATOM     12  C   UNL     1       1.146   9.066  19.935  0.00  0.00    +0.000 A 
ATOM     13  C   UNL     1       1.371   7.757  20.347  0.00  0.00    +0.000 A 
ATOM     14  C   UNL     1       2.214   6.933  19.576  0.00  0.00    +0.000 A 
ENDROOT
BRANCH   2  15
ATOM     15  N   UNL     1       2.166   2.882  22.018  0.00  0.00    +0.000 N 
ATOM     16  H   UNL     1       1.685   2.006  21.834  0.00  0.00    +0.000 HD
ATOM     17  H   UNL     1       1.935   3.299  22.915  0.00  0.00    +0.000 HD
ENDBRANCH   2  15
BRANCH   1  18
ATOM     18  C   UNL     1       4.029   2.251  19.613  0.00  0.00    +0.000 C 
ATOM     19  O   UNL     1       3.647   1.402  18.819  0.00  0.00    +0.000 OA
BRANCH  18  21
ATOM     20  C   UNL     1       5.262   0.971  21.144  0.00  0.00    +0.000 C 
ATOM     21  O   UNL     1       5.188   2.143  20.333  0.00  0.00    +0.000 OA
ENDBRANCH  18  21
ENDBRANCH   1  18
BRANCH   8  22
ATOM     22  O   UNL     1       4.171   7.125  16.488  0.00  0.00    +0.000 OA
ATOM     23  H   UNL     1       5.131   6.978  16.530  0.00  0.00    +0.000 HD
ENDBRANCH   8  22
TORSDOF 4
ENDMDL
MODEL 6
REMARK VINA RESULT:      -6.3      2.756      5.757
REMARK  Name = 
REMARK  5 active torsions:
REMARK  status: ('A' for Active; 'I' for Inactive)
REMARK    1  A    between atoms: C_1  and  O_2
REMARK    2  A    between atoms: O_2  and  C_3
REMARK    3  A    between atoms: C_3  and  C_5
REMARK    4  A    between atoms: C_6  and  N_7
REMARK    5  A    between atoms: C_13  and  O_14
REMARK                            x       y       z     vdW  Elec       q    Type
REMARK                         _______ _______ _______ _____ _____    ______ ____
ROOT
ATOM      1  C   UNL     1       2.004   8.208  19.105  0.00  0.00    +0.000 A 
ATOM      2  C   UNL     1       2.345   9.063  18.076  0.00  0.00    +0.000 A 
ATOM      3  O   UNL     1       3.192   8.467  17.205  0.00  0.00    +0.000 OA
ATOM      4  C   UNL     1       3.425   7.204  17.662  0.00  0.00    +0.000 A 
ATOM      5  C   UNL     1       2.701   6.976  18.837  0.00  0.00    +0.000 A 
ATOM      6  C   UNL     1       2.807   5.690  19.408  0.00  0.00    +0.000 A 
ATOM      7 BR   UNL     1       1.764   5.154  20.906  0.00  0.00    +0.000 Br
ATOM      8  C   UNL     1       3.666   4.734  18.825  0.00  0.00    +0.000 A 
ATOM      9  C   UNL     1       4.394   4.980  17.659  0.00  0.00    +0.000 A 
ATOM     10  N   UNL     1       5.187   4.028  17.120  0.00  0.00    +0.000 NA
ATOM     11  C   UNL     1       5.846   4.298  15.974  0.00  0.00    +0.000 A 
ATOM     12  C   UNL     1       5.765   5.504  15.306  0.00  0.00    +0.000 A 
ATOM     13  C   UNL     1       4.963   6.502  15.850  0.00  0.00    +0.000 A 
ATOM     14  C   UNL     1       4.266   6.243  17.047  0.00  0.00    +0.000 A 
ENDROOT
BRANCH   2  15
ATOM     15  N   UNL     1       2.021  10.336  17.808  0.00  0.00    +0.000 N 
ATOM     16  H   UNL     1       2.239  10.727  16.897  0.00  0.00    +0.000 HD
ATOM     17  H   UNL     1       2.020  11.017  18.561  0.00  0.00    +0.000 HD
ENDBRANCH   2  15
BRANCH   1  18
ATOM     18  C   UNL     1       1.143   8.574  20.213  0.00  0.00    +0.000 C 
ATOM     19  O   UNL     1       1.343   8.248  21.375  0.00  0.00    +0.000 OA
BRANCH  18  21
ATOM     20  C   UNL     1      -0.241  10.401  20.712  0.00  0.00    +0.000 C 
ATOM     21  O   UNL     1       0.077   9.337  19.816  0.00  0.00    +0.000 OA
ENDBRANCH  18  21
ENDBRANCH   1  18
BRANCH   8  22
ATOM     22  O   UNL     1       3.794   3.488  19.411  0.00  0.00    +0.000 OA
ATOM     23  H   UNL     1       4.420   2.967  18.878  0.00  0.00    +0.000 HD
ENDBRANCH   8  22
TORSDOF 4
ENDMDL
MODEL 7
REMARK VINA RESULT:      -6.3      2.369      3.623
REMARK  Name = 
REMARK  5 active torsions:
REMARK  status: ('A' for Active; 'I' for Inactive)
REMARK    1  A    between atoms: C_1  and  O_2
REMARK    2  A    between atoms: O_2  and  C_3
REMARK    3  A    between atoms: C_3  and  C_5
REMARK    4  A    between atoms: C_6  and  N_7
REMARK    5  A    between atoms: C_13  and  O_14
REMARK                            x       y       z     vdW  Elec       q    Type
REMARK                         _______ _______ _______ _____ _____    ______ ____
ROOT
ATOM      1  C   UNL     1       4.802   5.278  17.060  0.00  0.00    +0.000 A 
ATOM      2  C   UNL     1       4.730   6.485  16.393  0.00  0.00    +0.000 A 
ATOM      3  O   UNL     1       3.908   7.349  17.032  0.00  0.00    +0.000 OA
ATOM      4  C   UNL     1       3.420   6.710  18.133  0.00  0.00    +0.000 A 
ATOM      5  C   UNL     1       3.952   5.419  18.215  0.00  0.00    +0.000 A 
ATOM      6  C   UNL     1       3.571   4.646  19.333  0.00  0.00    +0.000 A 
ATOM      7 BR   UNL     1       4.326   2.938  19.691  0.00  0.00    +0.000 Br
ATOM      8  C   UNL     1       2.645   5.167  20.261  0.00  0.00    +0.000 A 
ATOM      9  C   UNL     1       2.111   6.453  20.158  0.00  0.00    +0.000 A 
ATOM     10  N   UNL     1       1.245   6.923  21.084  0.00  0.00    +0.000 NA
ATOM     11  C   UNL     1       0.780   8.184  20.964  0.00  0.00    +0.000 A 
ATOM     12  C   UNL     1       1.135   9.041  19.940  0.00  0.00    +0.000 A 
ATOM     13  C   UNL     1       2.017   8.574  18.971  0.00  0.00    +0.000 A 
ATOM     14  C   UNL     1       2.514   7.259  19.075  0.00  0.00    +0.000 A 
ENDROOT
BRANCH   2  15
ATOM     15  N   UNL     1       5.286   6.928  15.256  0.00  0.00    +0.000 N 
ATOM     16  H   UNL     1       5.352   7.928  15.088  0.00  0.00    +0.000 HD
ATOM     17  H   UNL     1       5.202   6.371  14.411  0.00  0.00    +0.000 HD
ENDBRANCH   2  15
BRANCH   1  18
ATOM     18  C   UNL     1       5.572   4.140  16.598  0.00  0.00    +0.000 C 
ATOM     19  O   UNL     1       5.089   3.050  16.326  0.00  0.00    +0.000 OA
BRANCH  18  21
ATOM     20  C   UNL     1       7.561   4.630  17.742  0.00  0.00    +0.000 C 
ATOM     21  O   UNL     1       6.908   4.422  16.491  0.00  0.00    +0.000 OA
ENDBRANCH  18  21
ENDBRANCH   1  18
BRANCH   8  22
ATOM     22  O   UNL     1       2.247   4.390  21.334  0.00  0.00    +0.000 OA
ATOM     23  H   UNL     1       3.038   3.966  21.708  0.00  0.00    +0.000 HD
ENDBRANCH   8  22
TORSDOF 4
ENDMDL
MODEL 8
REMARK VINA RESULT:      -6.3      2.001      5.286
REMARK  Name = 
REMARK  5 active torsions:
REMARK  status: ('A' for Active; 'I' for Inactive)
REMARK    1  A    between atoms: C_1  and  O_2
REMARK    2  A    between atoms: O_2  and  C_3
REMARK    3  A    between atoms: C_3  and  C_5
REMARK    4  A    between atoms: C_6  and  N_7
REMARK    5  A    between atoms: C_13  and  O_14
REMARK                            x       y       z     vdW  Elec       q    Type
REMARK                         _______ _______ _______ _____ _____    ______ ____
ROOT
ATOM      1  C   UNL     1       2.512   3.552  18.998  0.00  0.00    +0.000 A 
ATOM      2  C   UNL     1       2.946   2.320  18.552  0.00  0.00    +0.000 A 
ATOM      3  O   UNL     1       3.886   2.452  17.587  0.00  0.00    +0.000 OA
ATOM      4  C   UNL     1       4.076   3.786  17.382  0.00  0.00    +0.000 A 
ATOM      5  C   UNL     1       3.258   4.526  18.243  0.00  0.00    +0.000 A 
ATOM      6  C   UNL     1       3.376   5.931  18.178  0.00  0.00    +0.000 A 
ATOM      7 BR   UNL     1       2.467   7.083  19.388  0.00  0.00    +0.000 Br
ATOM      8  C   UNL     1       4.240   6.518  17.229  0.00  0.00    +0.000 A 
ATOM      9  C   UNL     1       5.040   5.766  16.366  0.00  0.00    +0.000 A 
ATOM     10  N   UNL     1       5.873   6.369  15.489  0.00  0.00    +0.000 NA
ATOM     11  C   UNL     1       6.653   5.603  14.697  0.00  0.00    +0.000 A 
ATOM     12  C   UNL     1       6.655   4.222  14.723  0.00  0.00    +0.000 A 
ATOM     13  C   UNL     1       5.798   3.582  15.612  0.00  0.00    +0.000 A 
ATOM     14  C   UNL     1       4.972   4.361  16.447  0.00  0.00    +0.000 A 
ENDROOT
BRANCH   2  15
ATOM     15  N   UNL     1       2.599   1.065  18.871  0.00  0.00    +0.000 N 
ATOM     16  H   UNL     1       2.929   0.660  19.742  0.00  0.00    +0.000 HD
ATOM     17  H   UNL     1       2.451   0.386  18.130  0.00  0.00    +0.000 HD
ENDBRANCH   2  15
BRANCH   1  18
ATOM     18  C   UNL     1       1.481   3.734  20.001  0.00  0.00    +0.000 C 
ATOM     19  O   UNL     1       0.282   3.643  19.777  0.00  0.00    +0.000 OA
BRANCH  18  21
ATOM     20  C   UNL     1       2.178   2.867  22.066  0.00  0.00    +0.000 C 
ATOM     21  O   UNL     1       1.998   4.014  21.238  0.00  0.00    +0.000 OA
ENDBRANCH  18  21
ENDBRANCH   1  18
BRANCH   8  22
ATOM     22  O   UNL     1       4.322   7.896  17.145  0.00  0.00    +0.000 OA
ATOM     23  H   UNL     1       5.183   8.123  16.754  0.00  0.00    +0.000 HD
ENDBRANCH   8  22
TORSDOF 4
ENDMDL
MODEL 9
REMARK VINA RESULT:      -6.2      2.596      5.677
REMARK  Name = 
REMARK  5 active torsions:
REMARK  status: ('A' for Active; 'I' for Inactive)
REMARK    1  A    between atoms: C_1  and  O_2
REMARK    2  A    between atoms: O_2  and  C_3
REMARK    3  A    between atoms: C_3  and  C_5
REMARK    4  A    between atoms: C_6  and  N_7
REMARK    5  A    between atoms: C_13  and  O_14
REMARK                            x       y       z     vdW  Elec       q    Type
REMARK                         _______ _______ _______ _____ _____    ______ ____
ROOT
ATOM      1  C   UNL     1       2.377   7.134  19.277  0.00  0.00    +0.000 A 
ATOM      2  C   UNL     1       2.508   8.117  18.317  0.00  0.00    +0.000 A 
ATOM      3  O   UNL     1       3.330   7.720  17.318  0.00  0.00    +0.000 OA
ATOM      4  C   UNL     1       3.757   6.460  17.618  0.00  0.00    +0.000 A 
ATOM      5  C   UNL     1       3.186   6.032  18.821  0.00  0.00    +0.000 A 
ATOM      6  C   UNL     1       3.502   4.723  19.244  0.00  0.00    +0.000 A 
ATOM      7 BR   UNL     1       2.687   3.921  20.763  0.00  0.00    +0.000 Br
ATOM      8  C   UNL     1       4.407   3.945  18.491  0.00  0.00    +0.000 A 
ATOM      9  C   UNL     1       4.980   4.390  17.298  0.00  0.00    +0.000 A 
ATOM     10  N   UNL     1       5.823   3.602  16.595  0.00  0.00    +0.000 NA
ATOM     11  C   UNL     1       6.327   4.061  15.430  0.00  0.00    +0.000 A 
ATOM     12  C   UNL     1       6.036   5.303  14.901  0.00  0.00    +0.000 A 
ATOM     13  C   UNL     1       5.179   6.134  15.615  0.00  0.00    +0.000 A 
ATOM     14  C   UNL     1       4.641   5.677  16.835  0.00  0.00    +0.000 A 
ENDROOT
BRANCH   2  15
ATOM     15  N   UNL     1       2.009   9.357  18.214  0.00  0.00    +0.000 N 
ATOM     16  H   UNL     1       1.122   9.502  17.740  0.00  0.00    +0.000 HD
ATOM     17  H   UNL     1       2.646  10.146  18.150  0.00  0.00    +0.000 HD
ENDBRANCH   2  15
BRANCH   1  18
ATOM     18  C   UNL     1       1.593   7.282  20.489  0.00  0.00    +0.000 C 
ATOM     19  O   UNL     1       0.916   6.390  20.981  0.00  0.00    +0.000 OA
BRANCH  18  21
ATOM     20  C   UNL     1       0.490   9.022  21.609  0.00  0.00    +0.000 C 
ATOM     21  O   UNL     1       1.700   8.534  21.031  0.00  0.00    +0.000 OA
ENDBRANCH  18  21
ENDBRANCH   1  18
BRANCH   8  22
ATOM     22  O   UNL     1       4.742   2.677  18.930  0.00  0.00    +0.000 OA
ATOM     23  H   UNL     1       5.275   2.249  18.238  0.00  0.00    +0.000 HD
ENDBRANCH   8  22
TORSDOF 4
ENDMDL
