MODEL 1
REMARK VINA RESULT:      -6.0      0.000      0.000
REMARK  Name = 
REMARK  12 active torsions:
REMARK  status: ('A' for Active; 'I' for Inactive)
REMARK    1  A    between atoms: C_1  and  C_2
REMARK    2  A    between atoms: C_2  and  O_3
REMARK    3  A    between atoms: C_2  and  C_4
REMARK    4  A    between atoms: C_4  and  C_5
REMARK    5  A    between atoms: C_5  and  C_6
REMARK    6  A    between atoms: C_6  and  C_7
REMARK    7  A    between atoms: C_8  and  C_9
REMARK    8  A    between atoms: C_10  and  C_11
REMARK    9  A    between atoms: C_11  and  O_12
REMARK   10  A    between atoms: C_11  and  C_13
REMARK   11  A    between atoms: C_13  and  C_14
REMARK   12  A    between atoms: C_14  and  O_16
REMARK                            x       y       z     vdW  Elec       q    Type
REMARK                         _______ _______ _______ _____ _____    ______ ____
ROOT
ATOM      1  C   UNL     1       4.783   5.521  17.406  0.00  0.00    +0.000 C 
ATOM      2  C   UNL     1       5.623   4.531  17.055  0.00  0.00    +0.000 C 
ENDROOT
BRANCH   1   4
ATOM      3  C   UNL     1       2.777   4.143  17.475  0.00  0.00    +0.000 C 
ATOM      4  C   UNL     1       3.395   5.309  17.719  0.00  0.00    +0.000 C 
BRANCH   3   5
ATOM      5  C   UNL     1       1.331   3.912  17.787  0.00  0.00    +0.000 C 
BRANCH   5   6
ATOM      6  C   UNL     1       1.157   2.997  18.998  0.00  0.00    +0.000 C 
BRANCH   6   7
ATOM      7  C   UNL     1       0.782   3.803  20.245  0.00  0.00    +0.000 C 
BRANCH   7   9
ATOM      8  C   UNL     1       2.967   2.780  20.980  0.00  0.00    +0.000 C 
ATOM      9  C   UNL     1       1.929   3.858  21.259  0.00  0.00    +0.000 C 
BRANCH   9  10
ATOM     10  O   UNL     1       2.567   5.130  21.210  0.00  0.00    +0.000 OA
ATOM     11  H   UNL     1       2.243   5.598  20.422  0.00  0.00    +0.000 HD
ENDBRANCH   9  10
ENDBRANCH   7   9
ENDBRANCH   6   7
ENDBRANCH   5   6
ENDBRANCH   3   5
ENDBRANCH   1   4
BRANCH   2  12
ATOM     12  C   UNL     1       7.084   4.765  16.783  0.00  0.00    +0.000 C 
BRANCH  12  13
ATOM     13  O   UNL     1       7.274   6.058  16.208  0.00  0.00    +0.000 OA
ATOM     14  H   UNL     1       6.701   6.093  15.412  0.00  0.00    +0.000 HD
ENDBRANCH  12  13
BRANCH  12  15
ATOM     15  C   UNL     1       7.969   4.617  18.019  0.00  0.00    +0.000 C 
BRANCH  15  16
ATOM     16  C   UNL     1       7.871   5.820  18.918  0.00  0.00    +0.000 C 
ATOM     17  O   UNL     1       8.051   6.976  18.564  0.00  0.00    +0.000 OA
BRANCH  16  18
ATOM     18  O   UNL     1       7.574   5.502  20.200  0.00  0.00    +0.000 OA
ATOM     19  H   UNL     1       7.585   6.257  20.818  0.00  0.00    +0.000 HD
ENDBRANCH  16  18
ENDBRANCH  15  16
ENDBRANCH  12  15
ENDBRANCH   2  12
TORSDOF 11
ENDMDL
MODEL 2
REMARK VINA RESULT:      -5.9      1.575      6.005
REMARK  Name = 
REMARK  12 active torsions:
REMARK  status: ('A' for Active; 'I' for Inactive)
REMARK    1  A    between atoms: C_1  and  C_2
REMARK    2  A    between atoms: C_2  and  O_3
REMARK    3  A    between atoms: C_2  and  C_4
REMARK    4  A    between atoms: C_4  and  C_5
REMARK    5  A    between atoms: C_5  and  C_6
REMARK    6  A    between atoms: C_6  and  C_7
REMARK    7  A    between atoms: C_8  and  C_9
REMARK    8  A    between atoms: C_10  and  C_11
REMARK    9  A    between atoms: C_11  and  O_12
REMARK   10  A    between atoms: C_11  and  C_13
REMARK   11  A    between atoms: C_13  and  C_14
REMARK   12  A    between atoms: C_14  and  O_16
REMARK                            x       y       z     vdW  Elec       q    Type
REMARK                         _______ _______ _______ _____ _____    ______ ____
ROOT
ATOM      1  C   UNL     1       3.020   5.267  18.369  0.00  0.00    +0.000 C 
ATOM      2  C   UNL     1       3.293   5.271  19.686  0.00  0.00    +0.000 C 
ENDROOT
BRANCH   1   4
ATOM      3  C   UNL     1       4.678   4.112  17.012  0.00  0.00    +0.000 C 
ATOM      4  C   UNL     1       4.034   5.240  17.350  0.00  0.00    +0.000 C 
BRANCH   3   5
ATOM      5  C   UNL     1       5.743   4.072  15.960  0.00  0.00    +0.000 C 
BRANCH   5   6
ATOM      6  C   UNL     1       6.924   4.973  16.323  0.00  0.00    +0.000 C 
BRANCH   6   7
ATOM      7  C   UNL     1       7.617   4.482  17.597  0.00  0.00    +0.000 C 
BRANCH   7   9
ATOM      8  C   UNL     1       7.534   6.968  18.019  0.00  0.00    +0.000 C 
ATOM      9  C   UNL     1       7.754   5.596  18.640  0.00  0.00    +0.000 C 
BRANCH   9  10
ATOM     10  O   UNL     1       6.805   5.409  19.685  0.00  0.00    +0.000 OA
ATOM     11  H   UNL     1       6.672   6.265  20.127  0.00  0.00    +0.000 HD
ENDBRANCH   9  10
ENDBRANCH   7   9
ENDBRANCH   6   7
ENDBRANCH   5   6
ENDBRANCH   3   5
ENDBRANCH   1   4
BRANCH   2  12
ATOM     12  C   UNL     1       2.217   5.246  20.738  0.00  0.00    +0.000 C 
BRANCH  12  13
ATOM     13  O   UNL     1       1.681   6.556  20.922  0.00  0.00    +0.000 OA
ATOM     14  H   UNL     1       2.418   7.182  20.755  0.00  0.00    +0.000 HD
ENDBRANCH  12  13
BRANCH  12  15
ATOM     15  C   UNL     1       1.087   4.265  20.433  0.00  0.00    +0.000 C 
BRANCH  15  16
ATOM     16  C   UNL     1       1.423   2.872  20.893  0.00  0.00    +0.000 C 
ATOM     17  O   UNL     1       1.450   2.506  22.059  0.00  0.00    +0.000 OA
BRANCH  16  18
ATOM     18  O   UNL     1       1.721   2.033  19.872  0.00  0.00    +0.000 OA
ATOM     19  H   UNL     1       2.258   1.260  20.128  0.00  0.00    +0.000 HD
ENDBRANCH  16  18
ENDBRANCH  15  16
ENDBRANCH  12  15
ENDBRANCH   2  12
TORSDOF 11
ENDMDL
MODEL 3
REMARK VINA RESULT:      -5.8      1.729      5.950
REMARK  Name = 
REMARK  12 active torsions:
REMARK  status: ('A' for Active; 'I' for Inactive)
REMARK    1  A    between atoms: C_1  and  C_2
REMARK    2  A    between atoms: C_2  and  O_3
REMARK    3  A    between atoms: C_2  and  C_4
REMARK    4  A    between atoms: C_4  and  C_5
REMARK    5  A    between atoms: C_5  and  C_6
REMARK    6  A    between atoms: C_6  and  C_7
REMARK    7  A    between atoms: C_8  and  C_9
REMARK    8  A    between atoms: C_10  and  C_11
REMARK    9  A    between atoms: C_11  and  O_12
REMARK   10  A    between atoms: C_11  and  C_13
REMARK   11  A    between atoms: C_13  and  C_14
REMARK   12  A    between atoms: C_14  and  O_16
REMARK                            x       y       z     vdW  Elec       q    Type
REMARK                         _______ _______ _______ _____ _____    ______ ____
ROOT
ATOM      1  C   UNL     1       3.274   3.240  17.653  0.00  0.00    +0.000 C 
ATOM      2  C   UNL     1       1.971   3.509  17.848  0.00  0.00    +0.000 C 
ENDROOT
BRANCH   1   4
ATOM      3  C   UNL     1       4.316   5.319  16.933  0.00  0.00    +0.000 C 
ATOM      4  C   UNL     1       4.118   4.001  16.771  0.00  0.00    +0.000 C 
BRANCH   3   5
ATOM      5  C   UNL     1       5.183   6.125  16.015  0.00  0.00    +0.000 C 
BRANCH   5   6
ATOM      6  C   UNL     1       6.657   5.751  16.164  0.00  0.00    +0.000 C 
BRANCH   6   7
ATOM      7  C   UNL     1       7.291   6.483  17.351  0.00  0.00    +0.000 C 
BRANCH   7   9
ATOM      8  C   UNL     1       6.675   5.426  19.557  0.00  0.00    +0.000 C 
ATOM      9  C   UNL     1       7.724   5.515  18.457  0.00  0.00    +0.000 C 
BRANCH   9  10
ATOM     10  O   UNL     1       7.931   4.214  17.917  0.00  0.00    +0.000 OA
ATOM     11  H   UNL     1       7.196   4.019  17.312  0.00  0.00    +0.000 HD
ENDBRANCH   9  10
ENDBRANCH   7   9
ENDBRANCH   6   7
ENDBRANCH   5   6
ENDBRANCH   3   5
ENDBRANCH   1   4
BRANCH   2  12
ATOM     12  C   UNL     1       1.118   2.734  18.814  0.00  0.00    +0.000 C 
BRANCH  12  13
ATOM     13  O   UNL     1       1.808   1.561  19.246  0.00  0.00    +0.000 OA
ATOM     14  H   UNL     1       1.132   0.853  19.315  0.00  0.00    +0.000 HD
ENDBRANCH  12  13
BRANCH  12  15
ATOM     15  C   UNL     1       0.677   3.547  20.030  0.00  0.00    +0.000 C 
BRANCH  15  16
ATOM     16  C   UNL     1       1.705   3.502  21.129  0.00  0.00    +0.000 C 
ATOM     17  O   UNL     1       2.648   4.272  21.240  0.00  0.00    +0.000 OA
BRANCH  16  18
ATOM     18  O   UNL     1       1.501   2.489  22.005  0.00  0.00    +0.000 OA
ATOM     19  H   UNL     1       1.516   1.599  21.605  0.00  0.00    +0.000 HD
ENDBRANCH  16  18
ENDBRANCH  15  16
ENDBRANCH  12  15
ENDBRANCH   2  12
TORSDOF 11
ENDMDL
MODEL 4
REMARK VINA RESULT:      -5.7      0.829      1.139
REMARK  Name = 
REMARK  12 active torsions:
REMARK  status: ('A' for Active; 'I' for Inactive)
REMARK    1  A    between atoms: C_1  and  C_2
REMARK    2  A    between atoms: C_2  and  O_3
REMARK    3  A    between atoms: C_2  and  C_4
REMARK    4  A    between atoms: C_4  and  C_5
REMARK    5  A    between atoms: C_5  and  C_6
REMARK    6  A    between atoms: C_6  and  C_7
REMARK    7  A    between atoms: C_8  and  C_9
REMARK    8  A    between atoms: C_10  and  C_11
REMARK    9  A    between atoms: C_11  and  O_12
REMARK   10  A    between atoms: C_11  and  C_13
REMARK   11  A    between atoms: C_13  and  C_14
REMARK   12  A    between atoms: C_14  and  O_16
REMARK                            x       y       z     vdW  Elec       q    Type
REMARK                         _______ _______ _______ _____ _____    ______ ____
ROOT
ATOM      1  C   UNL     1       4.683   4.611  17.157  0.00  0.00    +0.000 C 
ATOM      2  C   UNL     1       5.794   4.239  16.496  0.00  0.00    +0.000 C 
ENDROOT
BRANCH   1   4
ATOM      3  C   UNL     1       3.091   3.034  18.108  0.00  0.00    +0.000 C 
ATOM      4  C   UNL     1       3.453   3.867  17.120  0.00  0.00    +0.000 C 
BRANCH   3   5
ATOM      5  C   UNL     1       1.819   2.245  18.077  0.00  0.00    +0.000 C 
BRANCH   5   6
ATOM      6  C   UNL     1       1.060   2.351  19.400  0.00  0.00    +0.000 C 
BRANCH   6   7
ATOM      7  C   UNL     1       0.954   3.809  19.856  0.00  0.00    +0.000 C 
BRANCH   7   9
ATOM      8  C   UNL     1       2.322   2.770  21.703  0.00  0.00    +0.000 C 
ATOM      9  C   UNL     1       1.662   4.044  21.194  0.00  0.00    +0.000 C 
BRANCH   9  10
ATOM     10  O   UNL     1       2.660   5.050  21.052  0.00  0.00    +0.000 OA
ATOM     11  H   UNL     1       3.353   4.881  21.712  0.00  0.00    +0.000 HD
ENDBRANCH   9  10
ENDBRANCH   7   9
ENDBRANCH   6   7
ENDBRANCH   5   6
ENDBRANCH   3   5
ENDBRANCH   1   4
BRANCH   2  12
ATOM     12  C   UNL     1       7.087   5.002  16.589  0.00  0.00    +0.000 C 
BRANCH  12  13
ATOM     13  O   UNL     1       6.832   6.406  16.541  0.00  0.00    +0.000 OA
ATOM     14  H   UNL     1       7.708   6.847  16.566  0.00  0.00    +0.000 HD
ENDBRANCH  12  13
BRANCH  12  15
ATOM     15  C   UNL     1       7.905   4.671  17.836  0.00  0.00    +0.000 C 
BRANCH  15  16
ATOM     16  C   UNL     1       7.600   5.617  18.966  0.00  0.00    +0.000 C 
ATOM     17  O   UNL     1       6.803   5.399  19.868  0.00  0.00    +0.000 OA
BRANCH  16  18
ATOM     18  O   UNL     1       8.292   6.779  18.888  0.00  0.00    +0.000 OA
ATOM     19  H   UNL     1       9.231   6.674  18.644  0.00  0.00    +0.000 HD
ENDBRANCH  16  18
ENDBRANCH  15  16
ENDBRANCH  12  15
ENDBRANCH   2  12
TORSDOF 11
ENDMDL
MODEL 5
REMARK VINA RESULT:      -5.7      1.256      1.931
REMARK  Name = 
REMARK  12 active torsions:
REMARK  status: ('A' for Active; 'I' for Inactive)
REMARK    1  A    between atoms: C_1  and  C_2
REMARK    2  A    between atoms: C_2  and  O_3
REMARK    3  A    between atoms: C_2  and  C_4
REMARK    4  A    between atoms: C_4  and  C_5
REMARK    5  A    between atoms: C_5  and  C_6
REMARK    6  A    between atoms: C_6  and  C_7
REMARK    7  A    between atoms: C_8  and  C_9
REMARK    8  A    between atoms: C_10  and  C_11
REMARK    9  A    between atoms: C_11  and  O_12
REMARK   10  A    between atoms: C_11  and  C_13
REMARK   11  A    between atoms: C_13  and  C_14
REMARK   12  A    between atoms: C_14  and  O_16
REMARK                            x       y       z     vdW  Elec       q    Type
REMARK                         _______ _______ _______ _____ _____    ______ ____
ROOT
ATOM      1  C   UNL     1       4.298   5.873  17.525  0.00  0.00    +0.000 C 
ATOM      2  C   UNL     1       5.198   4.875  17.454  0.00  0.00    +0.000 C 
ENDROOT
BRANCH   1   4
ATOM      3  C   UNL     1       2.923   5.696  19.526  0.00  0.00    +0.000 C 
ATOM      4  C   UNL     1       3.029   5.748  18.189  0.00  0.00    +0.000 C 
BRANCH   3   5
ATOM      5  C   UNL     1       1.608   5.555  20.229  0.00  0.00    +0.000 C 
BRANCH   5   6
ATOM      6  C   UNL     1       1.415   4.143  20.780  0.00  0.00    +0.000 C 
BRANCH   6   7
ATOM      7  C   UNL     1       0.930   3.188  19.685  0.00  0.00    +0.000 C 
BRANCH   7   9
ATOM      8  C   UNL     1       2.378   2.247  17.847  0.00  0.00    +0.000 C 
ATOM      9  C   UNL     1       1.995   2.151  19.317  0.00  0.00    +0.000 C 
BRANCH   9  10
ATOM     10  O   UNL     1       3.164   2.344  20.108  0.00  0.00    +0.000 OA
ATOM     11  H   UNL     1       3.407   3.284  20.059  0.00  0.00    +0.000 HD
ENDBRANCH   9  10
ENDBRANCH   7   9
ENDBRANCH   6   7
ENDBRANCH   5   6
ENDBRANCH   3   5
ENDBRANCH   1   4
BRANCH   2  12
ATOM     12  C   UNL     1       6.543   5.042  16.801  0.00  0.00    +0.000 C 
BRANCH  12  13
ATOM     13  O   UNL     1       6.684   6.372  16.300  0.00  0.00    +0.000 OA
ATOM     14  H   UNL     1       6.883   6.939  17.076  0.00  0.00    +0.000 HD
ENDBRANCH  12  13
BRANCH  12  15
ATOM     15  C   UNL     1       7.716   4.713  17.722  0.00  0.00    +0.000 C 
BRANCH  15  16
ATOM     16  C   UNL     1       7.760   5.632  18.914  0.00  0.00    +0.000 C 
ATOM     17  O   UNL     1       7.468   5.311  20.057  0.00  0.00    +0.000 OA
BRANCH  16  18
ATOM     18  O   UNL     1       8.144   6.891  18.599  0.00  0.00    +0.000 OA
ATOM     19  H   UNL     1       8.264   7.482  19.367  0.00  0.00    +0.000 HD
ENDBRANCH  16  18
ENDBRANCH  15  16
ENDBRANCH  12  15
ENDBRANCH   2  12
TORSDOF 11
ENDMDL
MODEL 6
REMARK VINA RESULT:      -5.7      2.136      2.849
REMARK  Name = 
REMARK  12 active torsions:
REMARK  status: ('A' for Active; 'I' for Inactive)
REMARK    1  A    between atoms: C_1  and  C_2
REMARK    2  A    between atoms: C_2  and  O_3
REMARK    3  A    between atoms: C_2  and  C_4
REMARK    4  A    between atoms: C_4  and  C_5
REMARK    5  A    between atoms: C_5  and  C_6
REMARK    6  A    between atoms: C_6  and  C_7
REMARK    7  A    between atoms: C_8  and  C_9
REMARK    8  A    between atoms: C_10  and  C_11
REMARK    9  A    between atoms: C_11  and  O_12
REMARK   10  A    between atoms: C_11  and  C_13
REMARK   11  A    between atoms: C_13  and  C_14
REMARK   12  A    between atoms: C_14  and  O_16
REMARK                            x       y       z     vdW  Elec       q    Type
REMARK                         _______ _______ _______ _____ _____    ______ ____
ROOT
ATOM      1  C   UNL     1       3.737   6.550  18.051  0.00  0.00    +0.000 C 
ATOM      2  C   UNL     1       4.296   5.815  17.072  0.00  0.00    +0.000 C 
ENDROOT
BRANCH   1   4
ATOM      3  C   UNL     1       2.186   4.882  18.911  0.00  0.00    +0.000 C 
ATOM      4  C   UNL     1       2.922   5.989  19.095  0.00  0.00    +0.000 C 
BRANCH   3   5
ATOM      5  C   UNL     1       1.326   4.295  19.987  0.00  0.00    +0.000 C 
BRANCH   5   6
ATOM      6  C   UNL     1       1.690   2.836  20.262  0.00  0.00    +0.000 C 
BRANCH   6   7
ATOM      7  C   UNL     1       3.099   2.724  20.851  0.00  0.00    +0.000 C 
BRANCH   7   9
ATOM      8  C   UNL     1       3.358   1.543  18.638  0.00  0.00    +0.000 C 
ATOM      9  C   UNL     1       4.075   2.056  19.878  0.00  0.00    +0.000 C 
BRANCH   9  10
ATOM     10  O   UNL     1       5.078   2.984  19.474  0.00  0.00    +0.000 OA
ATOM     11  H   UNL     1       4.740   3.881  19.636  0.00  0.00    +0.000 HD
ENDBRANCH   9  10
ENDBRANCH   7   9
ENDBRANCH   6   7
ENDBRANCH   5   6
ENDBRANCH   3   5
ENDBRANCH   1   4
BRANCH   2  12
ATOM     12  C   UNL     1       5.189   6.412  16.019  0.00  0.00    +0.000 C 
BRANCH  12  13
ATOM     13  O   UNL     1       6.237   7.162  16.632  0.00  0.00    +0.000 OA
ATOM     14  H   UNL     1       6.226   8.048  16.210  0.00  0.00    +0.000 HD
ENDBRANCH  12  13
BRANCH  12  15
ATOM     15  C   UNL     1       5.785   5.380  15.064  0.00  0.00    +0.000 C 
BRANCH  15  16
ATOM     16  C   UNL     1       6.648   4.384  15.794  0.00  0.00    +0.000 C 
ATOM     17  O   UNL     1       7.788   4.596  16.182  0.00  0.00    +0.000 OA
BRANCH  16  18
ATOM     18  O   UNL     1       6.041   3.187  15.974  0.00  0.00    +0.000 OA
ATOM     19  H   UNL     1       5.268   3.035  15.398  0.00  0.00    +0.000 HD
ENDBRANCH  16  18
ENDBRANCH  15  16
ENDBRANCH  12  15
ENDBRANCH   2  12
TORSDOF 11
ENDMDL
MODEL 7
REMARK VINA RESULT:      -5.6      1.600      5.819
REMARK  Name = 
REMARK  12 active torsions:
REMARK  status: ('A' for Active; 'I' for Inactive)
REMARK    1  A    between atoms: C_1  and  C_2
REMARK    2  A    between atoms: C_2  and  O_3
REMARK    3  A    between atoms: C_2  and  C_4
REMARK    4  A    between atoms: C_4  and  C_5
REMARK    5  A    between atoms: C_5  and  C_6
REMARK    6  A    between atoms: C_6  and  C_7
REMARK    7  A    between atoms: C_8  and  C_9
REMARK    8  A    between atoms: C_10  and  C_11
REMARK    9  A    between atoms: C_11  and  O_12
REMARK   10  A    between atoms: C_11  and  C_13
REMARK   11  A    between atoms: C_13  and  C_14
REMARK   12  A    between atoms: C_14  and  O_16
REMARK                            x       y       z     vdW  Elec       q    Type
REMARK                         _______ _______ _______ _____ _____    ______ ____
ROOT
ATOM      1  C   UNL     1       3.165   3.386  17.163  0.00  0.00    +0.000 C 
ATOM      2  C   UNL     1       2.825   3.125  18.439  0.00  0.00    +0.000 C 
ENDROOT
BRANCH   1   4
ATOM      3  C   UNL     1       4.945   4.723  16.177  0.00  0.00    +0.000 C 
ATOM      4  C   UNL     1       4.523   3.574  16.729  0.00  0.00    +0.000 C 
BRANCH   3   5
ATOM      5  C   UNL     1       6.353   4.928  15.711  0.00  0.00    +0.000 C 
BRANCH   5   6
ATOM      6  C   UNL     1       7.131   5.841  16.658  0.00  0.00    +0.000 C 
BRANCH   6   7
ATOM      7  C   UNL     1       7.595   5.074  17.900  0.00  0.00    +0.000 C 
BRANCH   7   9
ATOM      8  C   UNL     1       5.674   5.210  19.530  0.00  0.00    +0.000 C 
ATOM      9  C   UNL     1       7.073   5.709  19.193  0.00  0.00    +0.000 C 
BRANCH   9  10
ATOM     10  O   UNL     1       7.942   5.400  20.278  0.00  0.00    +0.000 OA
ATOM     11  H   UNL     1       7.479   4.781  20.867  0.00  0.00    +0.000 HD
ENDBRANCH   9  10
ENDBRANCH   7   9
ENDBRANCH   6   7
ENDBRANCH   5   6
ENDBRANCH   3   5
ENDBRANCH   1   4
BRANCH   2  12
ATOM     12  C   UNL     1       1.403   2.879  18.865  0.00  0.00    +0.000 C 
BRANCH  12  13
ATOM     13  O   UNL     1       1.239   1.518  19.261  0.00  0.00    +0.000 OA
ATOM     14  H   UNL     1       1.820   1.385  20.040  0.00  0.00    +0.000 HD
ENDBRANCH  12  13
BRANCH  12  15
ATOM     15  C   UNL     1       0.932   3.802  19.987  0.00  0.00    +0.000 C 
BRANCH  15  16
ATOM     16  C   UNL     1       1.864   3.756  21.169  0.00  0.00    +0.000 C 
ATOM     17  O   UNL     1       2.031   2.785  21.894  0.00  0.00    +0.000 OA
BRANCH  16  18
ATOM     18  O   UNL     1       2.509   4.927  21.382  0.00  0.00    +0.000 OA
ATOM     19  H   UNL     1       3.376   4.838  21.821  0.00  0.00    +0.000 HD
ENDBRANCH  16  18
ENDBRANCH  15  16
ENDBRANCH  12  15
ENDBRANCH   2  12
TORSDOF 11
ENDMDL
MODEL 8
REMARK VINA RESULT:      -5.6      2.041      2.820
REMARK  Name = 
REMARK  12 active torsions:
REMARK  status: ('A' for Active; 'I' for Inactive)
REMARK    1  A    between atoms: C_1  and  C_2
REMARK    2  A    between atoms: C_2  and  O_3
REMARK    3  A    between atoms: C_2  and  C_4
REMARK    4  A    between atoms: C_4  and  C_5
REMARK    5  A    between atoms: C_5  and  C_6
REMARK    6  A    between atoms: C_6  and  C_7
REMARK    7  A    between atoms: C_8  and  C_9
REMARK    8  A    between atoms: C_10  and  C_11
REMARK    9  A    between atoms: C_11  and  O_12
REMARK   10  A    between atoms: C_11  and  C_13
REMARK   11  A    between atoms: C_13  and  C_14
REMARK   12  A    between atoms: C_14  and  O_16
REMARK                            x       y       z     vdW  Elec       q    Type
REMARK                         _______ _______ _______ _____ _____    ______ ____
ROOT
ATOM      1  C   UNL     1       3.516   6.916  17.649  0.00  0.00    +0.000 C 
ATOM      2  C   UNL     1       4.781   6.463  17.580  0.00  0.00    +0.000 C 
ENDROOT
BRANCH   1   4
ATOM      3  C   UNL     1       2.592   5.542  19.434  0.00  0.00    +0.000 C 
ATOM      4  C   UNL     1       2.665   6.718  18.791  0.00  0.00    +0.000 C 
BRANCH   3   5
ATOM      5  C   UNL     1       1.702   5.321  20.618  0.00  0.00    +0.000 C 
BRANCH   5   6
ATOM      6  C   UNL     1       1.183   3.884  20.668  0.00  0.00    +0.000 C 
BRANCH   6   7
ATOM      7  C   UNL     1       1.136   3.269  19.266  0.00  0.00    +0.000 C 
BRANCH   7   9
ATOM      8  C   UNL     1       2.762   2.090  17.741  0.00  0.00    +0.000 C 
ATOM      9  C   UNL     1       2.116   2.101  19.120  0.00  0.00    +0.000 C 
BRANCH   9  10
ATOM     10  O   UNL     1       3.141   2.194  20.104  0.00  0.00    +0.000 OA
ATOM     11  H   UNL     1       3.669   1.379  20.066  0.00  0.00    +0.000 HD
ENDBRANCH   9  10
ENDBRANCH   7   9
ENDBRANCH   6   7
ENDBRANCH   5   6
ENDBRANCH   3   5
ENDBRANCH   1   4
BRANCH   2  12
ATOM     12  C   UNL     1       5.673   6.725  16.397  0.00  0.00    +0.000 C 
BRANCH  12  13
ATOM     13  O   UNL     1       6.965   7.140  16.840  0.00  0.00    +0.000 OA
ATOM     14  H   UNL     1       7.377   6.355  17.261  0.00  0.00    +0.000 HD
ENDBRANCH  12  13
BRANCH  12  15
ATOM     15  C   UNL     1       5.811   5.529  15.457  0.00  0.00    +0.000 C 
BRANCH  15  16
ATOM     16  C   UNL     1       6.604   4.416  16.089  0.00  0.00    +0.000 C 
ATOM     17  O   UNL     1       7.780   4.491  16.415  0.00  0.00    +0.000 OA
BRANCH  16  18
ATOM     18  O   UNL     1       5.886   3.281  16.255  0.00  0.00    +0.000 OA
ATOM     19  H   UNL     1       4.968   3.330  15.928  0.00  0.00    +0.000 HD
ENDBRANCH  16  18
ENDBRANCH  15  16
ENDBRANCH  12  15
ENDBRANCH   2  12
TORSDOF 11
ENDMDL
MODEL 9
REMARK VINA RESULT:      -5.6      1.415      1.705
REMARK  Name = 
REMARK  12 active torsions:
REMARK  status: ('A' for Active; 'I' for Inactive)
REMARK    1  A    between atoms: C_1  and  C_2
REMARK    2  A    between atoms: C_2  and  O_3
REMARK    3  A    between atoms: C_2  and  C_4
REMARK    4  A    between atoms: C_4  and  C_5
REMARK    5  A    between atoms: C_5  and  C_6
REMARK    6  A    between atoms: C_6  and  C_7
REMARK    7  A    between atoms: C_8  and  C_9
REMARK    8  A    between atoms: C_10  and  C_11
REMARK    9  A    between atoms: C_11  and  O_12
REMARK   10  A    between atoms: C_11  and  C_13
REMARK   11  A    between atoms: C_13  and  C_14
REMARK   12  A    between atoms: C_14  and  O_16
REMARK                            x       y       z     vdW  Elec       q    Type
REMARK                         _______ _______ _______ _____ _____    ______ ____
ROOT
ATOM      1  C   UNL     1       4.050   4.859  17.007  0.00  0.00    +0.000 C 
ATOM      2  C   UNL     1       5.158   4.485  16.343  0.00  0.00    +0.000 C 
ENDROOT
BRANCH   1   4
ATOM      3  C   UNL     1       3.321   2.840  18.157  0.00  0.00    +0.000 C 
ATOM      4  C   UNL     1       3.034   3.935  17.435  0.00  0.00    +0.000 C 
BRANCH   3   5
ATOM      5  C   UNL     1       2.274   1.866  18.599  0.00  0.00    +0.000 C 
BRANCH   5   6
ATOM      6  C   UNL     1       0.976   2.574  18.987  0.00  0.00    +0.000 C 
BRANCH   6   7
ATOM      7  C   UNL     1       0.904   2.798  20.500  0.00  0.00    +0.000 C 
BRANCH   7   9
ATOM      8  C   UNL     1       2.051   5.014  20.869  0.00  0.00    +0.000 C 
ATOM      9  C   UNL     1       2.154   3.504  21.035  0.00  0.00    +0.000 C 
BRANCH   9  10
ATOM     10  O   UNL     1       2.333   3.207  22.416  0.00  0.00    +0.000 OA
ATOM     11  H   UNL     1       1.562   3.549  22.899  0.00  0.00    +0.000 HD
ENDBRANCH   9  10
ENDBRANCH   7   9
ENDBRANCH   6   7
ENDBRANCH   5   6
ENDBRANCH   3   5
ENDBRANCH   1   4
BRANCH   2  12
ATOM     12  C   UNL     1       6.235   5.459  15.950  0.00  0.00    +0.000 C 
BRANCH  12  13
ATOM     13  O   UNL     1       5.674   6.531  15.192  0.00  0.00    +0.000 OA
ATOM     14  H   UNL     1       5.742   6.267  14.249  0.00  0.00    +0.000 HD
ENDBRANCH  12  13
BRANCH  12  15
ATOM     15  C   UNL     1       7.014   6.023  17.137  0.00  0.00    +0.000 C 
BRANCH  15  16
ATOM     16  C   UNL     1       7.523   4.927  18.036  0.00  0.00    +0.000 C 
ATOM     17  O   UNL     1       8.368   4.100  17.724  0.00  0.00    +0.000 OA
BRANCH  16  18
ATOM     18  O   UNL     1       6.933   4.923  19.254  0.00  0.00    +0.000 OA
ATOM     19  H   UNL     1       7.008   4.079  19.737  0.00  0.00    +0.000 HD
ENDBRANCH  16  18
ENDBRANCH  15  16
ENDBRANCH  12  15
ENDBRANCH   2  12
TORSDOF 11
ENDMDL
