MODEL 1
REMARK VINA RESULT:      -8.8      0.000      0.000
REMARK  Name = 
REMARK  8 active torsions:
REMARK  status: ('A' for Active; 'I' for Inactive)
REMARK    1  A    between atoms: C_1  and  C_2
REMARK    2  A    between atoms: C_3  and  C_4
REMARK    3  A    between atoms: C_10  and  N_11
REMARK    4  A    between atoms: C_10  and  C_27
REMARK    5  A    between atoms: N_11  and  S_12
REMARK    6  A    between atoms: S_12  and  C_15
REMARK    7  A    between atoms: C_18  and  C_19
REMARK    8  A    between atoms: C_27  and  O_29
REMARK                            x       y       z     vdW  Elec       q    Type
REMARK                         _______ _______ _______ _____ _____    ______ ____
ROOT
ATOM      1  N   UNL     1       4.595   6.301  17.373  0.00  0.00    +0.000 NA
ATOM      2  H   UNL     1       4.371   7.047  16.704  0.00  0.00    +0.000 HD
ENDROOT
BRANCH   1   6
ATOM      3  C   UNL     1       4.232   2.892  17.267  0.00  0.00    +0.000 C 
ATOM      4  C   UNL     1       5.286   3.735  16.662  0.00  0.00    +0.000 C 
ATOM      5  C   UNL     1       5.009   4.606  15.457  0.00  0.00    +0.000 C 
ATOM      6  C   UNL     1       5.466   5.240  16.774  0.00  0.00    +0.000 C 
BRANCH   5   7
ATOM      7  C   UNL     1       5.849   4.402  14.218  0.00  0.00    +0.000 A 
ATOM      8  C   UNL     1       5.418   3.502  13.226  0.00  0.00    +0.000 A 
ATOM      9  C   UNL     1       6.142   3.303  12.049  0.00  0.00    +0.000 A 
ATOM     10  C   UNL     1       7.319   4.010  11.834  0.00  0.00    +0.000 A 
ATOM     11  C   UNL     1       7.757   4.925  12.788  0.00  0.00    +0.000 A 
ATOM     12  C   UNL     1       7.022   5.127  13.960  0.00  0.00    +0.000 A 
ENDBRANCH   5   7
BRANCH   6  13
ATOM     13  C   UNL     1       6.910   5.649  17.053  0.00  0.00    +0.000 C 
ATOM     14  O   UNL     1       7.792   4.883  17.410  0.00  0.00    +0.000 OA
BRANCH  13  15
ATOM     15  O   UNL     1       7.117   6.984  16.900  0.00  0.00    +0.000 OA
ATOM     16  H   UNL     1       6.410   7.466  17.383  0.00  0.00    +0.000 HD
ENDBRANCH  13  15
ENDBRANCH   6  13
ENDBRANCH   1   6
BRANCH   1  17
ATOM     17  S   UNL     1       3.291   6.065  18.401  0.00  0.00    +0.000 S 
ATOM     18  O   UNL     1       2.346   5.156  17.801  0.00  0.00    +0.000 OA
ATOM     19  O   UNL     1       3.880   5.767  19.691  0.00  0.00    +0.000 OA
BRANCH  17  20
ATOM     20  C   UNL     1       2.448   7.611  18.627  0.00  0.00    +0.000 A 
ATOM     21  C   UNL     1       2.263   8.714  17.818  0.00  0.00    +0.000 A 
ATOM     22  C   UNL     1       1.490   9.729  18.450  0.00  0.00    +0.000 A 
ATOM     23  C   UNL     1       1.052   9.363  19.712  0.00  0.00    +0.000 A 
ATOM     24  S   UNL     1       1.706   7.837  20.152  0.00  0.00    +0.000 S 
BRANCH  23  25
ATOM     25  C   UNL     1       0.174  10.112  20.630  0.00  0.00    +0.000 A 
ATOM     26  C   UNL     1      -0.519  11.266  20.224  0.00  0.00    +0.000 A 
ATOM     27  C   UNL     1      -1.320  11.979  21.121  0.00  0.00    +0.000 A 
ATOM     28  C   UNL     1      -1.434  11.550  22.440  0.00  0.00    +0.000 A 
ATOM     29 CL   UNL     1      -2.418  12.427  23.545  0.00  0.00    +0.000 Cl
ATOM     30  C   UNL     1      -0.751  10.417  22.869  0.00  0.00    +0.000 A 
ATOM     31  C   UNL     1       0.047   9.703  21.969  0.00  0.00    +0.000 A 
ENDBRANCH  23  25
ENDBRANCH  17  20
ENDBRANCH   1  17
TORSDOF 7
ENDMDL
MODEL 2
REMARK VINA RESULT:      -8.7      0.158      1.084
REMARK  Name = 
REMARK  8 active torsions:
REMARK  status: ('A' for Active; 'I' for Inactive)
REMARK    1  A    between atoms: C_1  and  C_2
REMARK    2  A    between atoms: C_3  and  C_4
REMARK    3  A    between atoms: C_10  and  N_11
REMARK    4  A    between atoms: C_10  and  C_27
REMARK    5  A    between atoms: N_11  and  S_12
REMARK    6  A    between atoms: S_12  and  C_15
REMARK    7  A    between atoms: C_18  and  C_19
REMARK    8  A    between atoms: C_27  and  O_29
REMARK                            x       y       z     vdW  Elec       q    Type
REMARK                         _______ _______ _______ _____ _____    ______ ____
ROOT
ATOM      1  N   UNL     1       4.654   6.295  17.482  0.00  0.00    +0.000 NA
ATOM      2  H   UNL     1       4.471   7.088  16.857  0.00  0.00    +0.000 HD
ENDROOT
BRANCH   1   6
ATOM      3  C   UNL     1       4.470   2.870  17.480  0.00  0.00    +0.000 C 
ATOM      4  C   UNL     1       5.434   3.750  16.785  0.00  0.00    +0.000 C 
ATOM      5  C   UNL     1       5.030   4.572  15.581  0.00  0.00    +0.000 C 
ATOM      6  C   UNL     1       5.540   5.264  16.849  0.00  0.00    +0.000 C 
BRANCH   5   7
ATOM      7  C   UNL     1       5.795   4.379  14.294  0.00  0.00    +0.000 A 
ATOM      8  C   UNL     1       5.298   3.499  13.314  0.00  0.00    +0.000 A 
ATOM      9  C   UNL     1       5.951   3.311  12.095  0.00  0.00    +0.000 A 
ATOM     10  C   UNL     1       7.121   4.010  11.823  0.00  0.00    +0.000 A 
ATOM     11  C   UNL     1       7.624   4.905  12.764  0.00  0.00    +0.000 A 
ATOM     12  C   UNL     1       6.960   5.096  13.979  0.00  0.00    +0.000 A 
ENDBRANCH   5   7
BRANCH   6  13
ATOM     13  C   UNL     1       6.975   5.756  17.019  0.00  0.00    +0.000 C 
ATOM     14  O   UNL     1       7.349   6.897  16.794  0.00  0.00    +0.000 OA
BRANCH  13  15
ATOM     15  O   UNL     1       7.824   4.772  17.419  0.00  0.00    +0.000 OA
ATOM     16  H   UNL     1       7.306   4.092  17.904  0.00  0.00    +0.000 HD
ENDBRANCH  13  15
ENDBRANCH   6  13
ENDBRANCH   1   6
BRANCH   1  17
ATOM     17  S   UNL     1       3.303   6.007  18.431  0.00  0.00    +0.000 S 
ATOM     18  O   UNL     1       2.402   5.109  17.752  0.00  0.00    +0.000 OA
ATOM     19  O   UNL     1       3.828   5.672  19.739  0.00  0.00    +0.000 OA
BRANCH  17  20
ATOM     20  C   UNL     1       2.427   7.534  18.665  0.00  0.00    +0.000 A 
ATOM     21  C   UNL     1       2.133   8.593  17.829  0.00  0.00    +0.000 A 
ATOM     22  C   UNL     1       1.382   9.610  18.485  0.00  0.00    +0.000 A 
ATOM     23  C   UNL     1       1.070   9.289  19.794  0.00  0.00    +0.000 A 
ATOM     24  S   UNL     1       1.814   7.805  20.240  0.00  0.00    +0.000 S 
BRANCH  23  25
ATOM     25  C   UNL     1       0.249  10.049  20.755  0.00  0.00    +0.000 A 
ATOM     26  C   UNL     1       0.005   9.583  22.059  0.00  0.00    +0.000 A 
ATOM     27  C   UNL     1      -0.804  10.305  22.942  0.00  0.00    +0.000 A 
ATOM     28  C   UNL     1      -1.386  11.500  22.530  0.00  0.00    +0.000 A 
ATOM     29 CL   UNL     1      -2.382  12.388  23.615  0.00  0.00    +0.000 Cl
ATOM     30  C   UNL     1      -1.168  11.977  21.242  0.00  0.00    +0.000 A 
ATOM     31  C   UNL     1      -0.355  11.255  20.362  0.00  0.00    +0.000 A 
ENDBRANCH  23  25
ENDBRANCH  17  20
ENDBRANCH   1  17
TORSDOF 7
ENDMDL
MODEL 3
REMARK VINA RESULT:      -8.6      5.273     10.614
REMARK  Name = 
REMARK  8 active torsions:
REMARK  status: ('A' for Active; 'I' for Inactive)
REMARK    1  A    between atoms: C_1  and  C_2
REMARK    2  A    between atoms: C_3  and  C_4
REMARK    3  A    between atoms: C_10  and  N_11
REMARK    4  A    between atoms: C_10  and  C_27
REMARK    5  A    between atoms: N_11  and  S_12
REMARK    6  A    between atoms: S_12  and  C_15
REMARK    7  A    between atoms: C_18  and  C_19
REMARK    8  A    between atoms: C_27  and  O_29
REMARK                            x       y       z     vdW  Elec       q    Type
REMARK                         _______ _______ _______ _____ _____    ______ ____
ROOT
ATOM      1  N   UNL     1      -1.224  10.026  18.563  0.00  0.00    +0.000 NA
ATOM      2  H   UNL     1      -1.079   9.190  17.985  0.00  0.00    +0.000 HD
ENDROOT
BRANCH   1   6
ATOM      3  C   UNL     1      -2.533  10.129  15.394  0.00  0.00    +0.000 C 
ATOM      4  C   UNL     1      -2.772  11.045  16.529  0.00  0.00    +0.000 C 
ATOM      5  C   UNL     1      -3.602  10.627  17.723  0.00  0.00    +0.000 C 
ATOM      6  C   UNL     1      -2.133  11.021  17.908  0.00  0.00    +0.000 C 
BRANCH   5   7
ATOM      7  C   UNL     1      -4.808  11.462  18.084  0.00  0.00    +0.000 A 
ATOM      8  C   UNL     1      -5.525  12.122  17.068  0.00  0.00    +0.000 A 
ATOM      9  C   UNL     1      -6.666  12.878  17.347  0.00  0.00    +0.000 A 
ATOM     10  C   UNL     1      -7.121  12.986  18.655  0.00  0.00    +0.000 A 
ATOM     11  C   UNL     1      -6.444  12.324  19.677  0.00  0.00    +0.000 A 
ATOM     12  C   UNL     1      -5.309  11.560  19.390  0.00  0.00    +0.000 A 
ENDBRANCH   5   7
BRANCH   6  13
ATOM     13  C   UNL     1      -1.687  12.401  18.383  0.00  0.00    +0.000 C 
ATOM     14  O   UNL     1      -1.940  12.874  19.481  0.00  0.00    +0.000 OA
BRANCH  13  15
ATOM     15  O   UNL     1      -0.996  13.086  17.433  0.00  0.00    +0.000 OA
ATOM     16  H   UNL     1      -1.629  13.641  16.927  0.00  0.00    +0.000 HD
ENDBRANCH  13  15
ENDBRANCH   6  13
ENDBRANCH   1   6
BRANCH   1  17
ATOM     17  S   UNL     1       0.177  10.362  19.420  0.00  0.00    +0.000 S 
ATOM     18  O   UNL     1       0.917  11.413  18.768  0.00  0.00    +0.000 OA
ATOM     19  O   UNL     1      -0.252  10.509  20.797  0.00  0.00    +0.000 OA
BRANCH  17  20
ATOM     20  C   UNL     1       1.215   8.921  19.415  0.00  0.00    +0.000 A 
ATOM     21  C   UNL     1       1.535   7.983  20.377  0.00  0.00    +0.000 A 
ATOM     22  C   UNL     1       2.423   6.984  19.886  0.00  0.00    +0.000 A 
ATOM     23  C   UNL     1       2.725   7.144  18.545  0.00  0.00    +0.000 A 
ATOM     24  S   UNL     1       2.021   8.591  17.942  0.00  0.00    +0.000 S 
BRANCH  23  25
ATOM     25  C   UNL     1       3.539   6.272  17.678  0.00  0.00    +0.000 A 
ATOM     26  C   UNL     1       3.368   4.877  17.653  0.00  0.00    +0.000 A 
ATOM     27  C   UNL     1       4.175   4.066  16.848  0.00  0.00    +0.000 A 
ATOM     28  C   UNL     1       5.169   4.641  16.061  0.00  0.00    +0.000 A 
ATOM     29 CL   UNL     1       6.162   3.645  15.072  0.00  0.00    +0.000 Cl
ATOM     30  C   UNL     1       5.365   6.017  16.076  0.00  0.00    +0.000 A 
ATOM     31  C   UNL     1       4.554   6.827  16.879  0.00  0.00    +0.000 A 
ENDBRANCH  23  25
ENDBRANCH  17  20
ENDBRANCH   1  17
TORSDOF 7
ENDMDL
MODEL 4
REMARK VINA RESULT:      -8.5      5.078      7.646
REMARK  Name = 
REMARK  8 active torsions:
REMARK  status: ('A' for Active; 'I' for Inactive)
REMARK    1  A    between atoms: C_1  and  C_2
REMARK    2  A    between atoms: C_3  and  C_4
REMARK    3  A    between atoms: C_10  and  N_11
REMARK    4  A    between atoms: C_10  and  C_27
REMARK    5  A    between atoms: N_11  and  S_12
REMARK    6  A    between atoms: S_12  and  C_15
REMARK    7  A    between atoms: C_18  and  C_19
REMARK    8  A    between atoms: C_27  and  O_29
REMARK                            x       y       z     vdW  Elec       q    Type
REMARK                         _______ _______ _______ _____ _____    ______ ____
ROOT
ATOM      1  N   UNL     1       5.542   4.878  16.735  0.00  0.00    +0.000 NA
ATOM      2  H   UNL     1       5.089   4.321  16.001  0.00  0.00    +0.000 HD
ENDROOT
BRANCH   1   6
ATOM      3  C   UNL     1       3.626   7.524  17.777  0.00  0.00    +0.000 C 
ATOM      4  C   UNL     1       3.767   6.183  18.383  0.00  0.00    +0.000 C 
ATOM      5  C   UNL     1       3.156   4.956  17.744  0.00  0.00    +0.000 C 
ATOM      6  C   UNL     1       4.671   5.043  17.943  0.00  0.00    +0.000 C 
BRANCH   5   7
ATOM      7  C   UNL     1       2.188   4.132  18.559  0.00  0.00    +0.000 A 
ATOM      8  C   UNL     1       1.742   4.613  19.804  0.00  0.00    +0.000 A 
ATOM      9  C   UNL     1       0.823   3.903  20.580  0.00  0.00    +0.000 A 
ATOM     10  C   UNL     1       0.321   2.692  20.121  0.00  0.00    +0.000 A 
ATOM     11  C   UNL     1       0.727   2.202  18.882  0.00  0.00    +0.000 A 
ATOM     12  C   UNL     1       1.640   2.922  18.105  0.00  0.00    +0.000 A 
ENDBRANCH   5   7
BRANCH   6  13
ATOM     13  C   UNL     1       5.406   4.380  19.106  0.00  0.00    +0.000 C 
ATOM     14  O   UNL     1       5.962   4.984  20.010  0.00  0.00    +0.000 OA
BRANCH  13  15
ATOM     15  O   UNL     1       5.415   3.024  19.017  0.00  0.00    +0.000 OA
ATOM     16  H   UNL     1       6.318   2.704  19.235  0.00  0.00    +0.000 HD
ENDBRANCH  13  15
ENDBRANCH   6  13
ENDBRANCH   1   6
BRANCH   1  17
ATOM     17  S   UNL     1       6.508   6.051  16.028  0.00  0.00    +0.000 S 
ATOM     18  O   UNL     1       7.492   5.434  15.174  0.00  0.00    +0.000 OA
ATOM     19  O   UNL     1       5.581   7.030  15.495  0.00  0.00    +0.000 OA
BRANCH  17  20
ATOM     20  C   UNL     1       7.398   6.909  17.303  0.00  0.00    +0.000 A 
ATOM     21  C   UNL     1       8.045   6.492  18.449  0.00  0.00    +0.000 A 
ATOM     22  C   UNL     1       8.634   7.573  19.165  0.00  0.00    +0.000 A 
ATOM     23  C   UNL     1       8.472   8.791  18.528  0.00  0.00    +0.000 A 
ATOM     24  S   UNL     1       7.488   8.609  17.131  0.00  0.00    +0.000 S 
BRANCH  23  25
ATOM     25  C   UNL     1       9.003  10.110  18.921  0.00  0.00    +0.000 A 
ATOM     26  C   UNL     1       9.268  10.435  20.263  0.00  0.00    +0.000 A 
ATOM     27  C   UNL     1       9.739  11.704  20.617  0.00  0.00    +0.000 A 
ATOM     28  C   UNL     1       9.946  12.666  19.633  0.00  0.00    +0.000 A 
ATOM     29 CL   UNL     1      10.525  14.226  20.067  0.00  0.00    +0.000 Cl
ATOM     30  C   UNL     1       9.682  12.371  18.300  0.00  0.00    +0.000 A 
ATOM     31  C   UNL     1       9.214  11.101  17.948  0.00  0.00    +0.000 A 
ENDBRANCH  23  25
ENDBRANCH  17  20
ENDBRANCH   1  17
TORSDOF 7
ENDMDL
MODEL 5
REMARK VINA RESULT:      -8.3      1.070      1.339
REMARK  Name = 
REMARK  8 active torsions:
REMARK  status: ('A' for Active; 'I' for Inactive)
REMARK    1  A    between atoms: C_1  and  C_2
REMARK    2  A    between atoms: C_3  and  C_4
REMARK    3  A    between atoms: C_10  and  N_11
REMARK    4  A    between atoms: C_10  and  C_27
REMARK    5  A    between atoms: N_11  and  S_12
REMARK    6  A    between atoms: S_12  and  C_15
REMARK    7  A    between atoms: C_18  and  C_19
REMARK    8  A    between atoms: C_27  and  O_29
REMARK                            x       y       z     vdW  Elec       q    Type
REMARK                         _______ _______ _______ _____ _____    ______ ____
ROOT
ATOM      1  N   UNL     1       3.881   5.159  17.285  0.00  0.00    +0.000 NA
ATOM      2  H   UNL     1       3.464   4.256  17.031  0.00  0.00    +0.000 HD
ENDROOT
BRANCH   1   6
ATOM      3  C   UNL     1       7.046   4.117  18.100  0.00  0.00    +0.000 C 
ATOM      4  C   UNL     1       6.594   4.882  16.919  0.00  0.00    +0.000 C 
ATOM      5  C   UNL     1       5.799   4.230  15.809  0.00  0.00    +0.000 C 
ATOM      6  C   UNL     1       5.197   5.391  16.606  0.00  0.00    +0.000 C 
BRANCH   5   7
ATOM      7  C   UNL     1       6.347   4.294  14.403  0.00  0.00    +0.000 A 
ATOM      8  C   UNL     1       5.717   3.563  13.378  0.00  0.00    +0.000 A 
ATOM      9  C   UNL     1       6.165   3.615  12.057  0.00  0.00    +0.000 A 
ATOM     10  C   UNL     1       7.258   4.409  11.728  0.00  0.00    +0.000 A 
ATOM     11  C   UNL     1       7.886   5.160  12.718  0.00  0.00    +0.000 A 
ATOM     12  C   UNL     1       7.426   5.112  14.038  0.00  0.00    +0.000 A 
ENDBRANCH   5   7
BRANCH   6  13
ATOM     13  C   UNL     1       5.184   6.834  16.109  0.00  0.00    +0.000 C 
ATOM     14  O   UNL     1       4.682   7.203  15.058  0.00  0.00    +0.000 OA
BRANCH  13  15
ATOM     15  O   UNL     1       5.833   7.685  16.947  0.00  0.00    +0.000 OA
ATOM     16  H   UNL     1       6.784   7.699  16.701  0.00  0.00    +0.000 HD
ENDBRANCH  13  15
ENDBRANCH   6  13
ENDBRANCH   1   6
BRANCH   1  17
ATOM     17  S   UNL     1       3.498   5.523  18.876  0.00  0.00    +0.000 S 
ATOM     18  O   UNL     1       2.609   4.523  19.413  0.00  0.00    +0.000 OA
ATOM     19  O   UNL     1       4.771   5.795  19.516  0.00  0.00    +0.000 OA
BRANCH  17  20
ATOM     20  C   UNL     1       2.623   7.067  18.920  0.00  0.00    +0.000 A 
ATOM     21  C   UNL     1       2.398   8.053  17.980  0.00  0.00    +0.000 A 
ATOM     22  C   UNL     1       1.613   9.125  18.493  0.00  0.00    +0.000 A 
ATOM     23  C   UNL     1       1.208   8.916  19.801  0.00  0.00    +0.000 A 
ATOM     24  S   UNL     1       1.906   7.473  20.420  0.00  0.00    +0.000 S 
BRANCH  23  25
ATOM     25  C   UNL     1       0.330   9.758  20.634  0.00  0.00    +0.000 A 
ATOM     26  C   UNL     1      -0.408  10.826  20.095  0.00  0.00    +0.000 A 
ATOM     27  C   UNL     1      -1.209  11.633  20.910  0.00  0.00    +0.000 A 
ATOM     28  C   UNL     1      -1.276  11.386  22.278  0.00  0.00    +0.000 A 
ATOM     29 CL   UNL     1      -2.259  12.377  23.281  0.00  0.00    +0.000 Cl
ATOM     30  C   UNL     1      -0.547  10.342  22.837  0.00  0.00    +0.000 A 
ATOM     31  C   UNL     1       0.250   9.534  22.019  0.00  0.00    +0.000 A 
ENDBRANCH  23  25
ENDBRANCH  17  20
ENDBRANCH   1  17
TORSDOF 7
ENDMDL
MODEL 6
REMARK VINA RESULT:      -8.3      5.431     10.259
REMARK  Name = 
REMARK  8 active torsions:
REMARK  status: ('A' for Active; 'I' for Inactive)
REMARK    1  A    between atoms: C_1  and  C_2
REMARK    2  A    between atoms: C_3  and  C_4
REMARK    3  A    between atoms: C_10  and  N_11
REMARK    4  A    between atoms: C_10  and  C_27
REMARK    5  A    between atoms: N_11  and  S_12
REMARK    6  A    between atoms: S_12  and  C_15
REMARK    7  A    between atoms: C_18  and  C_19
REMARK    8  A    between atoms: C_27  and  O_29
REMARK                            x       y       z     vdW  Elec       q    Type
REMARK                         _______ _______ _______ _____ _____    ______ ____
ROOT
ATOM      1  N   UNL     1      -0.836  10.873  20.093  0.00  0.00    +0.000 NA
ATOM      2  H   UNL     1      -1.222   9.978  20.416  0.00  0.00    +0.000 HD
ENDROOT
BRANCH   1   6
ATOM      3  C   UNL     1      -1.559   9.618  16.984  0.00  0.00    +0.000 C 
ATOM      4  C   UNL     1      -2.003  10.886  17.601  0.00  0.00    +0.000 C 
ATOM      5  C   UNL     1      -3.029  10.909  18.712  0.00  0.00    +0.000 C 
ATOM      6  C   UNL     1      -1.620  11.456  18.957  0.00  0.00    +0.000 C 
BRANCH   5   7
ATOM      7  C   UNL     1      -4.286  11.722  18.509  0.00  0.00    +0.000 A 
ATOM      8  C   UNL     1      -4.863  12.395  19.602  0.00  0.00    +0.000 A 
ATOM      9  C   UNL     1      -6.005  13.185  19.458  0.00  0.00    +0.000 A 
ATOM     10  C   UNL     1      -6.596  13.326  18.208  0.00  0.00    +0.000 A 
ATOM     11  C   UNL     1      -6.033  12.690  17.105  0.00  0.00    +0.000 A 
ATOM     12  C   UNL     1      -4.883  11.908  17.253  0.00  0.00    +0.000 A 
ENDBRANCH   5   7
BRANCH   6  13
ATOM     13  C   UNL     1      -1.274  12.942  18.904  0.00  0.00    +0.000 C 
ATOM     14  O   UNL     1      -1.474  13.735  19.812  0.00  0.00    +0.000 OA
BRANCH  13  15
ATOM     15  O   UNL     1      -0.744  13.316  17.709  0.00  0.00    +0.000 OA
ATOM     16  H   UNL     1       0.025  12.737  17.515  0.00  0.00    +0.000 HD
ENDBRANCH  13  15
ENDBRANCH   6  13
ENDBRANCH   1   6
BRANCH   1  17
ATOM     17  S   UNL     1       0.833  10.848  20.249  0.00  0.00    +0.000 S 
ATOM     18  O   UNL     1       1.395  12.082  19.761  0.00  0.00    +0.000 OA
ATOM     19  O   UNL     1       1.076  10.417  21.612  0.00  0.00    +0.000 OA
BRANCH  17  20
ATOM     20  C   UNL     1       1.488   9.546  19.233  0.00  0.00    +0.000 A 
ATOM     21  C   UNL     1       1.999   9.515  17.951  0.00  0.00    +0.000 A 
ATOM     22  C   UNL     1       2.417   8.209  17.565  0.00  0.00    +0.000 A 
ATOM     23  C   UNL     1       2.268   7.276  18.576  0.00  0.00    +0.000 A 
ATOM     24  S   UNL     1       1.496   7.987  19.937  0.00  0.00    +0.000 S 
BRANCH  23  25
ATOM     25  C   UNL     1       2.659   5.854  18.577  0.00  0.00    +0.000 A 
ATOM     26  C   UNL     1       1.921   4.879  17.883  0.00  0.00    +0.000 A 
ATOM     27  C   UNL     1       2.291   3.530  17.925  0.00  0.00    +0.000 A 
ATOM     28  C   UNL     1       3.401   3.138  18.668  0.00  0.00    +0.000 A 
ATOM     29 CL   UNL     1       3.856   1.482  18.721  0.00  0.00    +0.000 Cl
ATOM     30  C   UNL     1       4.141   4.083  19.371  0.00  0.00    +0.000 A 
ATOM     31  C   UNL     1       3.771   5.432  19.324  0.00  0.00    +0.000 A 
ENDBRANCH  23  25
ENDBRANCH  17  20
ENDBRANCH   1  17
TORSDOF 7
ENDMDL
MODEL 7
REMARK VINA RESULT:      -8.2      1.071      1.853
REMARK  Name = 
REMARK  8 active torsions:
REMARK  status: ('A' for Active; 'I' for Inactive)
REMARK    1  A    between atoms: C_1  and  C_2
REMARK    2  A    between atoms: C_3  and  C_4
REMARK    3  A    between atoms: C_10  and  N_11
REMARK    4  A    between atoms: C_10  and  C_27
REMARK    5  A    between atoms: N_11  and  S_12
REMARK    6  A    between atoms: S_12  and  C_15
REMARK    7  A    between atoms: C_18  and  C_19
REMARK    8  A    between atoms: C_27  and  O_29
REMARK                            x       y       z     vdW  Elec       q    Type
REMARK                         _______ _______ _______ _____ _____    ______ ____
ROOT
ATOM      1  N   UNL     1       3.880   5.178  17.348  0.00  0.00    +0.000 NA
ATOM      2  H   UNL     1       3.455   4.275  17.110  0.00  0.00    +0.000 HD
ENDROOT
BRANCH   1   6
ATOM      3  C   UNL     1       7.064   4.128  18.072  0.00  0.00    +0.000 C 
ATOM      4  C   UNL     1       6.580   4.893  16.903  0.00  0.00    +0.000 C 
ATOM      5  C   UNL     1       5.751   4.242  15.818  0.00  0.00    +0.000 C 
ATOM      6  C   UNL     1       5.175   5.405  16.630  0.00  0.00    +0.000 C 
BRANCH   5   7
ATOM      7  C   UNL     1       6.257   4.302  14.397  0.00  0.00    +0.000 A 
ATOM      8  C   UNL     1       7.383   5.091  14.092  0.00  0.00    +0.000 A 
ATOM      9  C   UNL     1       7.909   5.154  12.800  0.00  0.00    +0.000 A 
ATOM     10  C   UNL     1       7.321   4.418  11.778  0.00  0.00    +0.000 A 
ATOM     11  C   UNL     1       6.221   3.610  12.055  0.00  0.00    +0.000 A 
ATOM     12  C   UNL     1       5.705   3.544  13.353  0.00  0.00    +0.000 A 
ENDBRANCH   5   7
BRANCH   6  13
ATOM     13  C   UNL     1       5.152   6.848  16.131  0.00  0.00    +0.000 C 
ATOM     14  O   UNL     1       4.547   7.231  15.142  0.00  0.00    +0.000 OA
BRANCH  13  15
ATOM     15  O   UNL     1       5.918   7.678  16.889  0.00  0.00    +0.000 OA
ATOM     16  H   UNL     1       5.560   8.590  16.809  0.00  0.00    +0.000 HD
ENDBRANCH  13  15
ENDBRANCH   6  13
ENDBRANCH   1   6
BRANCH   1  17
ATOM     17  S   UNL     1       3.543   5.549  18.948  0.00  0.00    +0.000 S 
ATOM     18  O   UNL     1       2.710   4.526  19.529  0.00  0.00    +0.000 OA
ATOM     19  O   UNL     1       4.827   5.874  19.536  0.00  0.00    +0.000 OA
BRANCH  17  20
ATOM     20  C   UNL     1       2.615   7.062  19.006  0.00  0.00    +0.000 A 
ATOM     21  C   UNL     1       2.295   8.011  18.055  0.00  0.00    +0.000 A 
ATOM     22  C   UNL     1       1.504   9.069  18.589  0.00  0.00    +0.000 A 
ATOM     23  C   UNL     1       1.190   8.885  19.925  0.00  0.00    +0.000 A 
ATOM     24  S   UNL     1       1.979   7.486  20.536  0.00  0.00    +0.000 S 
BRANCH  23  25
ATOM     25  C   UNL     1       0.336   9.719  20.789  0.00  0.00    +0.000 A 
ATOM     26  C   UNL     1       0.074   9.379  22.128  0.00  0.00    +0.000 A 
ATOM     27  C   UNL     1      -0.767  10.167  22.921  0.00  0.00    +0.000 A 
ATOM     28  C   UNL     1      -1.363  11.303  22.382  0.00  0.00    +0.000 A 
ATOM     29 CL   UNL     1      -2.398  12.273  23.354  0.00  0.00    +0.000 Cl
ATOM     30  C   UNL     1      -1.128  11.655  21.057  0.00  0.00    +0.000 A 
ATOM     31  C   UNL     1      -0.283  10.867  20.267  0.00  0.00    +0.000 A 
ENDBRANCH  23  25
ENDBRANCH  17  20
ENDBRANCH   1  17
TORSDOF 7
ENDMDL
MODEL 8
REMARK VINA RESULT:      -8.1      4.466     10.067
REMARK  Name = 
REMARK  8 active torsions:
REMARK  status: ('A' for Active; 'I' for Inactive)
REMARK    1  A    between atoms: C_1  and  C_2
REMARK    2  A    between atoms: C_3  and  C_4
REMARK    3  A    between atoms: C_10  and  N_11
REMARK    4  A    between atoms: C_10  and  C_27
REMARK    5  A    between atoms: N_11  and  S_12
REMARK    6  A    between atoms: S_12  and  C_15
REMARK    7  A    between atoms: C_18  and  C_19
REMARK    8  A    between atoms: C_27  and  O_29
REMARK                            x       y       z     vdW  Elec       q    Type
REMARK                         _______ _______ _______ _____ _____    ______ ____
ROOT
ATOM      1  N   UNL     1       0.764   9.949  20.258  0.00  0.00    +0.000 NA
ATOM      2  H   UNL     1       1.736  10.221  20.069  0.00  0.00    +0.000 HD
ENDROOT
BRANCH   1   6
ATOM      3  C   UNL     1      -1.011  11.400  22.809  0.00  0.00    +0.000 C 
ATOM      4  C   UNL     1      -0.908  11.816  21.393  0.00  0.00    +0.000 C 
ATOM      5  C   UNL     1       0.354  12.441  20.841  0.00  0.00    +0.000 C 
ATOM      6  C   UNL     1      -0.167  11.123  20.262  0.00  0.00    +0.000 C 
BRANCH   5   7
ATOM      7  C   UNL     1       0.256  13.805  20.201  0.00  0.00    +0.000 A 
ATOM      8  C   UNL     1       1.319  14.280  19.409  0.00  0.00    +0.000 A 
ATOM      9  C   UNL     1       1.262  15.520  18.770  0.00  0.00    +0.000 A 
ATOM     10  C   UNL     1       0.131  16.315  18.904  0.00  0.00    +0.000 A 
ATOM     11  C   UNL     1      -0.945  15.861  19.662  0.00  0.00    +0.000 A 
ATOM     12  C   UNL     1      -0.887  14.614  20.291  0.00  0.00    +0.000 A 
ENDBRANCH   5   7
BRANCH   6  13
ATOM     13  C   UNL     1      -0.987  11.035  18.977  0.00  0.00    +0.000 C 
ATOM     14  O   UNL     1      -2.182  11.274  18.898  0.00  0.00    +0.000 OA
BRANCH  13  15
ATOM     15  O   UNL     1      -0.251  10.621  17.911  0.00  0.00    +0.000 OA
ATOM     16  H   UNL     1      -0.569  11.094  17.111  0.00  0.00    +0.000 HD
ENDBRANCH  13  15
ENDBRANCH   6  13
ENDBRANCH   1   6
BRANCH   1  17
ATOM     17  S   UNL     1       0.746   8.653  21.321  0.00  0.00    +0.000 S 
ATOM     18  O   UNL     1       1.485   8.980  22.515  0.00  0.00    +0.000 OA
ATOM     19  O   UNL     1      -0.646   8.255  21.403  0.00  0.00    +0.000 OA
BRANCH  17  20
ATOM     20  C   UNL     1       1.573   7.275  20.565  0.00  0.00    +0.000 A 
ATOM     21  C   UNL     1       1.629   5.928  20.861  0.00  0.00    +0.000 A 
ATOM     22  C   UNL     1       2.434   5.201  19.938  0.00  0.00    +0.000 A 
ATOM     23  C   UNL     1       2.937   5.996  18.922  0.00  0.00    +0.000 A 
ATOM     24  S   UNL     1       2.523   7.642  19.190  0.00  0.00    +0.000 S 
BRANCH  23  25
ATOM     25  C   UNL     1       3.739   5.591  17.753  0.00  0.00    +0.000 A 
ATOM     26  C   UNL     1       3.855   4.246  17.359  0.00  0.00    +0.000 A 
ATOM     27  C   UNL     1       4.649   3.881  16.267  0.00  0.00    +0.000 A 
ATOM     28  C   UNL     1       5.344   4.856  15.558  0.00  0.00    +0.000 A 
ATOM     29 CL   UNL     1       6.321   4.409  14.216  0.00  0.00    +0.000 Cl
ATOM     30  C   UNL     1       5.253   6.192  15.934  0.00  0.00    +0.000 A 
ATOM     31  C   UNL     1       4.455   6.555  17.025  0.00  0.00    +0.000 A 
ENDBRANCH  23  25
ENDBRANCH  17  20
ENDBRANCH   1  17
TORSDOF 7
ENDMDL
MODEL 9
REMARK VINA RESULT:      -8.0      4.450      9.955
REMARK  Name = 
REMARK  8 active torsions:
REMARK  status: ('A' for Active; 'I' for Inactive)
REMARK    1  A    between atoms: C_1  and  C_2
REMARK    2  A    between atoms: C_3  and  C_4
REMARK    3  A    between atoms: C_10  and  N_11
REMARK    4  A    between atoms: C_10  and  C_27
REMARK    5  A    between atoms: N_11  and  S_12
REMARK    6  A    between atoms: S_12  and  C_15
REMARK    7  A    between atoms: C_18  and  C_19
REMARK    8  A    between atoms: C_27  and  O_29
REMARK                            x       y       z     vdW  Elec       q    Type
REMARK                         _______ _______ _______ _____ _____    ______ ____
ROOT
ATOM      1  N   UNL     1       1.011  10.045  20.280  0.00  0.00    +0.000 NA
ATOM      2  H   UNL     1       1.999  10.322  20.264  0.00  0.00    +0.000 HD
ENDROOT
BRANCH   1   6
ATOM      3  C   UNL     1      -0.851  11.667  22.661  0.00  0.00    +0.000 C 
ATOM      4  C   UNL     1      -0.692  11.988  21.227  0.00  0.00    +0.000 C 
ATOM      5  C   UNL     1       0.594  12.571  20.684  0.00  0.00    +0.000 C 
ATOM      6  C   UNL     1       0.087  11.220  20.172  0.00  0.00    +0.000 C 
BRANCH   5   7
ATOM      7  C   UNL     1       0.528  13.891  19.952  0.00  0.00    +0.000 A 
ATOM      8  C   UNL     1      -0.688  14.599  19.902  0.00  0.00    +0.000 A 
ATOM      9  C   UNL     1      -0.792  15.837  19.267  0.00  0.00    +0.000 A 
ATOM     10  C   UNL     1       0.327  16.404  18.669  0.00  0.00    +0.000 A 
ATOM     11  C   UNL     1       1.549  15.737  18.723  0.00  0.00    +0.000 A 
ATOM     12  C   UNL     1       1.649  14.501  19.370  0.00  0.00    +0.000 A 
ENDBRANCH   5   7
BRANCH   6  13
ATOM     13  C   UNL     1      -0.684  11.051  18.865  0.00  0.00    +0.000 C 
ATOM     14  O   UNL     1      -1.888  11.215  18.743  0.00  0.00    +0.000 OA
BRANCH  13  15
ATOM     15  O   UNL     1       0.109  10.656  17.834  0.00  0.00    +0.000 OA
ATOM     16  H   UNL     1       0.895  10.197  18.204  0.00  0.00    +0.000 HD
ENDBRANCH  13  15
ENDBRANCH   6  13
ENDBRANCH   1   6
BRANCH   1  17
ATOM     17  S   UNL     1       0.823   8.712  21.279  0.00  0.00    +0.000 S 
ATOM     18  O   UNL     1       1.476   8.943  22.543  0.00  0.00    +0.000 OA
ATOM     19  O   UNL     1      -0.593   8.402  21.229  0.00  0.00    +0.000 OA
BRANCH  17  20
ATOM     20  C   UNL     1       1.625   7.314  20.533  0.00  0.00    +0.000 A 
ATOM     21  C   UNL     1       1.630   5.964  20.819  0.00  0.00    +0.000 A 
ATOM     22  C   UNL     1       2.435   5.219  19.910  0.00  0.00    +0.000 A 
ATOM     23  C   UNL     1       2.989   6.005  18.915  0.00  0.00    +0.000 A 
ATOM     24  S   UNL     1       2.621   7.661  19.186  0.00  0.00    +0.000 S 
BRANCH  23  25
ATOM     25  C   UNL     1       3.809   5.583  17.763  0.00  0.00    +0.000 A 
ATOM     26  C   UNL     1       4.493   6.510  16.957  0.00  0.00    +0.000 A 
ATOM     27  C   UNL     1       5.237   6.091  15.850  0.00  0.00    +0.000 A 
ATOM     28  C   UNL     1       5.301   4.738  15.529  0.00  0.00    +0.000 A 
ATOM     29 CL   UNL     1       6.214   4.221  14.168  0.00  0.00    +0.000 Cl
ATOM     30  C   UNL     1       4.625   3.803  16.305  0.00  0.00    +0.000 A 
ATOM     31  C   UNL     1       3.884   4.224  17.415  0.00  0.00    +0.000 A 
ENDBRANCH  23  25
ENDBRANCH  17  20
ENDBRANCH   1  17
TORSDOF 7
ENDMDL
