MODEL 1
REMARK VINA RESULT:      -6.2      0.000      0.000
REMARK  Name = 
REMARK  9 active torsions:
REMARK  status: ('A' for Active; 'I' for Inactive)
REMARK    1  A    between atoms: C_1  and  C_2
REMARK    2  A    between atoms: C_2  and  C_3
REMARK    3  A    between atoms: C_7  and  C_8
REMARK    4  A    between atoms: C_8  and  C_9
REMARK    5  A    between atoms: C_8  and  C_19
REMARK    6  A    between atoms: C_10  and  O_11
REMARK    7  A    between atoms: C_13  and  C_14
REMARK    8  A    between atoms: C_13  and  C_15
REMARK    9  A    between atoms: C_23  and  O_24
REMARK                            x       y       z     vdW  Elec       q    Type
REMARK                         _______ _______ _______ _____ _____    ______ ____
ROOT
ATOM      1  C   UNL     1      -0.845  12.265  20.365  0.00  0.00    +0.000 C 
ENDROOT
BRANCH   1   8
ATOM      2  C   UNL     1       1.396  16.646  20.797  0.00  0.00    +0.000 C 
ATOM      3  C   UNL     1       0.179  15.880  21.350  0.00  0.00    +0.000 C 
ATOM      4  C   UNL     1      -0.553  16.780  22.360  0.00  0.00    +0.000 C 
ATOM      5  C   UNL     1      -0.792  15.537  20.205  0.00  0.00    +0.000 C 
ATOM      6  C   UNL     1      -0.245  14.463  19.285  0.00  0.00    +0.000 C 
ATOM      7  O   UNL     1      -0.340  14.567  18.064  0.00  0.00    +0.000 OA
ATOM      8  C   UNL     1       0.314  13.206  19.933  0.00  0.00    +0.000 C 
ATOM      9  C   UNL     1       1.195  13.601  21.099  0.00  0.00    +0.000 C 
ATOM     10  O   UNL     1       2.316  13.113  21.250  0.00  0.00    +0.000 OA
ATOM     11  C   UNL     1       0.638  14.605  22.079  0.00  0.00    +0.000 C 
ENDBRANCH   1   8
BRANCH   1  12
ATOM     12  C   UNL     1      -1.605  11.739  19.132  0.00  0.00    +0.000 C 
ATOM     13  C   UNL     1      -1.072  11.145  18.042  0.00  0.00    +0.000 C 
ATOM     14  C   UNL     1      -1.840  10.755  16.810  0.00  0.00    +0.000 C 
ATOM     15  C   UNL     1      -3.348  10.588  17.034  0.00  0.00    +0.000 C 
ATOM     16  C   UNL     1      -4.034  10.511  15.656  0.00  0.00    +0.000 C 
ATOM     17  C   UNL     1      -3.656   9.286  17.800  0.00  0.00    +0.000 C 
ATOM     18  C   UNL     1      -3.864  11.803  17.814  0.00  0.00    +0.000 C 
ATOM     19  C   UNL     1      -3.075  12.070  19.085  0.00  0.00    +0.000 C 
ATOM     20  O   UNL     1      -3.609  12.631  20.044  0.00  0.00    +0.000 OA
BRANCH  13  21
ATOM     21  O   UNL     1       0.267  10.847  17.905  0.00  0.00    +0.000 OA
ATOM     22  H   UNL     1       0.758  11.643  17.663  0.00  0.00    +0.000 HD
ENDBRANCH  13  21
ENDBRANCH   1  12
BRANCH   1  23
ATOM     23  C   UNL     1      -0.491  11.127  21.329  0.00  0.00    +0.000 A 
ATOM     24  C   UNL     1      -1.040  11.009  22.617  0.00  0.00    +0.000 A 
ATOM     25  C   UNL     1      -0.595  10.028  23.506  0.00  0.00    +0.000 A 
ATOM     26  C   UNL     1       0.376   9.113  23.111  0.00  0.00    +0.000 A 
ATOM     27  C   UNL     1       0.880   9.176  21.818  0.00  0.00    +0.000 A 
ATOM     28  C   UNL     1       0.461  10.168  20.933  0.00  0.00    +0.000 A 
BRANCH  27  29
ATOM     29  O   UNL     1       1.809   8.280  21.380  0.00  0.00    +0.000 OA
ATOM     30  H   UNL     1       1.758   7.485  21.935  0.00  0.00    +0.000 HD
ENDBRANCH  27  29
ENDBRANCH   1  23
TORSDOF 5
ENDMDL
MODEL 2
REMARK VINA RESULT:      -6.0      2.471      5.475
REMARK  Name = 
REMARK  9 active torsions:
REMARK  status: ('A' for Active; 'I' for Inactive)
REMARK    1  A    between atoms: C_1  and  C_2
REMARK    2  A    between atoms: C_2  and  C_3
REMARK    3  A    between atoms: C_7  and  C_8
REMARK    4  A    between atoms: C_8  and  C_9
REMARK    5  A    between atoms: C_8  and  C_19
REMARK    6  A    between atoms: C_10  and  O_11
REMARK    7  A    between atoms: C_13  and  C_14
REMARK    8  A    between atoms: C_13  and  C_15
REMARK    9  A    between atoms: C_23  and  O_24
REMARK                            x       y       z     vdW  Elec       q    Type
REMARK                         _______ _______ _______ _____ _____    ______ ____
ROOT
ATOM      1  C   UNL     1      -0.561  13.519  20.509  0.00  0.00    +0.000 C 
ENDROOT
BRANCH   1   8
ATOM      2  C   UNL     1      -3.219  13.868  24.658  0.00  0.00    +0.000 C 
ATOM      3  C   UNL     1      -3.323  14.194  23.156  0.00  0.00    +0.000 C 
ATOM      4  C   UNL     1      -4.700  14.820  22.880  0.00  0.00    +0.000 C 
ATOM      5  C   UNL     1      -2.235  15.210  22.761  0.00  0.00    +0.000 C 
ATOM      6  C   UNL     1      -0.845  14.602  22.768  0.00  0.00    +0.000 C 
ATOM      7  O   UNL     1       0.106  15.205  23.258  0.00  0.00    +0.000 OA
ATOM      8  C   UNL     1      -0.658  13.280  22.042  0.00  0.00    +0.000 C 
ATOM      9  C   UNL     1      -1.797  12.351  22.405  0.00  0.00    +0.000 C 
ATOM     10  O   UNL     1      -1.591  11.184  22.742  0.00  0.00    +0.000 OA
ATOM     11  C   UNL     1      -3.197  12.907  22.322  0.00  0.00    +0.000 C 
ENDBRANCH   1   8
BRANCH   1  12
ATOM     12  C   UNL     1       0.745  14.256  20.157  0.00  0.00    +0.000 C 
ATOM     13  C   UNL     1       1.990  13.949  20.582  0.00  0.00    +0.000 C 
ATOM     14  C   UNL     1       3.221  14.768  20.308  0.00  0.00    +0.000 C 
ATOM     15  C   UNL     1       3.102  15.698  19.093  0.00  0.00    +0.000 C 
ATOM     16  C   UNL     1       4.283  16.687  19.127  0.00  0.00    +0.000 C 
ATOM     17  C   UNL     1       3.176  14.902  17.775  0.00  0.00    +0.000 C 
ATOM     18  C   UNL     1       1.774  16.457  19.187  0.00  0.00    +0.000 C 
ATOM     19  C   UNL     1       0.579  15.540  19.384  0.00  0.00    +0.000 C 
ATOM     20  O   UNL     1      -0.539  15.878  18.989  0.00  0.00    +0.000 OA
BRANCH  13  21
ATOM     21  O   UNL     1       2.290  12.852  21.359  0.00  0.00    +0.000 OA
ATOM     22  H   UNL     1       2.458  13.128  22.270  0.00  0.00    +0.000 HD
ENDBRANCH  13  21
ENDBRANCH   1  12
BRANCH   1  23
ATOM     23  C   UNL     1      -0.777  12.301  19.603  0.00  0.00    +0.000 A 
ATOM     24  C   UNL     1      -0.023  11.120  19.708  0.00  0.00    +0.000 A 
ATOM     25  C   UNL     1      -0.169  10.084  18.783  0.00  0.00    +0.000 A 
ATOM     26  C   UNL     1      -1.105  10.186  17.759  0.00  0.00    +0.000 A 
ATOM     27  C   UNL     1      -1.903  11.320  17.681  0.00  0.00    +0.000 A 
ATOM     28  C   UNL     1      -1.746  12.370  18.584  0.00  0.00    +0.000 A 
BRANCH  27  29
ATOM     29  O   UNL     1      -2.854  11.448  16.713  0.00  0.00    +0.000 OA
ATOM     30  H   UNL     1      -2.421  11.727  15.889  0.00  0.00    +0.000 HD
ENDBRANCH  27  29
ENDBRANCH   1  23
TORSDOF 5
ENDMDL
MODEL 3
REMARK VINA RESULT:      -5.9      6.315      9.613
REMARK  Name = 
REMARK  9 active torsions:
REMARK  status: ('A' for Active; 'I' for Inactive)
REMARK    1  A    between atoms: C_1  and  C_2
REMARK    2  A    between atoms: C_2  and  C_3
REMARK    3  A    between atoms: C_7  and  C_8
REMARK    4  A    between atoms: C_8  and  C_9
REMARK    5  A    between atoms: C_8  and  C_19
REMARK    6  A    between atoms: C_10  and  O_11
REMARK    7  A    between atoms: C_13  and  C_14
REMARK    8  A    between atoms: C_13  and  C_15
REMARK    9  A    between atoms: C_23  and  O_24
REMARK                            x       y       z     vdW  Elec       q    Type
REMARK                         _______ _______ _______ _____ _____    ______ ____
ROOT
ATOM      1  C   UNL     1       3.157   6.022  17.942  0.00  0.00    +0.000 C 
ENDROOT
BRANCH   1   8
ATOM      2  C   UNL     1       7.262   4.777  15.491  0.00  0.00    +0.000 C 
ATOM      3  C   UNL     1       5.730   4.751  15.324  0.00  0.00    +0.000 C 
ATOM      4  C   UNL     1       5.393   4.150  13.949  0.00  0.00    +0.000 C 
ATOM      5  C   UNL     1       5.096   3.868  16.415  0.00  0.00    +0.000 C 
ATOM      6  C   UNL     1       5.166   4.505  17.789  0.00  0.00    +0.000 C 
ATOM      7  O   UNL     1       5.486   3.847  18.776  0.00  0.00    +0.000 OA
ATOM      8  C   UNL     1       4.710   5.950  17.912  0.00  0.00    +0.000 C 
ATOM      9  C   UNL     1       5.297   6.753  16.771  0.00  0.00    +0.000 C 
ATOM     10  O   UNL     1       5.850   7.836  16.967  0.00  0.00    +0.000 OA
ATOM     11  C   UNL     1       5.164   6.181  15.381  0.00  0.00    +0.000 C 
ENDBRANCH   1   8
BRANCH   1  12
ATOM     12  C   UNL     1       2.583   4.948  18.887  0.00  0.00    +0.000 C 
ATOM     13  C   UNL     1       1.643   4.025  18.591  0.00  0.00    +0.000 C 
ATOM     14  C   UNL     1       1.027   3.073  19.579  0.00  0.00    +0.000 C 
ATOM     15  C   UNL     1       1.872   2.838  20.837  0.00  0.00    +0.000 C 
ATOM     16  C   UNL     1       0.993   2.119  21.879  0.00  0.00    +0.000 C 
ATOM     17  C   UNL     1       3.088   1.941  20.531  0.00  0.00    +0.000 C 
ATOM     18  C   UNL     1       2.330   4.196  21.380  0.00  0.00    +0.000 C 
ATOM     19  C   UNL     1       3.013   5.054  20.328  0.00  0.00    +0.000 C 
ATOM     20  O   UNL     1       3.853   5.895  20.658  0.00  0.00    +0.000 OA
BRANCH  13  21
ATOM     21  O   UNL     1       1.097   3.856  17.337  0.00  0.00    +0.000 OA
ATOM     22  H   UNL     1       1.279   4.632  16.791  0.00  0.00    +0.000 HD
ENDBRANCH  13  21
ENDBRANCH   1  12
BRANCH   1  23
ATOM     23  C   UNL     1       2.532   7.395  18.214  0.00  0.00    +0.000 A 
ATOM     24  C   UNL     1       2.589   8.461  17.300  0.00  0.00    +0.000 A 
ATOM     25  C   UNL     1       2.115   9.730  17.640  0.00  0.00    +0.000 A 
ATOM     26  C   UNL     1       1.531   9.951  18.883  0.00  0.00    +0.000 A 
ATOM     27  C   UNL     1       1.408   8.890  19.771  0.00  0.00    +0.000 A 
ATOM     28  C   UNL     1       1.902   7.627  19.451  0.00  0.00    +0.000 A 
BRANCH  27  29
ATOM     29  O   UNL     1       0.815   9.054  20.987  0.00  0.00    +0.000 OA
ATOM     30  H   UNL     1       0.269   8.273  21.174  0.00  0.00    +0.000 HD
ENDBRANCH  27  29
ENDBRANCH   1  23
TORSDOF 5
ENDMDL
MODEL 4
REMARK VINA RESULT:      -5.8      3.069      6.459
REMARK  Name = 
REMARK  9 active torsions:
REMARK  status: ('A' for Active; 'I' for Inactive)
REMARK    1  A    between atoms: C_1  and  C_2
REMARK    2  A    between atoms: C_2  and  C_3
REMARK    3  A    between atoms: C_7  and  C_8
REMARK    4  A    between atoms: C_8  and  C_9
REMARK    5  A    between atoms: C_8  and  C_19
REMARK    6  A    between atoms: C_10  and  O_11
REMARK    7  A    between atoms: C_13  and  C_14
REMARK    8  A    between atoms: C_13  and  C_15
REMARK    9  A    between atoms: C_23  and  O_24
REMARK                            x       y       z     vdW  Elec       q    Type
REMARK                         _______ _______ _______ _____ _____    ______ ____
ROOT
ATOM      1  C   UNL     1      -3.536  12.555  20.545  0.00  0.00    +0.000 C 
ENDROOT
BRANCH   1   8
ATOM      2  C   UNL     1       1.100  11.243  19.456  0.00  0.00    +0.000 C 
ATOM      3  C   UNL     1      -0.106  10.753  20.281  0.00  0.00    +0.000 C 
ATOM      4  C   UNL     1       0.273   9.432  20.971  0.00  0.00    +0.000 C 
ATOM      5  C   UNL     1      -0.458  11.789  21.365  0.00  0.00    +0.000 C 
ATOM      6  C   UNL     1      -1.075  13.047  20.783  0.00  0.00    +0.000 C 
ATOM      7  O   UNL     1      -0.730  14.160  21.175  0.00  0.00    +0.000 OA
ATOM      8  C   UNL     1      -2.214  12.873  19.792  0.00  0.00    +0.000 C 
ATOM      9  C   UNL     1      -1.846  11.788  18.802  0.00  0.00    +0.000 C 
ATOM     10  O   UNL     1      -1.989  11.952  17.589  0.00  0.00    +0.000 OA
ATOM     11  C   UNL     1      -1.311  10.493  19.360  0.00  0.00    +0.000 C 
ENDBRANCH   1   8
BRANCH   1  12
ATOM     12  C   UNL     1      -3.844  13.650  21.586  0.00  0.00    +0.000 C 
ATOM     13  C   UNL     1      -4.029  14.967  21.349  0.00  0.00    +0.000 C 
ATOM     14  C   UNL     1      -4.209  16.016  22.409  0.00  0.00    +0.000 C 
ATOM     15  C   UNL     1      -4.687  15.471  23.761  0.00  0.00    +0.000 C 
ATOM     16  C   UNL     1      -4.517  16.583  24.815  0.00  0.00    +0.000 C 
ATOM     17  C   UNL     1      -6.177  15.081  23.708  0.00  0.00    +0.000 C 
ATOM     18  C   UNL     1      -3.827  14.257  24.130  0.00  0.00    +0.000 C 
ATOM     19  C   UNL     1      -3.771  13.214  23.027  0.00  0.00    +0.000 C 
ATOM     20  O   UNL     1      -3.582  12.027  23.301  0.00  0.00    +0.000 OA
BRANCH  13  21
ATOM     21  O   UNL     1      -4.045  15.528  20.090  0.00  0.00    +0.000 OA
ATOM     22  H   UNL     1      -4.797  15.187  19.587  0.00  0.00    +0.000 HD
ENDBRANCH  13  21
ENDBRANCH   1  12
BRANCH   1  23
ATOM     23  C   UNL     1      -4.766  12.243  19.684  0.00  0.00    +0.000 A 
ATOM     24  C   UNL     1      -4.953  12.761  18.391  0.00  0.00    +0.000 A 
ATOM     25  C   UNL     1      -6.144  12.550  17.694  0.00  0.00    +0.000 A 
ATOM     26  C   UNL     1      -7.157  11.779  18.253  0.00  0.00    +0.000 A 
ATOM     27  C   UNL     1      -6.961  11.206  19.504  0.00  0.00    +0.000 A 
ATOM     28  C   UNL     1      -5.786  11.432  20.218  0.00  0.00    +0.000 A 
BRANCH  27  29
ATOM     29  O   UNL     1      -7.914  10.418  20.075  0.00  0.00    +0.000 OA
ATOM     30  H   UNL     1      -7.727  10.344  21.025  0.00  0.00    +0.000 HD
ENDBRANCH  27  29
ENDBRANCH   1  23
TORSDOF 5
ENDMDL
MODEL 5
REMARK VINA RESULT:      -5.8      2.434      5.335
REMARK  Name = 
REMARK  9 active torsions:
REMARK  status: ('A' for Active; 'I' for Inactive)
REMARK    1  A    between atoms: C_1  and  C_2
REMARK    2  A    between atoms: C_2  and  C_3
REMARK    3  A    between atoms: C_7  and  C_8
REMARK    4  A    between atoms: C_8  and  C_9
REMARK    5  A    between atoms: C_8  and  C_19
REMARK    6  A    between atoms: C_10  and  O_11
REMARK    7  A    between atoms: C_13  and  C_14
REMARK    8  A    between atoms: C_13  and  C_15
REMARK    9  A    between atoms: C_23  and  O_24
REMARK                            x       y       z     vdW  Elec       q    Type
REMARK                         _______ _______ _______ _____ _____    ______ ____
ROOT
ATOM      1  C   UNL     1      -0.331  13.521  20.314  0.00  0.00    +0.000 C 
ENDROOT
BRANCH   1   8
ATOM      2  C   UNL     1      -3.156  13.647  24.365  0.00  0.00    +0.000 C 
ATOM      3  C   UNL     1      -3.226  13.981  22.862  0.00  0.00    +0.000 C 
ATOM      4  C   UNL     1      -4.632  14.516  22.540  0.00  0.00    +0.000 C 
ATOM      5  C   UNL     1      -2.196  15.072  22.516  0.00  0.00    +0.000 C 
ATOM      6  C   UNL     1      -0.770  14.558  22.569  0.00  0.00    +0.000 C 
ATOM      7  O   UNL     1       0.121  15.219  23.099  0.00  0.00    +0.000 OA
ATOM      8  C   UNL     1      -0.467  13.259  21.840  0.00  0.00    +0.000 C 
ATOM      9  C   UNL     1      -1.553  12.252  22.153  0.00  0.00    +0.000 C 
ATOM     10  O   UNL     1      -1.281  11.099  22.488  0.00  0.00    +0.000 OA
ATOM     11  C   UNL     1      -2.984  12.714  22.023  0.00  0.00    +0.000 C 
ENDBRANCH   1   8
BRANCH   1  12
ATOM     12  C   UNL     1       0.970  14.290  20.010  0.00  0.00    +0.000 C 
ATOM     13  C   UNL     1       2.190  14.063  20.543  0.00  0.00    +0.000 C 
ATOM     14  C   UNL     1       3.405  14.915  20.305  0.00  0.00    +0.000 C 
ATOM     15  C   UNL     1       3.342  15.762  19.027  0.00  0.00    +0.000 C 
ATOM     16  C   UNL     1       4.479  16.800  19.082  0.00  0.00    +0.000 C 
ATOM     17  C   UNL     1       3.545  14.889  17.772  0.00  0.00    +0.000 C 
ATOM     18  C   UNL     1       1.983  16.468  18.976  0.00  0.00    +0.000 C 
ATOM     19  C   UNL     1       0.813  15.514  19.145  0.00  0.00    +0.000 C 
ATOM     20  O   UNL     1      -0.285  15.780  18.650  0.00  0.00    +0.000 OA
BRANCH  13  21
ATOM     21  O   UNL     1       2.473  13.030  21.409  0.00  0.00    +0.000 OA
ATOM     22  H   UNL     1       2.213  13.273  22.308  0.00  0.00    +0.000 HD
ENDBRANCH  13  21
ENDBRANCH   1  12
BRANCH   1  23
ATOM     23  C   UNL     1      -0.493  12.310  19.387  0.00  0.00    +0.000 A 
ATOM     24  C   UNL     1      -1.599  12.133  18.538  0.00  0.00    +0.000 A 
ATOM     25  C   UNL     1      -1.766  10.956  17.804  0.00  0.00    +0.000 A 
ATOM     26  C   UNL     1      -0.807   9.950  17.866  0.00  0.00    +0.000 A 
ATOM     27  C   UNL     1       0.324  10.140  18.650  0.00  0.00    +0.000 A 
ATOM     28  C   UNL     1       0.486  11.299  19.406  0.00  0.00    +0.000 A 
BRANCH  27  29
ATOM     29  O   UNL     1       1.303   9.193  18.714  0.00  0.00    +0.000 OA
ATOM     30  H   UNL     1       1.352   8.739  17.857  0.00  0.00    +0.000 HD
ENDBRANCH  27  29
ENDBRANCH   1  23
TORSDOF 5
ENDMDL
MODEL 6
REMARK VINA RESULT:      -5.8      2.680      5.063
REMARK  Name = 
REMARK  9 active torsions:
REMARK  status: ('A' for Active; 'I' for Inactive)
REMARK    1  A    between atoms: C_1  and  C_2
REMARK    2  A    between atoms: C_2  and  C_3
REMARK    3  A    between atoms: C_7  and  C_8
REMARK    4  A    between atoms: C_8  and  C_9
REMARK    5  A    between atoms: C_8  and  C_19
REMARK    6  A    between atoms: C_10  and  O_11
REMARK    7  A    between atoms: C_13  and  C_14
REMARK    8  A    between atoms: C_13  and  C_15
REMARK    9  A    between atoms: C_23  and  O_24
REMARK                            x       y       z     vdW  Elec       q    Type
REMARK                         _______ _______ _______ _____ _____    ______ ____
ROOT
ATOM      1  C   UNL     1      -1.227  12.927  20.929  0.00  0.00    +0.000 C 
ENDROOT
BRANCH   1   8
ATOM      2  C   UNL     1       2.802  14.804  18.771  0.00  0.00    +0.000 C 
ATOM      3  C   UNL     1       2.048  13.467  18.912  0.00  0.00    +0.000 C 
ATOM      4  C   UNL     1       2.803  12.390  18.114  0.00  0.00    +0.000 C 
ATOM      5  C   UNL     1       2.003  13.040  20.391  0.00  0.00    +0.000 C 
ATOM      6  C   UNL     1       1.076  13.913  21.216  0.00  0.00    +0.000 C 
ATOM      7  O   UNL     1       1.412  14.318  22.327  0.00  0.00    +0.000 OA
ATOM      8  C   UNL     1      -0.320  14.162  20.668  0.00  0.00    +0.000 C 
ATOM      9  C   UNL     1      -0.220  14.498  19.195  0.00  0.00    +0.000 C 
ATOM     10  O   UNL     1      -0.817  15.463  18.716  0.00  0.00    +0.000 OA
ATOM     11  C   UNL     1       0.627  13.593  18.335  0.00  0.00    +0.000 C 
ENDBRANCH   1   8
BRANCH   1  12
ATOM     12  C   UNL     1      -2.543  13.355  21.608  0.00  0.00    +0.000 C 
ATOM     13  C   UNL     1      -3.296  14.436  21.310  0.00  0.00    +0.000 C 
ATOM     14  C   UNL     1      -4.510  14.878  22.078  0.00  0.00    +0.000 C 
ATOM     15  C   UNL     1      -5.168  13.770  22.910  0.00  0.00    +0.000 C 
ATOM     16  C   UNL     1      -6.176  14.427  23.873  0.00  0.00    +0.000 C 
ATOM     17  C   UNL     1      -5.935  12.780  22.010  0.00  0.00    +0.000 C 
ATOM     18  C   UNL     1      -4.078  13.041  23.702  0.00  0.00    +0.000 C 
ATOM     19  C   UNL     1      -2.931  12.561  22.829  0.00  0.00    +0.000 C 
ATOM     20  O   UNL     1      -2.266  11.577  23.159  0.00  0.00    +0.000 OA
BRANCH  13  21
ATOM     21  O   UNL     1      -3.026  15.300  20.271  0.00  0.00    +0.000 OA
ATOM     22  H   UNL     1      -2.248  15.833  20.480  0.00  0.00    +0.000 HD
ENDBRANCH  13  21
ENDBRANCH   1  12
BRANCH   1  23
ATOM     23  C   UNL     1      -1.489  11.997  19.739  0.00  0.00    +0.000 A 
ATOM     24  C   UNL     1      -0.683  10.887  19.436  0.00  0.00    +0.000 A 
ATOM     25  C   UNL     1      -0.886  10.142  18.273  0.00  0.00    +0.000 A 
ATOM     26  C   UNL     1      -1.929  10.461  17.409  0.00  0.00    +0.000 A 
ATOM     27  C   UNL     1      -2.775  11.515  17.730  0.00  0.00    +0.000 A 
ATOM     28  C   UNL     1      -2.564  12.280  18.875  0.00  0.00    +0.000 A 
BRANCH  27  29
ATOM     29  O   UNL     1      -3.828  11.841  16.928  0.00  0.00    +0.000 OA
ATOM     30  H   UNL     1      -3.798  11.283  16.134  0.00  0.00    +0.000 HD
ENDBRANCH  27  29
ENDBRANCH   1  23
TORSDOF 5
ENDMDL
MODEL 7
REMARK VINA RESULT:      -5.6      1.568      2.134
REMARK  Name = 
REMARK  9 active torsions:
REMARK  status: ('A' for Active; 'I' for Inactive)
REMARK    1  A    between atoms: C_1  and  C_2
REMARK    2  A    between atoms: C_2  and  C_3
REMARK    3  A    between atoms: C_7  and  C_8
REMARK    4  A    between atoms: C_8  and  C_9
REMARK    5  A    between atoms: C_8  and  C_19
REMARK    6  A    between atoms: C_10  and  O_11
REMARK    7  A    between atoms: C_13  and  C_14
REMARK    8  A    between atoms: C_13  and  C_15
REMARK    9  A    between atoms: C_23  and  O_24
REMARK                            x       y       z     vdW  Elec       q    Type
REMARK                         _______ _______ _______ _____ _____    ______ ____
ROOT
ATOM      1  C   UNL     1      -0.892  12.342  19.978  0.00  0.00    +0.000 C 
ENDROOT
BRANCH   1   8
ATOM      2  C   UNL     1       3.009  15.342  19.554  0.00  0.00    +0.000 C 
ATOM      3  C   UNL     1       2.127  14.694  20.639  0.00  0.00    +0.000 C 
ATOM      4  C   UNL     1       2.648  15.125  22.020  0.00  0.00    +0.000 C 
ATOM      5  C   UNL     1       0.672  15.174  20.491  0.00  0.00    +0.000 C 
ATOM      6  C   UNL     1      -0.008  14.593  19.266  0.00  0.00    +0.000 C 
ATOM      7  O   UNL     1      -0.701  15.296  18.534  0.00  0.00    +0.000 OA
ATOM      8  C   UNL     1       0.105  13.092  19.051  0.00  0.00    +0.000 C 
ATOM      9  C   UNL     1       1.538  12.665  19.287  0.00  0.00    +0.000 C 
ATOM     10  O   UNL     1       2.128  11.932  18.492  0.00  0.00    +0.000 OA
ATOM     11  C   UNL     1       2.209  13.160  20.545  0.00  0.00    +0.000 C 
ENDBRANCH   1   8
BRANCH   1  12
ATOM     12  C   UNL     1      -2.248  12.145  19.271  0.00  0.00    +0.000 C 
ATOM     13  C   UNL     1      -2.447  11.755  17.993  0.00  0.00    +0.000 C 
ATOM     14  C   UNL     1      -3.785  11.692  17.311  0.00  0.00    +0.000 C 
ATOM     15  C   UNL     1      -4.979  11.596  18.270  0.00  0.00    +0.000 C 
ATOM     16  C   UNL     1      -6.265  11.863  17.465  0.00  0.00    +0.000 C 
ATOM     17  C   UNL     1      -5.081  10.189  18.892  0.00  0.00    +0.000 C 
ATOM     18  C   UNL     1      -4.811  12.655  19.365  0.00  0.00    +0.000 C 
ATOM     19  C   UNL     1      -3.458  12.589  20.052  0.00  0.00    +0.000 C 
ATOM     20  O   UNL     1      -3.330  12.975  21.216  0.00  0.00    +0.000 OA
BRANCH  13  21
ATOM     21  O   UNL     1      -1.436  11.392  17.131  0.00  0.00    +0.000 OA
ATOM     22  H   UNL     1      -1.702  11.565  16.219  0.00  0.00    +0.000 HD
ENDBRANCH  13  21
ENDBRANCH   1  12
BRANCH   1  23
ATOM     23  C   UNL     1      -0.399  11.035  20.612  0.00  0.00    +0.000 A 
ATOM     24  C   UNL     1       0.019   9.924  19.861  0.00  0.00    +0.000 A 
ATOM     25  C   UNL     1       0.341   8.714  20.478  0.00  0.00    +0.000 A 
ATOM     26  C   UNL     1       0.298   8.601  21.864  0.00  0.00    +0.000 A 
ATOM     27  C   UNL     1      -0.050   9.711  22.624  0.00  0.00    +0.000 A 
ATOM     28  C   UNL     1      -0.399  10.915  22.015  0.00  0.00    +0.000 A 
BRANCH  27  29
ATOM     29  O   UNL     1      -0.074   9.653  23.985  0.00  0.00    +0.000 OA
ATOM     30  H   UNL     1       0.735  10.066  24.328  0.00  0.00    +0.000 HD
ENDBRANCH  27  29
ENDBRANCH   1  23
TORSDOF 5
ENDMDL
MODEL 8
REMARK VINA RESULT:      -5.6      6.667      9.793
REMARK  Name = 
REMARK  9 active torsions:
REMARK  status: ('A' for Active; 'I' for Inactive)
REMARK    1  A    between atoms: C_1  and  C_2
REMARK    2  A    between atoms: C_2  and  C_3
REMARK    3  A    between atoms: C_7  and  C_8
REMARK    4  A    between atoms: C_8  and  C_9
REMARK    5  A    between atoms: C_8  and  C_19
REMARK    6  A    between atoms: C_10  and  O_11
REMARK    7  A    between atoms: C_13  and  C_14
REMARK    8  A    between atoms: C_13  and  C_15
REMARK    9  A    between atoms: C_23  and  O_24
REMARK                            x       y       z     vdW  Elec       q    Type
REMARK                         _______ _______ _______ _____ _____    ______ ____
ROOT
ATOM      1  C   UNL     1       3.458   5.946  17.867  0.00  0.00    +0.000 C 
ENDROOT
BRANCH   1   8
ATOM      2  C   UNL     1       7.476   4.894  15.194  0.00  0.00    +0.000 C 
ATOM      3  C   UNL     1       5.943   4.762  15.127  0.00  0.00    +0.000 C 
ATOM      4  C   UNL     1       5.563   4.094  13.794  0.00  0.00    +0.000 C 
ATOM      5  C   UNL     1       5.439   3.875  16.281  0.00  0.00    +0.000 C 
ATOM      6  C   UNL     1       5.551   4.561  17.629  0.00  0.00    +0.000 C 
ATOM      7  O   UNL     1       5.976   3.958  18.612  0.00  0.00    +0.000 OA
ATOM      8  C   UNL     1       5.006   5.976  17.740  0.00  0.00    +0.000 C 
ATOM      9  C   UNL     1       5.466   6.778  16.540  0.00  0.00    +0.000 C 
ATOM     10  O   UNL     1       5.955   7.901  16.669  0.00  0.00    +0.000 OA
ATOM     11  C   UNL     1       5.285   6.152  15.179  0.00  0.00    +0.000 C 
ENDBRANCH   1   8
BRANCH   1  12
ATOM     12  C   UNL     1       2.999   4.670  18.599  0.00  0.00    +0.000 C 
ATOM     13  C   UNL     1       3.378   4.258  19.829  0.00  0.00    +0.000 C 
ATOM     14  C   UNL     1       2.996   2.946  20.454  0.00  0.00    +0.000 C 
ATOM     15  C   UNL     1       1.737   2.305  19.856  0.00  0.00    +0.000 C 
ATOM     16  C   UNL     1       1.655   0.849  20.355  0.00  0.00    +0.000 C 
ATOM     17  C   UNL     1       0.465   3.045  20.313  0.00  0.00    +0.000 C 
ATOM     18  C   UNL     1       1.854   2.334  18.328  0.00  0.00    +0.000 C 
ATOM     19  C   UNL     1       2.163   3.718  17.783  0.00  0.00    +0.000 C 
ATOM     20  O   UNL     1       1.806   4.034  16.646  0.00  0.00    +0.000 OA
BRANCH  13  21
ATOM     21  O   UNL     1       4.201   4.982  20.664  0.00  0.00    +0.000 OA
ATOM     22  H   UNL     1       3.958   5.918  20.635  0.00  0.00    +0.000 HD
ENDBRANCH  13  21
ENDBRANCH   1  12
BRANCH   1  23
ATOM     23  C   UNL     1       2.786   7.196  18.450  0.00  0.00    +0.000 A 
ATOM     24  C   UNL     1       2.199   7.231  19.726  0.00  0.00    +0.000 A 
ATOM     25  C   UNL     1       1.491   8.351  20.165  0.00  0.00    +0.000 A 
ATOM     26  C   UNL     1       1.393   9.479  19.357  0.00  0.00    +0.000 A 
ATOM     27  C   UNL     1       2.025   9.484  18.120  0.00  0.00    +0.000 A 
ATOM     28  C   UNL     1       2.712   8.361  17.663  0.00  0.00    +0.000 A 
BRANCH  27  29
ATOM     29  O   UNL     1       1.982  10.579  17.311  0.00  0.00    +0.000 OA
ATOM     30  H   UNL     1       1.212  10.501  16.724  0.00  0.00    +0.000 HD
ENDBRANCH  27  29
ENDBRANCH   1  23
TORSDOF 5
ENDMDL
MODEL 9
REMARK VINA RESULT:      -5.6      2.500      5.219
REMARK  Name = 
REMARK  9 active torsions:
REMARK  status: ('A' for Active; 'I' for Inactive)
REMARK    1  A    between atoms: C_1  and  C_2
REMARK    2  A    between atoms: C_2  and  C_3
REMARK    3  A    between atoms: C_7  and  C_8
REMARK    4  A    between atoms: C_8  and  C_9
REMARK    5  A    between atoms: C_8  and  C_19
REMARK    6  A    between atoms: C_10  and  O_11
REMARK    7  A    between atoms: C_13  and  C_14
REMARK    8  A    between atoms: C_13  and  C_15
REMARK    9  A    between atoms: C_23  and  O_24
REMARK                            x       y       z     vdW  Elec       q    Type
REMARK                         _______ _______ _______ _____ _____    ______ ____
ROOT
ATOM      1  C   UNL     1      -1.380  13.009  21.065  0.00  0.00    +0.000 C 
ENDROOT
BRANCH   1   8
ATOM      2  C   UNL     1      -5.839  14.716  22.332  0.00  0.00    +0.000 C 
ATOM      3  C   UNL     1      -5.088  14.165  21.105  0.00  0.00    +0.000 C 
ATOM      4  C   UNL     1      -6.051  14.142  19.906  0.00  0.00    +0.000 C 
ATOM      5  C   UNL     1      -3.899  15.081  20.760  0.00  0.00    +0.000 C 
ATOM      6  C   UNL     1      -2.778  14.982  21.778  0.00  0.00    +0.000 C 
ATOM      7  O   UNL     1      -2.210  15.990  22.193  0.00  0.00    +0.000 OA
ATOM      8  C   UNL     1      -2.310  13.590  22.167  0.00  0.00    +0.000 C 
ATOM      9  C   UNL     1      -3.519  12.713  22.416  0.00  0.00    +0.000 C 
ATOM     10  O   UNL     1      -3.603  12.006  23.421  0.00  0.00    +0.000 OA
ATOM     11  C   UNL     1      -4.610  12.727  21.374  0.00  0.00    +0.000 C 
ENDBRANCH   1   8
BRANCH   1  12
ATOM     12  C   UNL     1      -0.232  13.988  20.753  0.00  0.00    +0.000 C 
ATOM     13  C   UNL     1       0.542  14.644  21.647  0.00  0.00    +0.000 C 
ATOM     14  C   UNL     1       1.572  15.681  21.297  0.00  0.00    +0.000 C 
ATOM     15  C   UNL     1       2.079  15.604  19.851  0.00  0.00    +0.000 C 
ATOM     16  C   UNL     1       2.864  16.894  19.547  0.00  0.00    +0.000 C 
ATOM     17  C   UNL     1       3.028  14.404  19.657  0.00  0.00    +0.000 C 
ATOM     18  C   UNL     1       0.870  15.488  18.915  0.00  0.00    +0.000 C 
ATOM     19  C   UNL     1      -0.072  14.361  19.301  0.00  0.00    +0.000 C 
ATOM     20  O   UNL     1      -0.768  13.809  18.446  0.00  0.00    +0.000 OA
BRANCH  13  21
ATOM     21  O   UNL     1       0.462  14.467  23.011  0.00  0.00    +0.000 OA
ATOM     22  H   UNL     1       1.205  14.907  23.444  0.00  0.00    +0.000 HD
ENDBRANCH  13  21
ENDBRANCH   1  12
BRANCH   1  23
ATOM     23  C   UNL     1      -0.855  11.584  21.282  0.00  0.00    +0.000 A 
ATOM     24  C   UNL     1      -0.654  10.670  20.235  0.00  0.00    +0.000 A 
ATOM     25  C   UNL     1      -0.293   9.345  20.491  0.00  0.00    +0.000 A 
ATOM     26  C   UNL     1      -0.080   8.917  21.797  0.00  0.00    +0.000 A 
ATOM     27  C   UNL     1      -0.210   9.828  22.838  0.00  0.00    +0.000 A 
ATOM     28  C   UNL     1      -0.595  11.145  22.594  0.00  0.00    +0.000 A 
BRANCH  27  29
ATOM     29  O   UNL     1       0.021   9.459  24.130  0.00  0.00    +0.000 OA
ATOM     30  H   UNL     1       0.939   9.151  24.205  0.00  0.00    +0.000 HD
ENDBRANCH  27  29
ENDBRANCH   1  23
TORSDOF 5
ENDMDL
