MODEL 1
REMARK VINA RESULT:      -5.8      0.000      0.000
REMARK  Name = 
REMARK  1 active torsions:
REMARK  status: ('A' for Active; 'I' for Inactive)
REMARK    1  A    between atoms: N_1  and  C_2
REMARK                            x       y       z     vdW  Elec       q    Type
REMARK                         _______ _______ _______ _____ _____    ______ ____
ROOT
ATOM      1  C   UNL     1       4.724   3.787  18.099  0.00  0.00    +0.000 C 
ATOM      2  C   UNL     1       4.410   4.773  16.957  0.00  0.00    +0.000 C 
ATOM      3  S   UNL     1       4.271   6.482  17.546  0.00  0.00    +0.000 S 
ATOM      4  C   UNL     1       2.883   6.218  18.672  0.00  0.00    +0.000 C 
ATOM      5  C   UNL     1       2.923   4.967  19.511  0.00  0.00    +0.000 A 
ATOM      6  C   UNL     1       2.040   4.913  20.603  0.00  0.00    +0.000 A 
ATOM      7  F   UNL     1       1.243   5.960  20.862  0.00  0.00    +0.000 F 
ATOM      8  C   UNL     1       1.953   3.800  21.432  0.00  0.00    +0.000 A 
ATOM      9  C   UNL     1       2.750   2.693  21.175  0.00  0.00    +0.000 A 
ATOM     10  C   UNL     1       3.625   2.710  20.089  0.00  0.00    +0.000 A 
ATOM     11  C   UNL     1       3.722   3.836  19.241  0.00  0.00    +0.000 A 
ENDROOT
BRANCH   1  12
ATOM     12  N   UNL     1       6.084   3.974  18.622  0.00  0.00    +0.000 NA
ATOM     13  H   UNL     1       6.291   3.265  19.320  0.00  0.00    +0.000 HD
ATOM     14  H   UNL     1       6.159   4.880  19.079  0.00  0.00    +0.000 HD
ENDBRANCH   1  12
TORSDOF 1
ENDMDL
MODEL 2
REMARK VINA RESULT:      -5.6      2.415      2.977
REMARK  Name = 
REMARK  1 active torsions:
REMARK  status: ('A' for Active; 'I' for Inactive)
REMARK    1  A    between atoms: N_1  and  C_2
REMARK                            x       y       z     vdW  Elec       q    Type
REMARK                         _______ _______ _______ _____ _____    ______ ____
ROOT
ATOM      1  C   UNL     1       2.003   4.953  18.241  0.00  0.00    +0.000 C 
ATOM      2  C   UNL     1       3.305   5.528  17.653  0.00  0.00    +0.000 C 
ATOM      3  S   UNL     1       4.484   4.229  17.198  0.00  0.00    +0.000 S 
ATOM      4  C   UNL     1       4.690   3.524  18.848  0.00  0.00    +0.000 C 
ATOM      5  C   UNL     1       3.440   3.369  19.676  0.00  0.00    +0.000 A 
ATOM      6  C   UNL     1       3.532   2.539  20.805  0.00  0.00    +0.000 A 
ATOM      7  F   UNL     1       4.688   1.913  21.074  0.00  0.00    +0.000 F 
ATOM      8  C   UNL     1       2.462   2.343  21.672  0.00  0.00    +0.000 A 
ATOM      9  C   UNL     1       1.260   2.994  21.430  0.00  0.00    +0.000 A 
ATOM     10  C   UNL     1       1.142   3.838  20.326  0.00  0.00    +0.000 A 
ATOM     11  C   UNL     1       2.223   4.044  19.439  0.00  0.00    +0.000 A 
ENDROOT
BRANCH   1  12
ATOM     12  N   UNL     1       1.208   4.251  17.224  0.00  0.00    +0.000 NA
ATOM     13  H   UNL     1       0.804   3.406  17.618  0.00  0.00    +0.000 HD
ATOM     14  H   UNL     1       1.805   3.969  16.450  0.00  0.00    +0.000 HD
ENDBRANCH   1  12
TORSDOF 1
ENDMDL
MODEL 3
REMARK VINA RESULT:      -5.6      3.146      4.811
REMARK  Name = 
REMARK  1 active torsions:
REMARK  status: ('A' for Active; 'I' for Inactive)
REMARK    1  A    between atoms: N_1  and  C_2
REMARK                            x       y       z     vdW  Elec       q    Type
REMARK                         _______ _______ _______ _____ _____    ______ ____
ROOT
ATOM      1  C   UNL     1       2.538   5.350  18.848  0.00  0.00    +0.000 C 
ATOM      2  C   UNL     1       1.750   4.027  18.906  0.00  0.00    +0.000 C 
ATOM      3  S   UNL     1       2.835   2.593  19.135  0.00  0.00    +0.000 S 
ATOM      4  C   UNL     1       3.794   2.793  17.618  0.00  0.00    +0.000 C 
ATOM      5  C   UNL     1       4.207   4.198  17.260  0.00  0.00    +0.000 A 
ATOM      6  C   UNL     1       5.209   4.331  16.285  0.00  0.00    +0.000 A 
ATOM      7  F   UNL     1       5.761   3.232  15.750  0.00  0.00    +0.000 F 
ATOM      8  C   UNL     1       5.651   5.573  15.840  0.00  0.00    +0.000 A 
ATOM      9  C   UNL     1       5.083   6.727  16.361  0.00  0.00    +0.000 A 
ATOM     10  C   UNL     1       4.074   6.627  17.319  0.00  0.00    +0.000 A 
ATOM     11  C   UNL     1       3.617   5.371  17.778  0.00  0.00    +0.000 A 
ENDROOT
BRANCH   1  12
ATOM     12  N   UNL     1       3.122   5.694  20.151  0.00  0.00    +0.000 NA
ATOM     13  H   UNL     1       2.386   5.892  20.824  0.00  0.00    +0.000 HD
ATOM     14  H   UNL     1       3.688   6.535  20.067  0.00  0.00    +0.000 HD
ENDBRANCH   1  12
TORSDOF 1
ENDMDL
MODEL 4
REMARK VINA RESULT:      -5.6      1.645      1.717
REMARK  Name = 
REMARK  1 active torsions:
REMARK  status: ('A' for Active; 'I' for Inactive)
REMARK    1  A    between atoms: N_1  and  C_2
REMARK                            x       y       z     vdW  Elec       q    Type
REMARK                         _______ _______ _______ _____ _____    ______ ____
ROOT
ATOM      1  C   UNL     1       3.771   3.829  17.040  0.00  0.00    +0.000 C 
ATOM      2  C   UNL     1       4.538   5.163  16.953  0.00  0.00    +0.000 C 
ATOM      3  S   UNL     1       5.431   5.541  18.485  0.00  0.00    +0.000 S 
ATOM      4  C   UNL     1       3.991   5.608  19.573  0.00  0.00    +0.000 C 
ATOM      5  C   UNL     1       2.941   4.545  19.370  0.00  0.00    +0.000 A 
ATOM      6  C   UNL     1       1.998   4.388  20.399  0.00  0.00    +0.000 A 
ATOM      7  F   UNL     1       2.086   5.149  21.500  0.00  0.00    +0.000 F 
ATOM      8  C   UNL     1       0.957   3.469  20.317  0.00  0.00    +0.000 A 
ATOM      9  C   UNL     1       0.828   2.683  19.180  0.00  0.00    +0.000 A 
ATOM     10  C   UNL     1       1.740   2.827  18.134  0.00  0.00    +0.000 A 
ATOM     11  C   UNL     1       2.802   3.757  18.207  0.00  0.00    +0.000 A 
ENDROOT
BRANCH   1  12
ATOM     12  N   UNL     1       4.683   2.678  17.078  0.00  0.00    +0.000 NA
ATOM     13  H   UNL     1       4.470   2.090  17.880  0.00  0.00    +0.000 HD
ATOM     14  H   UNL     1       5.643   2.998  17.185  0.00  0.00    +0.000 HD
ENDBRANCH   1  12
TORSDOF 1
ENDMDL
MODEL 5
REMARK VINA RESULT:      -5.5      2.422      3.975
REMARK  Name = 
REMARK  1 active torsions:
REMARK  status: ('A' for Active; 'I' for Inactive)
REMARK    1  A    between atoms: N_1  and  C_2
REMARK                            x       y       z     vdW  Elec       q    Type
REMARK                         _______ _______ _______ _____ _____    ______ ____
ROOT
ATOM      1  C   UNL     1       3.344   2.705  18.339  0.00  0.00    +0.000 C 
ATOM      2  C   UNL     1       2.840   2.939  19.776  0.00  0.00    +0.000 C 
ATOM      3  S   UNL     1       1.598   4.257  19.860  0.00  0.00    +0.000 S 
ATOM      4  C   UNL     1       2.644   5.591  19.237  0.00  0.00    +0.000 C 
ATOM      5  C   UNL     1       3.540   5.259  18.071  0.00  0.00    +0.000 A 
ATOM      6  C   UNL     1       4.103   6.344  17.380  0.00  0.00    +0.000 A 
ATOM      7  F   UNL     1       3.804   7.596  17.758  0.00  0.00    +0.000 F 
ATOM      8  C   UNL     1       4.976   6.171  16.311  0.00  0.00    +0.000 A 
ATOM      9  C   UNL     1       5.320   4.887  15.912  0.00  0.00    +0.000 A 
ATOM     10  C   UNL     1       4.790   3.789  16.589  0.00  0.00    +0.000 A 
ATOM     11  C   UNL     1       3.902   3.953  17.676  0.00  0.00    +0.000 A 
ENDROOT
BRANCH   1  12
ATOM     12  N   UNL     1       2.304   2.112  17.487  0.00  0.00    +0.000 NA
ATOM     13  H   UNL     1       1.532   2.763  17.372  0.00  0.00    +0.000 HD
ATOM     14  H   UNL     1       1.930   1.274  17.926  0.00  0.00    +0.000 HD
ENDBRANCH   1  12
TORSDOF 1
ENDMDL
MODEL 6
REMARK VINA RESULT:      -5.5      2.587      3.091
REMARK  Name = 
REMARK  1 active torsions:
REMARK  status: ('A' for Active; 'I' for Inactive)
REMARK    1  A    between atoms: N_1  and  C_2
REMARK                            x       y       z     vdW  Elec       q    Type
REMARK                         _______ _______ _______ _____ _____    ______ ____
ROOT
ATOM      1  C   UNL     1       3.570   6.033  19.126  0.00  0.00    +0.000 C 
ATOM      2  C   UNL     1       4.954   5.875  18.467  0.00  0.00    +0.000 C 
ATOM      3  S   UNL     1       4.835   5.313  16.748  0.00  0.00    +0.000 S 
ATOM      4  C   UNL     1       4.014   3.740  17.083  0.00  0.00    +0.000 C 
ATOM      5  C   UNL     1       2.913   3.758  18.112  0.00  0.00    +0.000 A 
ATOM      6  C   UNL     1       2.062   2.641  18.145  0.00  0.00    +0.000 A 
ATOM      7  F   UNL     1       2.243   1.647  17.263  0.00  0.00    +0.000 F 
ATOM      8  C   UNL     1       1.032   2.519  19.071  0.00  0.00    +0.000 A 
ATOM      9  C   UNL     1       0.835   3.523  20.010  0.00  0.00    +0.000 A 
ATOM     10  C   UNL     1       1.674   4.638  20.013  0.00  0.00    +0.000 A 
ATOM     11  C   UNL     1       2.723   4.772  19.076  0.00  0.00    +0.000 A 
ENDROOT
BRANCH   1  12
ATOM     12  N   UNL     1       2.820   7.159  18.555  0.00  0.00    +0.000 NA
ATOM     13  H   UNL     1       2.348   7.675  19.293  0.00  0.00    +0.000 HD
ATOM     14  H   UNL     1       2.103   6.814  17.922  0.00  0.00    +0.000 HD
ENDBRANCH   1  12
TORSDOF 1
ENDMDL
MODEL 7
REMARK VINA RESULT:      -5.5      1.449      1.565
REMARK  Name = 
REMARK  1 active torsions:
REMARK  status: ('A' for Active; 'I' for Inactive)
REMARK    1  A    between atoms: N_1  and  C_2
REMARK                            x       y       z     vdW  Elec       q    Type
REMARK                         _______ _______ _______ _____ _____    ______ ____
ROOT
ATOM      1  C   UNL     1       4.374   2.808  18.715  0.00  0.00    +0.000 C 
ATOM      2  C   UNL     1       5.257   3.840  17.987  0.00  0.00    +0.000 C 
ATOM      3  S   UNL     1       5.740   5.212  19.068  0.00  0.00    +0.000 S 
ATOM      4  C   UNL     1       4.075   5.814  19.424  0.00  0.00    +0.000 C 
ATOM      5  C   UNL     1       3.023   4.769  19.695  0.00  0.00    +0.000 A 
ATOM      6  C   UNL     1       1.829   5.217  20.284  0.00  0.00    +0.000 A 
ATOM      7  F   UNL     1       1.692   6.514  20.599  0.00  0.00    +0.000 F 
ATOM      8  C   UNL     1       0.766   4.360  20.550  0.00  0.00    +0.000 A 
ATOM      9  C   UNL     1       0.872   3.016  20.216  0.00  0.00    +0.000 A 
ATOM     10  C   UNL     1       2.039   2.545  19.615  0.00  0.00    +0.000 A 
ATOM     11  C   UNL     1       3.125   3.407  19.341  0.00  0.00    +0.000 A 
ENDROOT
BRANCH   1  12
ATOM     12  N   UNL     1       5.130   2.062  19.729  0.00  0.00    +0.000 NA
ATOM     13  H   UNL     1       5.704   1.350  19.284  0.00  0.00    +0.000 HD
ATOM     14  H   UNL     1       4.489   1.584  20.358  0.00  0.00    +0.000 HD
ENDBRANCH   1  12
TORSDOF 1
ENDMDL
MODEL 8
REMARK VINA RESULT:      -5.5      2.267      2.582
REMARK  Name = 
REMARK  1 active torsions:
REMARK  status: ('A' for Active; 'I' for Inactive)
REMARK    1  A    between atoms: N_1  and  C_2
REMARK                            x       y       z     vdW  Elec       q    Type
REMARK                         _______ _______ _______ _____ _____    ______ ____
ROOT
ATOM      1  C   UNL     1       6.110   4.326  16.948  0.00  0.00    +0.000 C 
ATOM      2  C   UNL     1       6.655   5.595  16.266  0.00  0.00    +0.000 C 
ATOM      3  S   UNL     1       6.362   7.085  17.257  0.00  0.00    +0.000 S 
ATOM      4  C   UNL     1       4.558   6.993  17.272  0.00  0.00    +0.000 C 
ATOM      5  C   UNL     1       3.953   5.628  17.480  0.00  0.00    +0.000 A 
ATOM      6  C   UNL     1       2.590   5.589  17.817  0.00  0.00    +0.000 A 
ATOM      7  F   UNL     1       1.911   6.736  17.963  0.00  0.00    +0.000 F 
ATOM      8  C   UNL     1       1.905   4.392  17.999  0.00  0.00    +0.000 A 
ATOM      9  C   UNL     1       2.577   3.189  17.833  0.00  0.00    +0.000 A 
ATOM     10  C   UNL     1       3.927   3.195  17.483  0.00  0.00    +0.000 A 
ATOM     11  C   UNL     1       4.633   4.405  17.296  0.00  0.00    +0.000 A 
ENDROOT
BRANCH   1  12
ATOM     12  N   UNL     1       6.885   3.976  18.146  0.00  0.00    +0.000 NA
ATOM     13  H   UNL     1       7.487   4.750  18.412  0.00  0.00    +0.000 HD
ATOM     14  H   UNL     1       7.486   3.179  17.950  0.00  0.00    +0.000 HD
ENDBRANCH   1  12
TORSDOF 1
ENDMDL
MODEL 9
REMARK VINA RESULT:      -5.4      1.393      1.815
REMARK  Name = 
REMARK  1 active torsions:
REMARK  status: ('A' for Active; 'I' for Inactive)
REMARK    1  A    between atoms: N_1  and  C_2
REMARK                            x       y       z     vdW  Elec       q    Type
REMARK                         _______ _______ _______ _____ _____    ______ ____
ROOT
ATOM      1  C   UNL     1       4.163   3.436  18.272  0.00  0.00    +0.000 C 
ATOM      2  C   UNL     1       4.524   3.856  16.834  0.00  0.00    +0.000 C 
ATOM      3  S   UNL     1       5.361   5.463  16.780  0.00  0.00    +0.000 S 
ATOM      4  C   UNL     1       4.023   6.438  17.500  0.00  0.00    +0.000 C 
ATOM      5  C   UNL     1       3.299   5.829  18.674  0.00  0.00    +0.000 A 
ATOM      6  C   UNL     1       2.496   6.693  19.436  0.00  0.00    +0.000 A 
ATOM      7  F   UNL     1       2.431   7.994  19.112  0.00  0.00    +0.000 F 
ATOM      8  C   UNL     1       1.747   6.248  20.520  0.00  0.00    +0.000 A 
ATOM      9  C   UNL     1       1.778   4.903  20.864  0.00  0.00    +0.000 A 
ATOM     10  C   UNL     1       2.554   4.018  20.117  0.00  0.00    +0.000 A 
ATOM     11  C   UNL     1       3.318   4.460  19.014  0.00  0.00    +0.000 A 
ENDROOT
BRANCH   1  12
ATOM     12  N   UNL     1       5.358   3.113  19.062  0.00  0.00    +0.000 NA
ATOM     13  H   UNL     1       5.089   2.715  19.958  0.00  0.00    +0.000 HD
ATOM     14  H   UNL     1       5.888   3.960  19.254  0.00  0.00    +0.000 HD
ENDBRANCH   1  12
TORSDOF 1
ENDMDL
