MODEL 1
REMARK VINA RESULT:      -8.5      0.000      0.000
REMARK  Name = 
REMARK  4 active torsions:
REMARK  status: ('A' for Active; 'I' for Inactive)
REMARK    1  A    between atoms: C_2  and  C_3
REMARK    2  A    between atoms: C_3  and  N_4
REMARK    3  A    between atoms: N_14  and  N_15
REMARK    4  A    between atoms: C_16  and  C_17
REMARK                            x       y       z     vdW  Elec       q    Type
REMARK                         _______ _______ _______ _____ _____    ______ ____
ROOT
ATOM      1  C   UNL     1       5.807   6.814  16.876  0.00  0.00    +0.000 C 
ENDROOT
BRANCH   1   2
ATOM      2  N   UNL     1       5.634   5.379  16.976  0.00  0.00    +0.000 N 
ATOM      3  C   UNL     1       6.342   4.481  16.199  0.00  0.00    +0.000 C 
ATOM      4  O   UNL     1       7.318   4.739  15.515  0.00  0.00    +0.000 OA
ATOM      5  N   UNL     1       5.721   3.249  16.266  0.00  0.00    +0.000 N 
ATOM      6  C   UNL     1       4.464   3.343  16.940  0.00  0.00    +0.000 C 
ATOM      7  N   UNL     1       4.405   2.450  18.046  0.00  0.00    +0.000 N 
ATOM      8  C   UNL     1       4.692   3.123  19.216  0.00  0.00    +0.000 C 
ATOM      9  O   UNL     1       4.948   2.600  20.284  0.00  0.00    +0.000 OA
ATOM     10  N   UNL     1       4.678   4.480  18.966  0.00  0.00    +0.000 N 
ATOM     11  C   UNL     1       4.483   4.757  17.572  0.00  0.00    +0.000 C 
ATOM     12  H   UNL     1       6.044   2.469  15.714  0.00  0.00    +0.000 HD
ATOM     13  H   UNL     1       4.564   1.455  17.999  0.00  0.00    +0.000 HD
ATOM     14  H   UNL     1       5.011   5.136  19.657  0.00  0.00    +0.000 HD
ENDBRANCH   1   2
BRANCH   1  16
ATOM     15  O   UNL     1       7.588   6.519  18.465  0.00  0.00    +0.000 OA
ATOM     16  C   UNL     1       7.058   7.260  17.636  0.00  0.00    +0.000 C 
ATOM     17  N   UNL     1       7.443   8.566  17.367  0.00  0.00    +0.000 N 
ATOM     18  H   UNL     1       6.869   9.167  16.776  0.00  0.00    +0.000 HD
BRANCH  17  19
ATOM     19  N   UNL     1       8.566   9.071  17.959  0.00  0.00    +0.000 NA
ATOM     20  C   UNL     1       8.612  10.353  18.125  0.00  0.00    +0.000 C 
BRANCH  20  21
ATOM     21  C   UNL     1       9.792  11.006  18.725  0.00  0.00    +0.000 A 
ATOM     22  C   UNL     1      10.899  11.356  17.941  0.00  0.00    +0.000 A 
ATOM     23  C   UNL     1      11.995  11.996  18.527  0.00  0.00    +0.000 A 
ATOM     24  C   UNL     1      11.991  12.288  19.892  0.00  0.00    +0.000 A 
ATOM     25  C   UNL     1      10.891  11.939  20.676  0.00  0.00    +0.000 A 
ATOM     26  C   UNL     1       9.799  11.299  20.087  0.00  0.00    +0.000 A 
ATOM     27  F   UNL     1       8.750  10.973  20.859  0.00  0.00    +0.000 F 
ENDBRANCH  20  21
ENDBRANCH  17  19
ENDBRANCH   1  16
TORSDOF 4
ENDMDL
MODEL 2
REMARK VINA RESULT:      -8.4      1.881      2.318
REMARK  Name = 
REMARK  4 active torsions:
REMARK  status: ('A' for Active; 'I' for Inactive)
REMARK    1  A    between atoms: C_2  and  C_3
REMARK    2  A    between atoms: C_3  and  N_4
REMARK    3  A    between atoms: N_14  and  N_15
REMARK    4  A    between atoms: C_16  and  C_17
REMARK                            x       y       z     vdW  Elec       q    Type
REMARK                         _______ _______ _______ _____ _____    ______ ____
ROOT
ATOM      1  C   UNL     1       7.006   4.813  17.617  0.00  0.00    +0.000 C 
ENDROOT
BRANCH   1   2
ATOM      2  N   UNL     1       5.588   4.786  17.914  0.00  0.00    +0.000 N 
ATOM      3  C   UNL     1       4.681   5.648  17.324  0.00  0.00    +0.000 C 
ATOM      4  O   UNL     1       4.894   6.362  16.360  0.00  0.00    +0.000 OA
ATOM      5  N   UNL     1       3.506   5.621  18.050  0.00  0.00    +0.000 N 
ATOM      6  C   UNL     1       3.668   4.882  19.263  0.00  0.00    +0.000 C 
ATOM      7  N   UNL     1       2.718   3.828  19.355  0.00  0.00    +0.000 N 
ATOM      8  C   UNL     1       3.290   2.636  18.958  0.00  0.00    +0.000 C 
ATOM      9  O   UNL     1       2.682   1.614  18.704  0.00  0.00    +0.000 OA
ATOM     10  N   UNL     1       4.656   2.808  18.860  0.00  0.00    +0.000 N 
ATOM     11  C   UNL     1       5.034   4.172  19.090  0.00  0.00    +0.000 C 
ATOM     12  H   UNL     1       2.736   6.231  17.823  0.00  0.00    +0.000 HD
ATOM     13  H   UNL     1       1.717   3.939  19.288  0.00  0.00    +0.000 HD
ATOM     14  H   UNL     1       5.236   2.097  18.440  0.00  0.00    +0.000 HD
ENDBRANCH   1   2
BRANCH   1  16
ATOM     15  O   UNL     1       8.108   5.650  19.584  0.00  0.00    +0.000 OA
ATOM     16  C   UNL     1       7.709   5.891  18.444  0.00  0.00    +0.000 C 
ATOM     17  N   UNL     1       7.751   7.134  17.828  0.00  0.00    +0.000 N 
ATOM     18  H   UNL     1       7.271   7.291  16.941  0.00  0.00    +0.000 HD
BRANCH  17  19
ATOM     19  N   UNL     1       8.383   8.172  18.451  0.00  0.00    +0.000 NA
ATOM     20  C   UNL     1       8.212   9.349  17.942  0.00  0.00    +0.000 C 
BRANCH  20  21
ATOM     21  C   UNL     1       8.874  10.536  18.518  0.00  0.00    +0.000 A 
ATOM     22  C   UNL     1       9.770  10.415  19.588  0.00  0.00    +0.000 A 
ATOM     23  C   UNL     1      10.403  11.550  20.100  0.00  0.00    +0.000 A 
ATOM     24  C   UNL     1      10.147  12.806  19.549  0.00  0.00    +0.000 A 
ATOM     25  C   UNL     1       9.255  12.932  18.485  0.00  0.00    +0.000 A 
ATOM     26  C   UNL     1       8.623  11.796  17.976  0.00  0.00    +0.000 A 
ATOM     27  F   UNL     1       7.769  11.937  16.951  0.00  0.00    +0.000 F 
ENDBRANCH  20  21
ENDBRANCH  17  19
ENDBRANCH   1  16
TORSDOF 4
ENDMDL
MODEL 3
REMARK VINA RESULT:      -8.3      1.003      1.420
REMARK  Name = 
REMARK  4 active torsions:
REMARK  status: ('A' for Active; 'I' for Inactive)
REMARK    1  A    between atoms: C_2  and  C_3
REMARK    2  A    between atoms: C_3  and  N_4
REMARK    3  A    between atoms: N_14  and  N_15
REMARK    4  A    between atoms: C_16  and  C_17
REMARK                            x       y       z     vdW  Elec       q    Type
REMARK                         _______ _______ _______ _____ _____    ______ ____
ROOT
ATOM      1  C   UNL     1       6.004   6.864  16.655  0.00  0.00    +0.000 C 
ENDROOT
BRANCH   1   2
ATOM      2  N   UNL     1       5.775   5.441  16.804  0.00  0.00    +0.000 N 
ATOM      3  C   UNL     1       6.452   4.490  16.062  0.00  0.00    +0.000 C 
ATOM      4  O   UNL     1       7.441   4.686  15.377  0.00  0.00    +0.000 OA
ATOM      5  N   UNL     1       5.784   3.286  16.168  0.00  0.00    +0.000 N 
ATOM      6  C   UNL     1       4.527   3.452  16.829  0.00  0.00    +0.000 C 
ATOM      7  N   UNL     1       4.427   2.601  17.965  0.00  0.00    +0.000 N 
ATOM      8  C   UNL     1       4.734   3.302  19.113  0.00  0.00    +0.000 C 
ATOM      9  O   UNL     1       4.964   2.807  20.200  0.00  0.00    +0.000 OA
ATOM     10  N   UNL     1       4.774   4.650  18.816  0.00  0.00    +0.000 N 
ATOM     11  C   UNL     1       4.598   4.885  17.412  0.00  0.00    +0.000 C 
ATOM     12  H   UNL     1       6.079   2.475  15.645  0.00  0.00    +0.000 HD
ATOM     13  H   UNL     1       4.548   1.599  17.954  0.00  0.00    +0.000 HD
ATOM     14  H   UNL     1       5.129   5.315  19.487  0.00  0.00    +0.000 HD
ENDBRANCH   1   2
BRANCH   1  16
ATOM     15  O   UNL     1       7.525   6.590  18.499  0.00  0.00    +0.000 OA
ATOM     16  C   UNL     1       7.094   7.337  17.619  0.00  0.00    +0.000 C 
ATOM     17  N   UNL     1       7.448   8.669  17.457  0.00  0.00    +0.000 N 
ATOM     18  H   UNL     1       6.944   9.266  16.801  0.00  0.00    +0.000 HD
BRANCH  17  19
ATOM     19  N   UNL     1       8.435   9.202  18.237  0.00  0.00    +0.000 NA
ATOM     20  C   UNL     1       8.742  10.441  18.024  0.00  0.00    +0.000 C 
BRANCH  20  21
ATOM     21  C   UNL     1       9.816  11.106  18.788  0.00  0.00    +0.000 A 
ATOM     22  C   UNL     1       9.692  11.325  20.166  0.00  0.00    +0.000 A 
ATOM     23  C   UNL     1      10.732  11.935  20.872  0.00  0.00    +0.000 A 
ATOM     24  C   UNL     1      11.896  12.327  20.210  0.00  0.00    +0.000 A 
ATOM     25  C   UNL     1      12.022  12.113  18.837  0.00  0.00    +0.000 A 
ATOM     26  C   UNL     1      10.981  11.505  18.134  0.00  0.00    +0.000 A 
ATOM     27  F   UNL     1      11.123  11.306  16.815  0.00  0.00    +0.000 F 
ENDBRANCH  20  21
ENDBRANCH  17  19
ENDBRANCH   1  16
TORSDOF 4
ENDMDL
MODEL 4
REMARK VINA RESULT:      -8.2      1.719      2.366
REMARK  Name = 
REMARK  4 active torsions:
REMARK  status: ('A' for Active; 'I' for Inactive)
REMARK    1  A    between atoms: C_2  and  C_3
REMARK    2  A    between atoms: C_3  and  N_4
REMARK    3  A    between atoms: N_14  and  N_15
REMARK    4  A    between atoms: C_16  and  C_17
REMARK                            x       y       z     vdW  Elec       q    Type
REMARK                         _______ _______ _______ _____ _____    ______ ____
ROOT
ATOM      1  C   UNL     1       6.434   5.994  16.879  0.00  0.00    +0.000 C 
ENDROOT
BRANCH   1   2
ATOM      2  N   UNL     1       5.255   5.549  17.595  0.00  0.00    +0.000 N 
ATOM      3  C   UNL     1       4.159   6.363  17.816  0.00  0.00    +0.000 C 
ATOM      4  O   UNL     1       3.944   7.436  17.280  0.00  0.00    +0.000 OA
ATOM      5  N   UNL     1       3.375   5.794  18.800  0.00  0.00    +0.000 N 
ATOM      6  C   UNL     1       4.034   4.676  19.401  0.00  0.00    +0.000 C 
ATOM      7  N   UNL     1       3.237   3.501  19.316  0.00  0.00    +0.000 N 
ATOM      8  C   UNL     1       3.642   2.727  18.248  0.00  0.00    +0.000 C 
ATOM      9  O   UNL     1       3.019   1.795  17.777  0.00  0.00    +0.000 OA
ATOM     10  N   UNL     1       4.848   3.209  17.780  0.00  0.00    +0.000 N 
ATOM     11  C   UNL     1       5.240   4.406  18.466  0.00  0.00    +0.000 C 
ATOM     12  H   UNL     1       2.558   6.265  19.158  0.00  0.00    +0.000 HD
ATOM     13  H   UNL     1       2.290   3.416  19.654  0.00  0.00    +0.000 HD
ATOM     14  H   UNL     1       5.235   2.873  16.911  0.00  0.00    +0.000 HD
ENDBRANCH   1   2
BRANCH   1  16
ATOM     15  O   UNL     1       7.930   6.013  18.762  0.00  0.00    +0.000 OA
ATOM     16  C   UNL     1       7.428   6.653  17.837  0.00  0.00    +0.000 C 
ATOM     17  N   UNL     1       7.609   8.011  17.614  0.00  0.00    +0.000 N 
ATOM     18  H   UNL     1       7.048   8.503  16.918  0.00  0.00    +0.000 HD
BRANCH  17  19
ATOM     19  N   UNL     1       8.499   8.706  18.383  0.00  0.00    +0.000 NA
ATOM     20  C   UNL     1       8.567   9.983  18.186  0.00  0.00    +0.000 C 
BRANCH  20  21
ATOM     21  C   UNL     1       9.517  10.825  18.940  0.00  0.00    +0.000 A 
ATOM     22  C   UNL     1       9.342  11.061  20.309  0.00  0.00    +0.000 A 
ATOM     23  C   UNL     1      10.268  11.841  21.007  0.00  0.00    +0.000 A 
ATOM     24  C   UNL     1      11.368  12.386  20.344  0.00  0.00    +0.000 A 
ATOM     25  C   UNL     1      11.546  12.154  18.980  0.00  0.00    +0.000 A 
ATOM     26  C   UNL     1      10.618  11.376  18.286  0.00  0.00    +0.000 A 
ATOM     27  F   UNL     1      10.807  11.163  16.974  0.00  0.00    +0.000 F 
ENDBRANCH  20  21
ENDBRANCH  17  19
ENDBRANCH   1  16
TORSDOF 4
ENDMDL
MODEL 5
REMARK VINA RESULT:      -8.2      5.908      7.582
REMARK  Name = 
REMARK  4 active torsions:
REMARK  status: ('A' for Active; 'I' for Inactive)
REMARK    1  A    between atoms: C_2  and  C_3
REMARK    2  A    between atoms: C_3  and  N_4
REMARK    3  A    between atoms: N_14  and  N_15
REMARK    4  A    between atoms: C_16  and  C_17
REMARK                            x       y       z     vdW  Elec       q    Type
REMARK                         _______ _______ _______ _____ _____    ______ ____
ROOT
ATOM      1  C   UNL     1       3.991   6.088  17.841  0.00  0.00    +0.000 C 
ENDROOT
BRANCH   1   2
ATOM      2  N   UNL     1       3.777   4.683  18.123  0.00  0.00    +0.000 N 
ATOM      3  C   UNL     1       4.687   3.910  18.821  0.00  0.00    +0.000 C 
ATOM      4  O   UNL     1       5.640   4.325  19.457  0.00  0.00    +0.000 OA
ATOM      5  N   UNL     1       4.381   2.578  18.624  0.00  0.00    +0.000 N 
ATOM      6  C   UNL     1       3.370   2.425  17.624  0.00  0.00    +0.000 C 
ATOM      7  N   UNL     1       2.256   1.697  18.127  0.00  0.00    +0.000 N 
ATOM      8  C   UNL     1       1.256   2.566  18.514  0.00  0.00    +0.000 C 
ATOM      9  O   UNL     1       0.288   2.270  19.190  0.00  0.00    +0.000 OA
ATOM     10  N   UNL     1       1.554   3.829  18.043  0.00  0.00    +0.000 N 
ATOM     11  C   UNL     1       2.839   3.864  17.406  0.00  0.00    +0.000 C 
ATOM     12  H   UNL     1       4.966   1.845  18.995  0.00  0.00    +0.000 HD
ATOM     13  H   UNL     1       2.301   0.781  18.547  0.00  0.00    +0.000 HD
ATOM     14  H   UNL     1       1.024   4.632  18.347  0.00  0.00    +0.000 HD
ENDBRANCH   1   2
BRANCH   1  16
ATOM     15  O   UNL     1       2.413   6.528  19.602  0.00  0.00    +0.000 OA
ATOM     16  C   UNL     1       2.969   6.949  18.586  0.00  0.00    +0.000 C 
ATOM     17  N   UNL     1       2.684   8.154  17.959  0.00  0.00    +0.000 N 
ATOM     18  H   UNL     1       3.079   8.370  17.044  0.00  0.00    +0.000 HD
BRANCH  17  19
ATOM     19  N   UNL     1       1.811   9.026  18.545  0.00  0.00    +0.000 NA
ATOM     20  C   UNL     1       0.738   9.311  17.881  0.00  0.00    +0.000 C 
BRANCH  20  21
ATOM     21  C   UNL     1      -0.257  10.266  18.406  0.00  0.00    +0.000 A 
ATOM     22  C   UNL     1       0.041  11.091  19.499  0.00  0.00    +0.000 A 
ATOM     23  C   UNL     1      -0.909  12.005  19.963  0.00  0.00    +0.000 A 
ATOM     24  C   UNL     1      -2.154  12.100  19.343  0.00  0.00    +0.000 A 
ATOM     25  C   UNL     1      -2.456  11.279  18.256  0.00  0.00    +0.000 A 
ATOM     26  C   UNL     1      -1.506  10.366  17.795  0.00  0.00    +0.000 A 
ATOM     27  F   UNL     1      -1.815   9.587  16.748  0.00  0.00    +0.000 F 
ENDBRANCH  20  21
ENDBRANCH  17  19
ENDBRANCH   1  16
TORSDOF 4
ENDMDL
MODEL 6
REMARK VINA RESULT:      -8.2      1.579      1.788
REMARK  Name = 
REMARK  4 active torsions:
REMARK  status: ('A' for Active; 'I' for Inactive)
REMARK    1  A    between atoms: C_2  and  C_3
REMARK    2  A    between atoms: C_3  and  N_4
REMARK    3  A    between atoms: N_14  and  N_15
REMARK    4  A    between atoms: C_16  and  C_17
REMARK                            x       y       z     vdW  Elec       q    Type
REMARK                         _______ _______ _______ _____ _____    ______ ____
ROOT
ATOM      1  C   UNL     1       7.706   5.846  18.568  0.00  0.00    +0.000 C 
ENDROOT
BRANCH   1   2
ATOM      2  N   UNL     1       6.631   5.137  17.903  0.00  0.00    +0.000 N 
ATOM      3  C   UNL     1       6.768   4.571  16.649  0.00  0.00    +0.000 C 
ATOM      4  O   UNL     1       7.816   4.402  16.050  0.00  0.00    +0.000 OA
ATOM      5  N   UNL     1       5.512   4.290  16.149  0.00  0.00    +0.000 N 
ATOM      6  C   UNL     1       4.491   4.843  16.983  0.00  0.00    +0.000 C 
ATOM      7  N   UNL     1       3.580   3.840  17.416  0.00  0.00    +0.000 N 
ATOM      8  C   UNL     1       3.908   3.417  18.688  0.00  0.00    +0.000 C 
ATOM      9  O   UNL     1       3.471   2.420  19.233  0.00  0.00    +0.000 OA
ATOM     10  N   UNL     1       4.838   4.285  19.222  0.00  0.00    +0.000 N 
ATOM     11  C   UNL     1       5.247   5.273  18.265  0.00  0.00    +0.000 C 
ATOM     12  H   UNL     1       5.387   3.932  15.215  0.00  0.00    +0.000 HD
ATOM     13  H   UNL     1       3.066   3.220  16.809  0.00  0.00    +0.000 HD
ATOM     14  H   UNL     1       5.316   4.065  20.083  0.00  0.00    +0.000 HD
ENDBRANCH   1   2
BRANCH   1  16
ATOM     15  O   UNL     1       7.337   7.581  16.943  0.00  0.00    +0.000 OA
ATOM     16  C   UNL     1       7.816   7.277  18.037  0.00  0.00    +0.000 C 
ATOM     17  N   UNL     1       8.567   8.120  18.844  0.00  0.00    +0.000 N 
ATOM     18  H   UNL     1       9.054   7.758  19.664  0.00  0.00    +0.000 HD
BRANCH  17  19
ATOM     19  N   UNL     1       8.711   9.433  18.494  0.00  0.00    +0.000 NA
ATOM     20  C   UNL     1       9.394  10.180  19.301  0.00  0.00    +0.000 C 
BRANCH  20  21
ATOM     21  C   UNL     1       9.584  11.619  19.035  0.00  0.00    +0.000 A 
ATOM     22  C   UNL     1       8.838  12.276  18.047  0.00  0.00    +0.000 A 
ATOM     23  C   UNL     1       9.019  13.644  17.831  0.00  0.00    +0.000 A 
ATOM     24  C   UNL     1       9.939  14.361  18.596  0.00  0.00    +0.000 A 
ATOM     25  C   UNL     1      10.686  13.711  19.579  0.00  0.00    +0.000 A 
ATOM     26  C   UNL     1      10.504  12.343  19.792  0.00  0.00    +0.000 A 
ATOM     27  F   UNL     1      11.230  11.737  20.743  0.00  0.00    +0.000 F 
ENDBRANCH  20  21
ENDBRANCH  17  19
ENDBRANCH   1  16
TORSDOF 4
ENDMDL
MODEL 7
REMARK VINA RESULT:      -8.1      1.404      1.938
REMARK  Name = 
REMARK  4 active torsions:
REMARK  status: ('A' for Active; 'I' for Inactive)
REMARK    1  A    between atoms: C_2  and  C_3
REMARK    2  A    between atoms: C_3  and  N_4
REMARK    3  A    between atoms: N_14  and  N_15
REMARK    4  A    between atoms: C_16  and  C_17
REMARK                            x       y       z     vdW  Elec       q    Type
REMARK                         _______ _______ _______ _____ _____    ______ ____
ROOT
ATOM      1  C   UNL     1       6.271   6.188  16.808  0.00  0.00    +0.000 C 
ENDROOT
BRANCH   1   2
ATOM      2  N   UNL     1       5.194   5.654  17.618  0.00  0.00    +0.000 N 
ATOM      3  C   UNL     1       4.085   6.398  17.979  0.00  0.00    +0.000 C 
ATOM      4  O   UNL     1       3.764   7.477  17.511  0.00  0.00    +0.000 OA
ATOM      5  N   UNL     1       3.435   5.753  19.011  0.00  0.00    +0.000 N 
ATOM      6  C   UNL     1       4.207   4.652  19.498  0.00  0.00    +0.000 C 
ATOM      7  N   UNL     1       3.466   3.440  19.445  0.00  0.00    +0.000 N 
ATOM      8  C   UNL     1       3.801   2.727  18.312  0.00  0.00    +0.000 C 
ATOM      9  O   UNL     1       3.181   1.779  17.867  0.00  0.00    +0.000 OA
ATOM     10  N   UNL     1       4.927   3.290  17.747  0.00  0.00    +0.000 N 
ATOM     11  C   UNL     1       5.324   4.482  18.439  0.00  0.00    +0.000 C 
ATOM     12  H   UNL     1       2.635   6.166  19.466  0.00  0.00    +0.000 HD
ATOM     13  H   UNL     1       2.563   3.290  19.871  0.00  0.00    +0.000 HD
ATOM     14  H   UNL     1       5.241   3.006  16.831  0.00  0.00    +0.000 HD
ENDBRANCH   1   2
BRANCH   1  16
ATOM     15  O   UNL     1       7.903   6.143  18.573  0.00  0.00    +0.000 OA
ATOM     16  C   UNL     1       7.354   6.807  17.693  0.00  0.00    +0.000 C 
ATOM     17  N   UNL     1       7.559   8.161  17.466  0.00  0.00    +0.000 N 
ATOM     18  H   UNL     1       6.963   8.676  16.818  0.00  0.00    +0.000 HD
BRANCH  17  19
ATOM     19  N   UNL     1       8.525   8.822  18.171  0.00  0.00    +0.000 NA
ATOM     20  C   UNL     1       8.620  10.097  17.975  0.00  0.00    +0.000 C 
BRANCH  20  21
ATOM     21  C   UNL     1       9.650  10.903  18.661  0.00  0.00    +0.000 A 
ATOM     22  C   UNL     1      10.690  11.507  17.943  0.00  0.00    +0.000 A 
ATOM     23  C   UNL     1      11.639  12.285  18.612  0.00  0.00    +0.000 A 
ATOM     24  C   UNL     1      11.555  12.463  19.993  0.00  0.00    +0.000 A 
ATOM     25  C   UNL     1      10.521  11.861  20.712  0.00  0.00    +0.000 A 
ATOM     26  C   UNL     1       9.576  11.084  20.041  0.00  0.00    +0.000 A 
ATOM     27  F   UNL     1       8.589  10.515  20.750  0.00  0.00    +0.000 F 
ENDBRANCH  20  21
ENDBRANCH  17  19
ENDBRANCH   1  16
TORSDOF 4
ENDMDL
MODEL 8
REMARK VINA RESULT:      -8.1      1.697      1.886
REMARK  Name = 
REMARK  4 active torsions:
REMARK  status: ('A' for Active; 'I' for Inactive)
REMARK    1  A    between atoms: C_2  and  C_3
REMARK    2  A    between atoms: C_3  and  N_4
REMARK    3  A    between atoms: N_14  and  N_15
REMARK    4  A    between atoms: C_16  and  C_17
REMARK                            x       y       z     vdW  Elec       q    Type
REMARK                         _______ _______ _______ _____ _____    ______ ____
ROOT
ATOM      1  C   UNL     1       7.789   6.212  18.919  0.00  0.00    +0.000 C 
ENDROOT
BRANCH   1   2
ATOM      2  N   UNL     1       6.778   5.417  18.250  0.00  0.00    +0.000 N 
ATOM      3  C   UNL     1       7.074   4.526  17.234  0.00  0.00    +0.000 C 
ATOM      4  O   UNL     1       8.187   4.136  16.925  0.00  0.00    +0.000 OA
ATOM      5  N   UNL     1       5.905   4.199  16.576  0.00  0.00    +0.000 N 
ATOM      6  C   UNL     1       4.820   5.020  17.016  0.00  0.00    +0.000 C 
ATOM      7  N   UNL     1       3.737   4.230  17.493  0.00  0.00    +0.000 N 
ATOM      8  C   UNL     1       3.780   4.146  18.869  0.00  0.00    +0.000 C 
ATOM      9  O   UNL     1       3.141   3.363  19.547  0.00  0.00    +0.000 OA
ATOM     10  N   UNL     1       4.692   5.067  19.345  0.00  0.00    +0.000 N 
ATOM     11  C   UNL     1       5.376   5.732  18.274  0.00  0.00    +0.000 C 
ATOM     12  H   UNL     1       5.912   3.610  15.757  0.00  0.00    +0.000 HD
ATOM     13  H   UNL     1       3.275   3.501  16.970  0.00  0.00    +0.000 HD
ATOM     14  H   UNL     1       4.977   5.058  20.313  0.00  0.00    +0.000 HD
ENDBRANCH   1   2
BRANCH   1  16
ATOM     15  O   UNL     1       7.691   7.656  16.998  0.00  0.00    +0.000 OA
ATOM     16  C   UNL     1       8.010   7.534  18.182  0.00  0.00    +0.000 C 
ATOM     17  N   UNL     1       8.669   8.495  18.936  0.00  0.00    +0.000 N 
ATOM     18  H   UNL     1       9.030   8.271  19.864  0.00  0.00    +0.000 HD
BRANCH  17  19
ATOM     19  N   UNL     1       8.895   9.731  18.400  0.00  0.00    +0.000 NA
ATOM     20  C   UNL     1       9.634  10.539  19.090  0.00  0.00    +0.000 C 
BRANCH  20  21
ATOM     21  C   UNL     1       9.916  11.909  18.619  0.00  0.00    +0.000 A 
ATOM     22  C   UNL     1      10.725  12.135  17.498  0.00  0.00    +0.000 A 
ATOM     23  C   UNL     1      10.958  13.440  17.057  0.00  0.00    +0.000 A 
ATOM     24  C   UNL     1      10.386  14.521  17.728  0.00  0.00    +0.000 A 
ATOM     25  C   UNL     1       9.581  14.301  18.846  0.00  0.00    +0.000 A 
ATOM     26  C   UNL     1       9.352  12.996  19.285  0.00  0.00    +0.000 A 
ATOM     27  F   UNL     1       8.573  12.805  20.361  0.00  0.00    +0.000 F 
ENDBRANCH  20  21
ENDBRANCH  17  19
ENDBRANCH   1  16
TORSDOF 4
ENDMDL
MODEL 9
REMARK VINA RESULT:      -8.0      1.994      3.161
REMARK  Name = 
REMARK  4 active torsions:
REMARK  status: ('A' for Active; 'I' for Inactive)
REMARK    1  A    between atoms: C_2  and  C_3
REMARK    2  A    between atoms: C_3  and  N_4
REMARK    3  A    between atoms: N_14  and  N_15
REMARK    4  A    between atoms: C_16  and  C_17
REMARK                            x       y       z     vdW  Elec       q    Type
REMARK                         _______ _______ _______ _____ _____    ______ ____
ROOT
ATOM      1  C   UNL     1       6.839   6.120  18.366  0.00  0.00    +0.000 C 
ENDROOT
BRANCH   1   2
ATOM      2  N   UNL     1       6.286   5.434  17.216  0.00  0.00    +0.000 N 
ATOM      3  C   UNL     1       4.926   5.282  17.015  0.00  0.00    +0.000 C 
ATOM      4  O   UNL     1       4.043   5.863  17.622  0.00  0.00    +0.000 OA
ATOM      5  N   UNL     1       4.725   4.308  16.057  0.00  0.00    +0.000 N 
ATOM      6  C   UNL     1       5.949   3.644  15.734  0.00  0.00    +0.000 C 
ATOM      7  N   UNL     1       6.222   3.716  14.339  0.00  0.00    +0.000 N 
ATOM      8  C   UNL     1       7.110   4.740  14.081  0.00  0.00    +0.000 C 
ATOM      9  O   UNL     1       7.353   5.201  12.981  0.00  0.00    +0.000 OA
ATOM     10  N   UNL     1       7.644   5.181  15.275  0.00  0.00    +0.000 N 
ATOM     11  C   UNL     1       7.038   4.524  16.397  0.00  0.00    +0.000 C 
ATOM     12  H   UNL     1       3.797   3.998  15.811  0.00  0.00    +0.000 HD
ATOM     13  H   UNL     1       5.597   3.411  13.608  0.00  0.00    +0.000 HD
ATOM     14  H   UNL     1       8.199   6.023  15.313  0.00  0.00    +0.000 HD
ENDBRANCH   1   2
BRANCH   1  16
ATOM     15  O   UNL     1       7.411   7.862  16.809  0.00  0.00    +0.000 OA
ATOM     16  C   UNL     1       7.583   7.385  17.931  0.00  0.00    +0.000 C 
ATOM     17  N   UNL     1       8.500   7.846  18.865  0.00  0.00    +0.000 N 
ATOM     18  H   UNL     1       8.691   7.315  19.714  0.00  0.00    +0.000 HD
BRANCH  17  19
ATOM     19  N   UNL     1       9.204   8.988  18.608  0.00  0.00    +0.000 NA
ATOM     20  C   UNL     1       9.034   9.976  19.426  0.00  0.00    +0.000 C 
BRANCH  20  21
ATOM     21  C   UNL     1       9.721  11.266  19.223  0.00  0.00    +0.000 A 
ATOM     22  C   UNL     1      10.842  11.615  19.987  0.00  0.00    +0.000 A 
ATOM     23  C   UNL     1      11.491  12.832  19.760  0.00  0.00    +0.000 A 
ATOM     24  C   UNL     1      11.026  13.702  18.775  0.00  0.00    +0.000 A 
ATOM     25  C   UNL     1       9.908  13.360  18.013  0.00  0.00    +0.000 A 
ATOM     26  C   UNL     1       9.262  12.145  18.243  0.00  0.00    +0.000 A 
ATOM     27  F   UNL     1       8.189  11.833  17.499  0.00  0.00    +0.000 F 
ENDBRANCH  20  21
ENDBRANCH  17  19
ENDBRANCH   1  16
TORSDOF 4
ENDMDL
