MODEL 1
REMARK VINA RESULT:      -8.7      0.000      0.000
REMARK  Name = 
REMARK  8 active torsions:
REMARK  status: ('A' for Active; 'I' for Inactive)
REMARK    1  A    between atoms: C_1  and  C_2
REMARK    2  A    between atoms: C_2  and  C_4
REMARK    3  A    between atoms: C_7  and  C_8
REMARK    4  A    between atoms: C_14  and  C_15
REMARK    5  A    between atoms: C_16  and  C_17
REMARK    6  A    between atoms: N_19  and  C_20
REMARK    7  A    between atoms: C_20  and  C_21
REMARK    8  A    between atoms: C_21  and  C_22
REMARK                            x       y       z     vdW  Elec       q    Type
REMARK                         _______ _______ _______ _____ _____    ______ ____
ROOT
ATOM      1  C   UNL     1       4.154   3.526  17.748  0.00  0.00    +0.000 A 
ATOM      2  C   UNL     1       3.928   2.204  18.104  0.00  0.00    +0.000 A 
ATOM      3  N   UNL     1       3.054   2.180  19.158  0.00  0.00    +0.000 N 
ATOM      4  C   UNL     1       2.717   3.457  19.505  0.00  0.00    +0.000 A 
ATOM      5  N   UNL     1       1.881   3.762  20.513  0.00  0.00    +0.000 NA
ATOM      6  C   UNL     1       1.703   5.099  20.658  0.00  0.00    +0.000 A 
ATOM      7  C   UNL     1       2.289   6.104  19.885  0.00  0.00    +0.000 A 
ATOM      8  C   UNL     1       3.127   5.705  18.833  0.00  0.00    +0.000 A 
ATOM      9  C   UNL     1       3.374   4.330  18.645  0.00  0.00    +0.000 A 
ATOM     10  H   UNL     1       2.701   1.361  19.629  0.00  0.00    +0.000 HD
ENDROOT
BRANCH   1  14
ATOM     11  C   UNL     1       6.792   4.720  14.591  0.00  0.00    +0.000 A 
ATOM     12  C   UNL     1       7.098   5.012  15.922  0.00  0.00    +0.000 A 
ATOM     13  C   UNL     1       6.245   4.595  16.948  0.00  0.00    +0.000 A 
ATOM     14  C   UNL     1       5.064   3.894  16.666  0.00  0.00    +0.000 A 
ATOM     15  C   UNL     1       4.767   3.596  15.331  0.00  0.00    +0.000 A 
ATOM     16  C   UNL     1       5.625   4.002  14.300  0.00  0.00    +0.000 A 
BRANCH  11  18
ATOM     17  C   UNL     1       7.349   4.705  12.072  0.00  0.00    +0.000 C 
ATOM     18  C   UNL     1       7.671   5.167  13.471  0.00  0.00    +0.000 C 
ATOM     19  O   UNL     1       8.634   5.896  13.699  0.00  0.00    +0.000 OA
ENDBRANCH  11  18
ENDBRANCH   1  14
BRANCH   7  20
ATOM     20  C   UNL     1       1.964   7.513  20.145  0.00  0.00    +0.000 C 
ATOM     21  C   UNL     1       1.130   7.942  21.112  0.00  0.00    +0.000 C 
BRANCH  21  22
ATOM     22  C   UNL     1       0.906   9.399  21.285  0.00  0.00    +0.000 C 
ATOM     23  O   UNL     1       1.539  10.069  22.091  0.00  0.00    +0.000 OA
ATOM     24  N   UNL     1      -0.069   9.909  20.462  0.00  0.00    +0.000 N 
ATOM     25  H   UNL     1      -0.497   9.324  19.758  0.00  0.00    +0.000 HD
BRANCH  24  26
ATOM     26  C   UNL     1      -0.352  11.337  20.471  0.00  0.00    +0.000 C 
BRANCH  26  27
ATOM     27  C   UNL     1      -0.523  11.923  19.073  0.00  0.00    +0.000 C 
BRANCH  27  28
ATOM     28  C   UNL     1      -1.788  11.427  18.419  0.00  0.00    +0.000 A 
ATOM     29  C   UNL     1      -1.740  10.471  17.407  0.00  0.00    +0.000 A 
ATOM     30  C   UNL     1      -2.933  10.042  16.827  0.00  0.00    +0.000 A 
ATOM     31  C   UNL     1      -4.137  10.569  17.276  0.00  0.00    +0.000 A 
ATOM     32  C   UNL     1      -4.098  11.504  18.295  0.00  0.00    +0.000 A 
ATOM     33  N   UNL     1      -2.956  11.943  18.873  0.00  0.00    +0.000 NA
ENDBRANCH  27  28
ENDBRANCH  26  27
ENDBRANCH  24  26
ENDBRANCH  21  22
ENDBRANCH   7  20
TORSDOF 7
ENDMDL
MODEL 2
REMARK VINA RESULT:      -8.5      6.825     11.240
REMARK  Name = 
REMARK  8 active torsions:
REMARK  status: ('A' for Active; 'I' for Inactive)
REMARK    1  A    between atoms: C_1  and  C_2
REMARK    2  A    between atoms: C_2  and  C_4
REMARK    3  A    between atoms: C_7  and  C_8
REMARK    4  A    between atoms: C_14  and  C_15
REMARK    5  A    between atoms: C_16  and  C_17
REMARK    6  A    between atoms: N_19  and  C_20
REMARK    7  A    between atoms: C_20  and  C_21
REMARK    8  A    between atoms: C_21  and  C_22
REMARK                            x       y       z     vdW  Elec       q    Type
REMARK                         _______ _______ _______ _____ _____    ______ ____
ROOT
ATOM      1  C   UNL     1       8.328  14.882  18.025  0.00  0.00    +0.000 A 
ATOM      2  C   UNL     1       9.353  15.788  17.788  0.00  0.00    +0.000 A 
ATOM      3  N   UNL     1      10.528  15.095  17.663  0.00  0.00    +0.000 N 
ATOM      4  C   UNL     1      10.293  13.760  17.827  0.00  0.00    +0.000 A 
ATOM      5  N   UNL     1      11.253  12.820  17.771  0.00  0.00    +0.000 NA
ATOM      6  C   UNL     1      10.770  11.567  17.961  0.00  0.00    +0.000 A 
ATOM      7  C   UNL     1       9.437  11.217  18.196  0.00  0.00    +0.000 A 
ATOM      8  C   UNL     1       8.491  12.252  18.213  0.00  0.00    +0.000 A 
ATOM      9  C   UNL     1       8.932  13.580  18.046  0.00  0.00    +0.000 A 
ATOM     10  H   UNL     1      11.440  15.485  17.484  0.00  0.00    +0.000 HD
ENDROOT
BRANCH   1  14
ATOM     11  C   UNL     1       4.267  16.156  18.504  0.00  0.00    +0.000 A 
ATOM     12  C   UNL     1       4.564  14.959  17.848  0.00  0.00    +0.000 A 
ATOM     13  C   UNL     1       5.891  14.538  17.719  0.00  0.00    +0.000 A 
ATOM     14  C   UNL     1       6.947  15.308  18.228  0.00  0.00    +0.000 A 
ATOM     15  C   UNL     1       6.642  16.502  18.893  0.00  0.00    +0.000 A 
ATOM     16  C   UNL     1       5.312  16.922  19.034  0.00  0.00    +0.000 A 
BRANCH  11  18
ATOM     17  C   UNL     1       1.811  15.683  19.137  0.00  0.00    +0.000 C 
ATOM     18  C   UNL     1       2.863  16.643  18.642  0.00  0.00    +0.000 C 
ATOM     19  O   UNL     1       2.585  17.805  18.353  0.00  0.00    +0.000 OA
ENDBRANCH  11  18
ENDBRANCH   1  14
BRANCH   7  20
ATOM     20  C   UNL     1       9.067   9.803  18.346  0.00  0.00    +0.000 C 
ATOM     21  C   UNL     1       8.033   9.210  17.720  0.00  0.00    +0.000 C 
BRANCH  21  22
ATOM     22  C   UNL     1       7.781   7.764  17.941  0.00  0.00    +0.000 C 
ATOM     23  O   UNL     1       8.411   7.106  18.758  0.00  0.00    +0.000 OA
ATOM     24  N   UNL     1       6.785   7.250  17.146  0.00  0.00    +0.000 N 
ATOM     25  H   UNL     1       6.243   7.862  16.550  0.00  0.00    +0.000 HD
BRANCH  24  26
ATOM     26  C   UNL     1       6.380   5.861  17.299  0.00  0.00    +0.000 C 
BRANCH  26  27
ATOM     27  C   UNL     1       5.606   5.600  18.587  0.00  0.00    +0.000 C 
BRANCH  27  28
ATOM     28  C   UNL     1       4.728   4.380  18.464  0.00  0.00    +0.000 A 
ATOM     29  C   UNL     1       3.780   4.283  17.448  0.00  0.00    +0.000 A 
ATOM     30  C   UNL     1       2.986   3.140  17.373  0.00  0.00    +0.000 A 
ATOM     31  C   UNL     1       3.164   2.125  18.303  0.00  0.00    +0.000 A 
ATOM     32  C   UNL     1       4.137   2.294  19.273  0.00  0.00    +0.000 A 
ATOM     33  N   UNL     1       4.918   3.394  19.374  0.00  0.00    +0.000 NA
ENDBRANCH  27  28
ENDBRANCH  26  27
ENDBRANCH  24  26
ENDBRANCH  21  22
ENDBRANCH   7  20
TORSDOF 7
ENDMDL
MODEL 3
REMARK VINA RESULT:      -8.5      1.601      2.694
REMARK  Name = 
REMARK  8 active torsions:
REMARK  status: ('A' for Active; 'I' for Inactive)
REMARK    1  A    between atoms: C_1  and  C_2
REMARK    2  A    between atoms: C_2  and  C_4
REMARK    3  A    between atoms: C_7  and  C_8
REMARK    4  A    between atoms: C_14  and  C_15
REMARK    5  A    between atoms: C_16  and  C_17
REMARK    6  A    between atoms: N_19  and  C_20
REMARK    7  A    between atoms: C_20  and  C_21
REMARK    8  A    between atoms: C_21  and  C_22
REMARK                            x       y       z     vdW  Elec       q    Type
REMARK                         _______ _______ _______ _____ _____    ______ ____
ROOT
ATOM      1  C   UNL     1       4.300   3.857  18.224  0.00  0.00    +0.000 A 
ATOM      2  C   UNL     1       4.232   2.608  18.825  0.00  0.00    +0.000 A 
ATOM      3  N   UNL     1       3.402   2.691  19.911  0.00  0.00    +0.000 N 
ATOM      4  C   UNL     1       2.938   3.968  20.038  0.00  0.00    +0.000 A 
ATOM      5  N   UNL     1       2.108   4.370  21.017  0.00  0.00    +0.000 NA
ATOM      6  C   UNL     1       1.788   5.684  20.926  0.00  0.00    +0.000 A 
ATOM      7  C   UNL     1       2.234   6.582  19.953  0.00  0.00    +0.000 A 
ATOM      8  C   UNL     1       3.076   6.083  18.949  0.00  0.00    +0.000 A 
ATOM      9  C   UNL     1       3.466   4.729  19.000  0.00  0.00    +0.000 A 
ATOM     10  H   UNL     1       3.157   1.942  20.541  0.00  0.00    +0.000 HD
ENDROOT
BRANCH   1  14
ATOM     11  C   UNL     1       6.726   4.710  14.799  0.00  0.00    +0.000 A 
ATOM     12  C   UNL     1       7.265   4.773  16.086  0.00  0.00    +0.000 A 
ATOM     13  C   UNL     1       6.473   4.467  17.196  0.00  0.00    +0.000 A 
ATOM     14  C   UNL     1       5.126   4.108  17.047  0.00  0.00    +0.000 A 
ATOM     15  C   UNL     1       4.594   4.037  15.753  0.00  0.00    +0.000 A 
ATOM     16  C   UNL     1       5.388   4.332  14.637  0.00  0.00    +0.000 A 
BRANCH  11  18
ATOM     17  C   UNL     1       7.168   4.424  12.273  0.00  0.00    +0.000 C 
ATOM     18  C   UNL     1       7.540   5.049  13.594  0.00  0.00    +0.000 C 
ATOM     19  O   UNL     1       8.490   5.822  13.692  0.00  0.00    +0.000 OA
ENDBRANCH  11  18
ENDBRANCH   1  14
BRANCH   7  20
ATOM     20  C   UNL     1       1.764   7.975  19.971  0.00  0.00    +0.000 C 
ATOM     21  C   UNL     1       1.001   8.515  20.940  0.00  0.00    +0.000 C 
BRANCH  21  22
ATOM     22  C   UNL     1       0.615   9.945  20.850  0.00  0.00    +0.000 C 
ATOM     23  O   UNL     1       1.283  10.838  21.355  0.00  0.00    +0.000 OA
ATOM     24  N   UNL     1      -0.550  10.159  20.153  0.00  0.00    +0.000 N 
ATOM     25  H   UNL     1      -1.012   9.390  19.687  0.00  0.00    +0.000 HD
BRANCH  24  26
ATOM     26  C   UNL     1      -1.019  11.517  19.923  0.00  0.00    +0.000 C 
BRANCH  26  27
ATOM     27  C   UNL     1      -0.670  12.045  18.535  0.00  0.00    +0.000 C 
BRANCH  27  28
ATOM     28  C   UNL     1       0.431  13.073  18.597  0.00  0.00    +0.000 A 
ATOM     29  C   UNL     1       0.141  14.417  18.823  0.00  0.00    +0.000 A 
ATOM     30  C   UNL     1       1.189  15.335  18.870  0.00  0.00    +0.000 A 
ATOM     31  C   UNL     1       2.493  14.890  18.700  0.00  0.00    +0.000 A 
ATOM     32  C   UNL     1       2.697  13.536  18.494  0.00  0.00    +0.000 A 
ATOM     33  N   UNL     1       1.700  12.624  18.439  0.00  0.00    +0.000 NA
ENDBRANCH  27  28
ENDBRANCH  26  27
ENDBRANCH  24  26
ENDBRANCH  21  22
ENDBRANCH   7  20
TORSDOF 7
ENDMDL
MODEL 4
REMARK VINA RESULT:      -8.4      3.406      4.437
REMARK  Name = 
REMARK  8 active torsions:
REMARK  status: ('A' for Active; 'I' for Inactive)
REMARK    1  A    between atoms: C_1  and  C_2
REMARK    2  A    between atoms: C_2  and  C_4
REMARK    3  A    between atoms: C_7  and  C_8
REMARK    4  A    between atoms: C_14  and  C_15
REMARK    5  A    between atoms: C_16  and  C_17
REMARK    6  A    between atoms: N_19  and  C_20
REMARK    7  A    between atoms: C_20  and  C_21
REMARK    8  A    between atoms: C_21  and  C_22
REMARK                            x       y       z     vdW  Elec       q    Type
REMARK                         _______ _______ _______ _____ _____    ______ ____
ROOT
ATOM      1  C   UNL     1       3.335   5.694  18.719  0.00  0.00    +0.000 A 
ATOM      2  C   UNL     1       3.217   4.736  19.716  0.00  0.00    +0.000 A 
ATOM      3  N   UNL     1       2.424   5.239  20.713  0.00  0.00    +0.000 N 
ATOM      4  C   UNL     1       2.034   6.507  20.394  0.00  0.00    +0.000 A 
ATOM      5  N   UNL     1       1.255   7.271  21.181  0.00  0.00    +0.000 NA
ATOM      6  C   UNL     1       1.004   8.491  20.643  0.00  0.00    +0.000 A 
ATOM      7  C   UNL     1       1.470   8.970  19.416  0.00  0.00    +0.000 A 
ATOM      8  C   UNL     1       2.254   8.104  18.640  0.00  0.00    +0.000 A 
ATOM      9  C   UNL     1       2.573   6.830  19.153  0.00  0.00    +0.000 A 
ATOM     10  H   UNL     1       2.157   4.769  21.565  0.00  0.00    +0.000 HD
ENDROOT
BRANCH   1  14
ATOM     11  C   UNL     1       5.777   4.991  15.272  0.00  0.00    +0.000 A 
ATOM     12  C   UNL     1       5.105   3.936  15.894  0.00  0.00    +0.000 A 
ATOM     13  C   UNL     1       4.289   4.179  17.002  0.00  0.00    +0.000 A 
ATOM     14  C   UNL     1       4.140   5.473  17.521  0.00  0.00    +0.000 A 
ATOM     15  C   UNL     1       4.808   6.528  16.887  0.00  0.00    +0.000 A 
ATOM     16  C   UNL     1       5.618   6.290  15.769  0.00  0.00    +0.000 A 
BRANCH  11  18
ATOM     17  C   UNL     1       6.246   3.766  13.050  0.00  0.00    +0.000 C 
ATOM     18  C   UNL     1       6.671   4.763  14.098  0.00  0.00    +0.000 C 
ATOM     19  O   UNL     1       7.728   5.383  14.002  0.00  0.00    +0.000 OA
ENDBRANCH  11  18
ENDBRANCH   1  14
BRANCH   7  20
ATOM     20  C   UNL     1       1.077  10.308  18.955  0.00  0.00    +0.000 C 
ATOM     21  C   UNL     1       1.762  11.440  19.209  0.00  0.00    +0.000 C 
BRANCH  21  22
ATOM     22  C   UNL     1       1.268  12.728  18.662  0.00  0.00    +0.000 C 
ATOM     23  O   UNL     1       1.890  13.365  17.821  0.00  0.00    +0.000 OA
ATOM     24  N   UNL     1       0.062  13.124  19.187  0.00  0.00    +0.000 N 
ATOM     25  H   UNL     1      -0.444  12.514  19.816  0.00  0.00    +0.000 HD
BRANCH  24  26
ATOM     26  C   UNL     1      -0.581  14.334  18.697  0.00  0.00    +0.000 C 
BRANCH  26  27
ATOM     27  C   UNL     1      -0.096  15.598  19.400  0.00  0.00    +0.000 C 
BRANCH  27  28
ATOM     28  C   UNL     1       0.255  16.679  18.410  0.00  0.00    +0.000 A 
ATOM     29  C   UNL     1      -0.730  17.513  17.884  0.00  0.00    +0.000 A 
ATOM     30  C   UNL     1      -0.363  18.497  16.968  0.00  0.00    +0.000 A 
ATOM     31  C   UNL     1       0.971  18.630  16.609  0.00  0.00    +0.000 A 
ATOM     32  C   UNL     1       1.890  17.770  17.187  0.00  0.00    +0.000 A 
ATOM     33  N   UNL     1       1.562  16.803  18.074  0.00  0.00    +0.000 NA
ENDBRANCH  27  28
ENDBRANCH  26  27
ENDBRANCH  24  26
ENDBRANCH  21  22
ENDBRANCH   7  20
TORSDOF 7
ENDMDL
MODEL 5
REMARK VINA RESULT:      -8.4      0.896      1.299
REMARK  Name = 
REMARK  8 active torsions:
REMARK  status: ('A' for Active; 'I' for Inactive)
REMARK    1  A    between atoms: C_1  and  C_2
REMARK    2  A    between atoms: C_2  and  C_4
REMARK    3  A    between atoms: C_7  and  C_8
REMARK    4  A    between atoms: C_14  and  C_15
REMARK    5  A    between atoms: C_16  and  C_17
REMARK    6  A    between atoms: N_19  and  C_20
REMARK    7  A    between atoms: C_20  and  C_21
REMARK    8  A    between atoms: C_21  and  C_22
REMARK                            x       y       z     vdW  Elec       q    Type
REMARK                         _______ _______ _______ _____ _____    ______ ____
ROOT
ATOM      1  C   UNL     1       3.686   3.774  17.794  0.00  0.00    +0.000 A 
ATOM      2  C   UNL     1       3.390   2.465  18.148  0.00  0.00    +0.000 A 
ATOM      3  N   UNL     1       2.555   2.485  19.234  0.00  0.00    +0.000 N 
ATOM      4  C   UNL     1       2.312   3.776  19.602  0.00  0.00    +0.000 A 
ATOM      5  N   UNL     1       1.534   4.123  20.644  0.00  0.00    +0.000 NA
ATOM      6  C   UNL     1       1.445   5.466  20.805  0.00  0.00    +0.000 A 
ATOM      7  C   UNL     1       2.064   6.441  20.018  0.00  0.00    +0.000 A 
ATOM      8  C   UNL     1       2.837   6.001  18.933  0.00  0.00    +0.000 A 
ATOM      9  C   UNL     1       2.991   4.615  18.725  0.00  0.00    +0.000 A 
ATOM     10  H   UNL     1       2.169   1.684  19.711  0.00  0.00    +0.000 HD
ENDROOT
BRANCH   1  14
ATOM     11  C   UNL     1       6.389   4.673  14.595  0.00  0.00    +0.000 A 
ATOM     12  C   UNL     1       6.055   3.350  14.894  0.00  0.00    +0.000 A 
ATOM     13  C   UNL     1       5.152   3.067  15.922  0.00  0.00    +0.000 A 
ATOM     14  C   UNL     1       4.576   4.095  16.682  0.00  0.00    +0.000 A 
ATOM     15  C   UNL     1       4.907   5.420  16.372  0.00  0.00    +0.000 A 
ATOM     16  C   UNL     1       5.803   5.708  15.335  0.00  0.00    +0.000 A 
BRANCH  11  18
ATOM     17  C   UNL     1       7.155   4.419  12.145  0.00  0.00    +0.000 C 
ATOM     18  C   UNL     1       7.364   5.009  13.517  0.00  0.00    +0.000 C 
ATOM     19  O   UNL     1       8.314   5.752  13.756  0.00  0.00    +0.000 OA
ENDBRANCH  11  18
ENDBRANCH   1  14
BRANCH   7  20
ATOM     20  C   UNL     1       1.837   7.865  20.301  0.00  0.00    +0.000 C 
ATOM     21  C   UNL     1       0.913   8.339  21.158  0.00  0.00    +0.000 C 
BRANCH  21  22
ATOM     22  C   UNL     1       0.804   9.804  21.372  0.00  0.00    +0.000 C 
ATOM     23  O   UNL     1       0.830  10.307  22.487  0.00  0.00    +0.000 OA
ATOM     24  N   UNL     1       0.671  10.523  20.208  0.00  0.00    +0.000 N 
ATOM     25  H   UNL     1       0.741  10.059  19.313  0.00  0.00    +0.000 HD
BRANCH  24  26
ATOM     26  C   UNL     1       0.621  11.977  20.256  0.00  0.00    +0.000 C 
BRANCH  26  27
ATOM     27  C   UNL     1      -0.060  12.593  19.039  0.00  0.00    +0.000 C 
BRANCH  27  28
ATOM     28  C   UNL     1      -1.185  11.723  18.538  0.00  0.00    +0.000 A 
ATOM     29  C   UNL     1      -2.508  12.004  18.872  0.00  0.00    +0.000 A 
ATOM     30  C   UNL     1      -3.517  11.171  18.391  0.00  0.00    +0.000 A 
ATOM     31  C   UNL     1      -3.182  10.092  17.585  0.00  0.00    +0.000 A 
ATOM     32  C   UNL     1      -1.845   9.890  17.289  0.00  0.00    +0.000 A 
ATOM     33  N   UNL     1      -0.845  10.678  17.746  0.00  0.00    +0.000 NA
ENDBRANCH  27  28
ENDBRANCH  26  27
ENDBRANCH  24  26
ENDBRANCH  21  22
ENDBRANCH   7  20
TORSDOF 7
ENDMDL
MODEL 6
REMARK VINA RESULT:      -8.3      2.899      3.683
REMARK  Name = 
REMARK  8 active torsions:
REMARK  status: ('A' for Active; 'I' for Inactive)
REMARK    1  A    between atoms: C_1  and  C_2
REMARK    2  A    between atoms: C_2  and  C_4
REMARK    3  A    between atoms: C_7  and  C_8
REMARK    4  A    between atoms: C_14  and  C_15
REMARK    5  A    between atoms: C_16  and  C_17
REMARK    6  A    between atoms: N_19  and  C_20
REMARK    7  A    between atoms: C_20  and  C_21
REMARK    8  A    between atoms: C_21  and  C_22
REMARK                            x       y       z     vdW  Elec       q    Type
REMARK                         _______ _______ _______ _____ _____    ______ ____
ROOT
ATOM      1  C   UNL     1       4.452   4.179  18.151  0.00  0.00    +0.000 A 
ATOM      2  C   UNL     1       4.439   2.989  18.865  0.00  0.00    +0.000 A 
ATOM      3  N   UNL     1       3.600   3.133  19.938  0.00  0.00    +0.000 N 
ATOM      4  C   UNL     1       3.076   4.394  19.945  0.00  0.00    +0.000 A 
ATOM      5  N   UNL     1       2.223   4.844  20.882  0.00  0.00    +0.000 NA
ATOM      6  C   UNL     1       1.842   6.128  20.669  0.00  0.00    +0.000 A 
ATOM      7  C   UNL     1       2.251   6.953  19.617  0.00  0.00    +0.000 A 
ATOM      8  C   UNL     1       3.121   6.402  18.665  0.00  0.00    +0.000 A 
ATOM      9  C   UNL     1       3.574   5.079  18.842  0.00  0.00    +0.000 A 
ATOM     10  H   UNL     1       3.387   2.435  20.634  0.00  0.00    +0.000 HD
ENDROOT
BRANCH   1  14
ATOM     11  C   UNL     1       6.812   4.815  14.633  0.00  0.00    +0.000 A 
ATOM     12  C   UNL     1       7.095   5.505  15.814  0.00  0.00    +0.000 A 
ATOM     13  C   UNL     1       6.337   5.272  16.964  0.00  0.00    +0.000 A 
ATOM     14  C   UNL     1       5.272   4.359  16.956  0.00  0.00    +0.000 A 
ATOM     15  C   UNL     1       4.999   3.663  15.772  0.00  0.00    +0.000 A 
ATOM     16  C   UNL     1       5.765   3.886  14.620  0.00  0.00    +0.000 A 
BRANCH  11  18
ATOM     17  C   UNL     1       7.183   4.324  12.128  0.00  0.00    +0.000 C 
ATOM     18  C   UNL     1       7.590   5.055  13.382  0.00  0.00    +0.000 C 
ATOM     19  O   UNL     1       8.539   5.835  13.390  0.00  0.00    +0.000 OA
ENDBRANCH  11  18
ENDBRANCH   1  14
BRANCH   7  20
ATOM     20  C   UNL     1       1.716   8.317  19.505  0.00  0.00    +0.000 C 
ATOM     21  C   UNL     1       1.509   8.967  18.344  0.00  0.00    +0.000 C 
BRANCH  21  22
ATOM     22  C   UNL     1       0.939  10.337  18.370  0.00  0.00    +0.000 C 
ATOM     23  O   UNL     1      -0.267  10.545  18.409  0.00  0.00    +0.000 OA
ATOM     24  N   UNL     1       1.888  11.330  18.345  0.00  0.00    +0.000 N 
ATOM     25  H   UNL     1       2.870  11.096  18.399  0.00  0.00    +0.000 HD
BRANCH  24  26
ATOM     26  C   UNL     1       1.482  12.725  18.434  0.00  0.00    +0.000 C 
BRANCH  26  27
ATOM     27  C   UNL     1       2.619  13.656  18.843  0.00  0.00    +0.000 C 
BRANCH  27  28
ATOM     28  C   UNL     1       2.376  15.065  18.364  0.00  0.00    +0.000 A 
ATOM     29  C   UNL     1       3.260  15.681  17.480  0.00  0.00    +0.000 A 
ATOM     30  C   UNL     1       2.999  16.986  17.066  0.00  0.00    +0.000 A 
ATOM     31  C   UNL     1       1.865  17.636  17.533  0.00  0.00    +0.000 A 
ATOM     32  C   UNL     1       1.031  16.948  18.399  0.00  0.00    +0.000 A 
ATOM     33  N   UNL     1       1.261  15.684  18.822  0.00  0.00    +0.000 NA
ENDBRANCH  27  28
ENDBRANCH  26  27
ENDBRANCH  24  26
ENDBRANCH  21  22
ENDBRANCH   7  20
TORSDOF 7
ENDMDL
MODEL 7
REMARK VINA RESULT:      -8.3      1.718      2.849
REMARK  Name = 
REMARK  8 active torsions:
REMARK  status: ('A' for Active; 'I' for Inactive)
REMARK    1  A    between atoms: C_1  and  C_2
REMARK    2  A    between atoms: C_2  and  C_4
REMARK    3  A    between atoms: C_7  and  C_8
REMARK    4  A    between atoms: C_14  and  C_15
REMARK    5  A    between atoms: C_16  and  C_17
REMARK    6  A    between atoms: N_19  and  C_20
REMARK    7  A    between atoms: C_20  and  C_21
REMARK    8  A    between atoms: C_21  and  C_22
REMARK                            x       y       z     vdW  Elec       q    Type
REMARK                         _______ _______ _______ _____ _____    ______ ____
ROOT
ATOM      1  C   UNL     1       4.303   4.069  18.087  0.00  0.00    +0.000 A 
ATOM      2  C   UNL     1       4.234   2.802  18.648  0.00  0.00    +0.000 A 
ATOM      3  N   UNL     1       3.412   2.854  19.743  0.00  0.00    +0.000 N 
ATOM      4  C   UNL     1       2.956   4.128  19.914  0.00  0.00    +0.000 A 
ATOM      5  N   UNL     1       2.136   4.502  20.913  0.00  0.00    +0.000 NA
ATOM      6  C   UNL     1       1.822   5.820  20.867  0.00  0.00    +0.000 A 
ATOM      7  C   UNL     1       2.264   6.747  19.920  0.00  0.00    +0.000 A 
ATOM      8  C   UNL     1       3.096   6.276  18.894  0.00  0.00    +0.000 A 
ATOM      9  C   UNL     1       3.480   4.920  18.898  0.00  0.00    +0.000 A 
ATOM     10  H   UNL     1       3.169   2.086  20.350  0.00  0.00    +0.000 HD
ENDROOT
BRANCH   1  14
ATOM     11  C   UNL     1       6.705   4.790  14.615  0.00  0.00    +0.000 A 
ATOM     12  C   UNL     1       5.366   4.411  14.487  0.00  0.00    +0.000 A 
ATOM     13  C   UNL     1       4.583   4.204  15.626  0.00  0.00    +0.000 A 
ATOM     14  C   UNL     1       5.121   4.354  16.912  0.00  0.00    +0.000 A 
ATOM     15  C   UNL     1       6.461   4.743  17.033  0.00  0.00    +0.000 A 
ATOM     16  C   UNL     1       7.247   4.963  15.894  0.00  0.00    +0.000 A 
BRANCH  11  18
ATOM     17  C   UNL     1       7.220   4.293  12.136  0.00  0.00    +0.000 C 
ATOM     18  C   UNL     1       7.575   5.000  13.420  0.00  0.00    +0.000 C 
ATOM     19  O   UNL     1       8.556   5.736  13.496  0.00  0.00    +0.000 OA
ENDBRANCH  11  18
ENDBRANCH   1  14
BRANCH   7  20
ATOM     20  C   UNL     1       1.802   8.140  19.987  0.00  0.00    +0.000 C 
ATOM     21  C   UNL     1       0.887   8.605  20.859  0.00  0.00    +0.000 C 
BRANCH  21  22
ATOM     22  C   UNL     1       0.525  10.044  20.837  0.00  0.00    +0.000 C 
ATOM     23  O   UNL     1       1.157  10.889  21.457  0.00  0.00    +0.000 OA
ATOM     24  N   UNL     1      -0.575  10.324  20.062  0.00  0.00    +0.000 N 
ATOM     25  H   UNL     1      -1.004   9.597  19.506  0.00  0.00    +0.000 HD
BRANCH  24  26
ATOM     26  C   UNL     1      -1.008  11.703  19.889  0.00  0.00    +0.000 C 
BRANCH  26  27
ATOM     27  C   UNL     1      -0.516  12.327  18.587  0.00  0.00    +0.000 C 
BRANCH  27  28
ATOM     28  C   UNL     1       0.690  13.203  18.818  0.00  0.00    +0.000 A 
ATOM     29  C   UNL     1       1.933  12.860  18.290  0.00  0.00    +0.000 A 
ATOM     30  C   UNL     1       3.022  13.696  18.531  0.00  0.00    +0.000 A 
ATOM     31  C   UNL     1       2.841  14.851  19.279  0.00  0.00    +0.000 A 
ATOM     32  C   UNL     1       1.571  15.126  19.756  0.00  0.00    +0.000 A 
ATOM     33  N   UNL     1       0.498  14.331  19.543  0.00  0.00    +0.000 NA
ENDBRANCH  27  28
ENDBRANCH  26  27
ENDBRANCH  24  26
ENDBRANCH  21  22
ENDBRANCH   7  20
TORSDOF 7
ENDMDL
MODEL 8
REMARK VINA RESULT:      -8.3      3.225      4.401
REMARK  Name = 
REMARK  8 active torsions:
REMARK  status: ('A' for Active; 'I' for Inactive)
REMARK    1  A    between atoms: C_1  and  C_2
REMARK    2  A    between atoms: C_2  and  C_4
REMARK    3  A    between atoms: C_7  and  C_8
REMARK    4  A    between atoms: C_14  and  C_15
REMARK    5  A    between atoms: C_16  and  C_17
REMARK    6  A    between atoms: N_19  and  C_20
REMARK    7  A    between atoms: C_20  and  C_21
REMARK    8  A    between atoms: C_21  and  C_22
REMARK                            x       y       z     vdW  Elec       q    Type
REMARK                         _______ _______ _______ _____ _____    ______ ____
ROOT
ATOM      1  C   UNL     1       3.331   5.703  18.834  0.00  0.00    +0.000 A 
ATOM      2  C   UNL     1       3.289   4.781  19.870  0.00  0.00    +0.000 A 
ATOM      3  N   UNL     1       2.490   5.278  20.865  0.00  0.00    +0.000 N 
ATOM      4  C   UNL     1       2.021   6.509  20.505  0.00  0.00    +0.000 A 
ATOM      5  N   UNL     1       1.217   7.259  21.279  0.00  0.00    +0.000 NA
ATOM      6  C   UNL     1       0.886   8.439  20.700  0.00  0.00    +0.000 A 
ATOM      7  C   UNL     1       1.298   8.894  19.445  0.00  0.00    +0.000 A 
ATOM      8  C   UNL     1       2.114   8.043  18.685  0.00  0.00    +0.000 A 
ATOM      9  C   UNL     1       2.515   6.810  19.240  0.00  0.00    +0.000 A 
ATOM     10  H   UNL     1       2.268   4.829  21.740  0.00  0.00    +0.000 HD
ENDROOT
BRANCH   1  14
ATOM     11  C   UNL     1       5.741   5.007  15.362  0.00  0.00    +0.000 A 
ATOM     12  C   UNL     1       5.213   3.936  16.088  0.00  0.00    +0.000 A 
ATOM     13  C   UNL     1       4.407   4.173  17.204  0.00  0.00    +0.000 A 
ATOM     14  C   UNL     1       4.122   5.480  17.627  0.00  0.00    +0.000 A 
ATOM     15  C   UNL     1       4.646   6.549  16.890  0.00  0.00    +0.000 A 
ATOM     16  C   UNL     1       5.446   6.316  15.763  0.00  0.00    +0.000 A 
BRANCH  11  18
ATOM     17  C   UNL     1       6.228   3.739  13.169  0.00  0.00    +0.000 C 
ATOM     18  C   UNL     1       6.622   4.789  14.176  0.00  0.00    +0.000 C 
ATOM     19  O   UNL     1       7.643   5.458  14.039  0.00  0.00    +0.000 OA
ENDBRANCH  11  18
ENDBRANCH   1  14
BRANCH   7  20
ATOM     20  C   UNL     1       0.819  10.188  18.941  0.00  0.00    +0.000 C 
ATOM     21  C   UNL     1      -0.249  10.853  19.422  0.00  0.00    +0.000 C 
BRANCH  21  22
ATOM     22  C   UNL     1      -0.611  12.168  18.838  0.00  0.00    +0.000 C 
ATOM     23  O   UNL     1      -1.152  12.273  17.745  0.00  0.00    +0.000 OA
ATOM     24  N   UNL     1      -0.282  13.236  19.638  0.00  0.00    +0.000 N 
ATOM     25  H   UNL     1       0.086  13.081  20.566  0.00  0.00    +0.000 HD
BRANCH  24  26
ATOM     26  C   UNL     1      -0.639  14.586  19.227  0.00  0.00    +0.000 C 
BRANCH  26  27
ATOM     27  C   UNL     1       0.296  15.651  19.792  0.00  0.00    +0.000 C 
BRANCH  27  28
ATOM     28  C   UNL     1       1.150  16.263  18.711  0.00  0.00    +0.000 A 
ATOM     29  C   UNL     1       2.411  15.746  18.419  0.00  0.00    +0.000 A 
ATOM     30  C   UNL     1       3.169  16.344  17.414  0.00  0.00    +0.000 A 
ATOM     31  C   UNL     1       2.650  17.432  16.725  0.00  0.00    +0.000 A 
ATOM     32  C   UNL     1       1.384  17.876  17.068  0.00  0.00    +0.000 A 
ATOM     33  N   UNL     1       0.628  17.318  18.041  0.00  0.00    +0.000 NA
ENDBRANCH  27  28
ENDBRANCH  26  27
ENDBRANCH  24  26
ENDBRANCH  21  22
ENDBRANCH   7  20
TORSDOF 7
ENDMDL
MODEL 9
REMARK VINA RESULT:      -8.2      3.127      4.269
REMARK  Name = 
REMARK  8 active torsions:
REMARK  status: ('A' for Active; 'I' for Inactive)
REMARK    1  A    between atoms: C_1  and  C_2
REMARK    2  A    between atoms: C_2  and  C_4
REMARK    3  A    between atoms: C_7  and  C_8
REMARK    4  A    between atoms: C_14  and  C_15
REMARK    5  A    between atoms: C_16  and  C_17
REMARK    6  A    between atoms: N_19  and  C_20
REMARK    7  A    between atoms: C_20  and  C_21
REMARK    8  A    between atoms: C_21  and  C_22
REMARK                            x       y       z     vdW  Elec       q    Type
REMARK                         _______ _______ _______ _____ _____    ______ ____
ROOT
ATOM      1  C   UNL     1       4.486   4.202  18.111  0.00  0.00    +0.000 A 
ATOM      2  C   UNL     1       4.535   3.049  18.881  0.00  0.00    +0.000 A 
ATOM      3  N   UNL     1       3.719   3.216  19.968  0.00  0.00    +0.000 N 
ATOM      4  C   UNL     1       3.152   4.457  19.931  0.00  0.00    +0.000 A 
ATOM      5  N   UNL     1       2.308   4.923  20.869  0.00  0.00    +0.000 NA
ATOM      6  C   UNL     1       1.877   6.181  20.606  0.00  0.00    +0.000 A 
ATOM      7  C   UNL     1       2.228   6.967  19.506  0.00  0.00    +0.000 A 
ATOM      8  C   UNL     1       3.092   6.401  18.556  0.00  0.00    +0.000 A 
ATOM      9  C   UNL     1       3.596   5.105  18.783  0.00  0.00    +0.000 A 
ATOM     10  H   UNL     1       3.550   2.545  20.702  0.00  0.00    +0.000 HD
ENDROOT
BRANCH   1  14
ATOM     11  C   UNL     1       6.792   4.758  14.544  0.00  0.00    +0.000 A 
ATOM     12  C   UNL     1       7.398   4.828  15.801  0.00  0.00    +0.000 A 
ATOM     13  C   UNL     1       6.643   4.619  16.958  0.00  0.00    +0.000 A 
ATOM     14  C   UNL     1       5.268   4.352  16.887  0.00  0.00    +0.000 A 
ATOM     15  C   UNL     1       4.668   4.275  15.624  0.00  0.00    +0.000 A 
ATOM     16  C   UNL     1       5.424   4.472  14.461  0.00  0.00    +0.000 A 
BRANCH  11  18
ATOM     17  C   UNL     1       7.203   4.204  12.058  0.00  0.00    +0.000 C 
ATOM     18  C   UNL     1       7.565   4.996  13.289  0.00  0.00    +0.000 C 
ATOM     19  O   UNL     1       8.475   5.822  13.276  0.00  0.00    +0.000 OA
ENDBRANCH  11  18
ENDBRANCH   1  14
BRANCH   7  20
ATOM     20  C   UNL     1       1.643   8.305  19.345  0.00  0.00    +0.000 C 
ATOM     21  C   UNL     1       1.939   9.157  18.344  0.00  0.00    +0.000 C 
BRANCH  21  22
ATOM     22  C   UNL     1       1.256  10.473  18.284  0.00  0.00    +0.000 C 
ATOM     23  O   UNL     1       0.037  10.581  18.295  0.00  0.00    +0.000 OA
ATOM     24  N   UNL     1       2.120  11.540  18.215  0.00  0.00    +0.000 N 
ATOM     25  H   UNL     1       3.116  11.393  18.295  0.00  0.00    +0.000 HD
BRANCH  24  26
ATOM     26  C   UNL     1       1.596  12.898  18.219  0.00  0.00    +0.000 C 
BRANCH  26  27
ATOM     27  C   UNL     1       1.973  13.682  19.472  0.00  0.00    +0.000 C 
BRANCH  27  28
ATOM     28  C   UNL     1       3.365  14.253  19.366  0.00  0.00    +0.000 A 
ATOM     29  C   UNL     1       4.022  14.744  20.493  0.00  0.00    +0.000 A 
ATOM     30  C   UNL     1       5.306  15.267  20.350  0.00  0.00    +0.000 A 
ATOM     31  C   UNL     1       5.902  15.278  19.096  0.00  0.00    +0.000 A 
ATOM     32  C   UNL     1       5.186  14.759  18.031  0.00  0.00    +0.000 A 
ATOM     33  N   UNL     1       3.937  14.251  18.138  0.00  0.00    +0.000 NA
ENDBRANCH  27  28
ENDBRANCH  26  27
ENDBRANCH  24  26
ENDBRANCH  21  22
ENDBRANCH   7  20
TORSDOF 7
ENDMDL
