MODEL 1
REMARK VINA RESULT:     -10.6      0.000      0.000
REMARK  Name = 
REMARK  2 active torsions:
REMARK  status: ('A' for Active; 'I' for Inactive)
REMARK    1  A    between atoms: C_1  and  N_2
REMARK    2  A    between atoms: C_3  and  C_4
REMARK                            x       y       z     vdW  Elec       q    Type
REMARK                         _______ _______ _______ _____ _____    ______ ____
ROOT
ATOM      1  C   UNL     1       3.457   5.624  17.779  0.00  0.00    +0.000 C 
ATOM      2  C   UNL     1       2.977   4.352  18.469  0.00  0.00    +0.000 C 
ATOM      3  C   UNL     1       3.712   3.757  19.434  0.00  0.00    +0.000 C 
ATOM      4  C   UNL     1       3.197   2.594  20.246  0.00  0.00    +0.000 C 
ATOM      5  C   UNL     1       1.677   2.463  20.161  0.00  0.00    +0.000 C 
ATOM      6  C   UNL     1       1.198   2.514  18.721  0.00  0.00    +0.000 C 
ATOM      7  C   UNL     1       1.676   3.774  18.038  0.00  0.00    +0.000 C 
ATOM      8  O   UNL     1       1.058   4.253  17.087  0.00  0.00    +0.000 OA
ATOM      9  N   UNL     1       4.985   4.230  19.723  0.00  0.00    +0.000 N 
ATOM     10  C   UNL     1       5.657   5.108  18.885  0.00  0.00    +0.000 C 
ATOM     11  C   UNL     1       4.977   5.751  17.907  0.00  0.00    +0.000 C 
ATOM     12  C   UNL     1       5.711   6.511  16.862  0.00  0.00    +0.000 C 
ATOM     13  O   UNL     1       5.115   7.052  15.932  0.00  0.00    +0.000 OA
ATOM     14  C   UNL     1       7.227   6.473  16.899  0.00  0.00    +0.000 C 
ATOM     15  C   UNL     1       7.719   6.470  18.335  0.00  0.00    +0.000 C 
ATOM     16  C   UNL     1       7.144   5.286  19.106  0.00  0.00    +0.000 C 
ATOM     17  H   UNL     1       5.534   3.721  20.410  0.00  0.00    +0.000 HD
ENDROOT
BRANCH   1  20
ATOM     18  C   UNL     1       2.393   6.009  20.737  0.00  0.00    +0.000 C 
ATOM     19  N   UNL     1       2.267   6.961  19.655  0.00  0.00    +0.000 N 
ATOM     20  C   UNL     1       2.736   6.844  18.362  0.00  0.00    +0.000 A 
ATOM     21  C   UNL     1       2.447   8.045  17.729  0.00  0.00    +0.000 A 
ATOM     22  C   UNL     1       1.716   8.871  18.619  0.00  0.00    +0.000 A 
ATOM     23  C   UNL     1       1.127  10.146  18.514  0.00  0.00    +0.000 A 
ATOM     24  C   UNL     1       0.423  10.673  19.603  0.00  0.00    +0.000 A 
ATOM     25  C   UNL     1       0.312   9.951  20.787  0.00  0.00    +0.000 A 
ATOM     26  C   UNL     1       0.903   8.692  20.919  0.00  0.00    +0.000 A 
ATOM     27  C   UNL     1       1.601   8.168  19.816  0.00  0.00    +0.000 A 
ENDBRANCH   1  20
TORSDOF 1
ENDMDL
MODEL 2
REMARK VINA RESULT:     -10.1      0.651      1.548
REMARK  Name = 
REMARK  2 active torsions:
REMARK  status: ('A' for Active; 'I' for Inactive)
REMARK    1  A    between atoms: C_1  and  N_2
REMARK    2  A    between atoms: C_3  and  C_4
REMARK                            x       y       z     vdW  Elec       q    Type
REMARK                         _______ _______ _______ _____ _____    ______ ____
ROOT
ATOM      1  C   UNL     1       3.404   5.655  18.078  0.00  0.00    +0.000 C 
ATOM      2  C   UNL     1       3.002   4.258  18.536  0.00  0.00    +0.000 C 
ATOM      3  C   UNL     1       3.803   3.525  19.340  0.00  0.00    +0.000 C 
ATOM      4  C   UNL     1       3.369   2.210  19.939  0.00  0.00    +0.000 C 
ATOM      5  C   UNL     1       1.852   2.034  19.895  0.00  0.00    +0.000 C 
ATOM      6  C   UNL     1       1.300   2.332  18.512  0.00  0.00    +0.000 C 
ATOM      7  C   UNL     1       1.701   3.717  18.059  0.00  0.00    +0.000 C 
ATOM      8  O   UNL     1       1.021   4.337  17.242  0.00  0.00    +0.000 OA
ATOM      9  N   UNL     1       5.072   3.990  19.659  0.00  0.00    +0.000 N 
ATOM     10  C   UNL     1       5.672   5.036  18.974  0.00  0.00    +0.000 C 
ATOM     11  C   UNL     1       4.923   5.821  18.164  0.00  0.00    +0.000 C 
ATOM     12  C   UNL     1       5.579   6.793  17.251  0.00  0.00    +0.000 C 
ATOM     13  O   UNL     1       4.919   7.472  16.465  0.00  0.00    +0.000 OA
ATOM     14  C   UNL     1       7.095   6.813  17.216  0.00  0.00    +0.000 C 
ATOM     15  C   UNL     1       7.657   6.563  18.604  0.00  0.00    +0.000 C 
ATOM     16  C   UNL     1       7.161   5.233  19.162  0.00  0.00    +0.000 C 
ATOM     17  H   UNL     1       5.671   3.386  20.214  0.00  0.00    +0.000 HD
ENDROOT
BRANCH   1  20
ATOM     18  C   UNL     1       2.308   8.462  17.103  0.00  0.00    +0.000 C 
ATOM     19  N   UNL     1       2.230   7.938  18.449  0.00  0.00    +0.000 N 
ATOM     20  C   UNL     1       2.672   6.714  18.910  0.00  0.00    +0.000 A 
ATOM     21  C   UNL     1       2.295   6.637  20.245  0.00  0.00    +0.000 A 
ATOM     22  C   UNL     1       1.695   7.863  20.624  0.00  0.00    +0.000 A 
ATOM     23  C   UNL     1       1.179   8.370  21.834  0.00  0.00    +0.000 A 
ATOM     24  C   UNL     1       0.678   9.676  21.877  0.00  0.00    +0.000 A 
ATOM     25  C   UNL     1       0.675  10.469  20.734  0.00  0.00    +0.000 A 
ATOM     26  C   UNL     1       1.166   9.981  19.521  0.00  0.00    +0.000 A 
ATOM     27  C   UNL     1       1.676   8.671  19.490  0.00  0.00    +0.000 A 
ENDBRANCH   1  20
TORSDOF 1
ENDMDL
MODEL 3
REMARK VINA RESULT:      -8.7      8.249     10.750
REMARK  Name = 
REMARK  2 active torsions:
REMARK  status: ('A' for Active; 'I' for Inactive)
REMARK    1  A    between atoms: C_1  and  N_2
REMARK    2  A    between atoms: C_3  and  C_4
REMARK                            x       y       z     vdW  Elec       q    Type
REMARK                         _______ _______ _______ _____ _____    ______ ____
ROOT
ATOM      1  C   UNL     1       8.865  14.635  19.669  0.00  0.00    +0.000 C 
ATOM      2  C   UNL     1       9.743  15.580  18.857  0.00  0.00    +0.000 C 
ATOM      3  C   UNL     1      10.349  15.171  17.720  0.00  0.00    +0.000 C 
ATOM      4  C   UNL     1      11.091  16.119  16.810  0.00  0.00    +0.000 C 
ATOM      5  C   UNL     1      10.721  17.577  17.075  0.00  0.00    +0.000 C 
ATOM      6  C   UNL     1      10.795  17.906  18.556  0.00  0.00    +0.000 C 
ATOM      7  C   UNL     1       9.925  16.967  19.360  0.00  0.00    +0.000 C 
ATOM      8  O   UNL     1       9.464  17.308  20.449  0.00  0.00    +0.000 OA
ATOM      9  N   UNL     1      10.281  13.837  17.343  0.00  0.00    +0.000 N 
ATOM     10  C   UNL     1       9.859  12.842  18.212  0.00  0.00    +0.000 C 
ATOM     11  C   UNL     1       9.231  13.180  19.361  0.00  0.00    +0.000 C 
ATOM     12  C   UNL     1       8.979  12.154  20.406  0.00  0.00    +0.000 C 
ATOM     13  O   UNL     1       8.462  12.455  21.481  0.00  0.00    +0.000 OA
ATOM     14  C   UNL     1       9.512  10.756  20.162  0.00  0.00    +0.000 C 
ATOM     15  C   UNL     1       9.399  10.399  18.691  0.00  0.00    +0.000 C 
ATOM     16  C   UNL     1      10.148  11.406  17.825  0.00  0.00    +0.000 C 
ATOM     17  H   UNL     1      10.799  13.552  16.516  0.00  0.00    +0.000 HD
ENDROOT
BRANCH   1  20
ATOM     18  C   UNL     1       6.624  15.444  21.756  0.00  0.00    +0.000 C 
ATOM     19  N   UNL     1       6.435  15.246  20.335  0.00  0.00    +0.000 N 
ATOM     20  C   UNL     1       7.386  14.918  19.389  0.00  0.00    +0.000 A 
ATOM     21  C   UNL     1       6.738  14.928  18.161  0.00  0.00    +0.000 A 
ATOM     22  C   UNL     1       5.359  15.179  18.370  0.00  0.00    +0.000 A 
ATOM     23  C   UNL     1       4.236  15.253  17.522  0.00  0.00    +0.000 A 
ATOM     24  C   UNL     1       2.971  15.487  18.072  0.00  0.00    +0.000 A 
ATOM     25  C   UNL     1       2.818  15.658  19.444  0.00  0.00    +0.000 A 
ATOM     26  C   UNL     1       3.920  15.606  20.301  0.00  0.00    +0.000 A 
ATOM     27  C   UNL     1       5.186  15.362  19.740  0.00  0.00    +0.000 A 
ENDBRANCH   1  20
TORSDOF 1
ENDMDL
MODEL 4
REMARK VINA RESULT:      -8.7      6.398      9.347
REMARK  Name = 
REMARK  2 active torsions:
REMARK  status: ('A' for Active; 'I' for Inactive)
REMARK    1  A    between atoms: C_1  and  N_2
REMARK    2  A    between atoms: C_3  and  C_4
REMARK                            x       y       z     vdW  Elec       q    Type
REMARK                         _______ _______ _______ _____ _____    ______ ____
ROOT
ATOM      1  C   UNL     1      -1.451  11.699  19.675  0.00  0.00    +0.000 C 
ATOM      2  C   UNL     1      -2.320  11.309  18.484  0.00  0.00    +0.000 C 
ATOM      3  C   UNL     1      -3.572  11.795  18.340  0.00  0.00    +0.000 C 
ATOM      4  C   UNL     1      -4.398  11.558  17.099  0.00  0.00    +0.000 C 
ATOM      5  C   UNL     1      -3.540  11.109  15.917  0.00  0.00    +0.000 C 
ATOM      6  C   UNL     1      -2.610   9.973  16.308  0.00  0.00    +0.000 C 
ATOM      7  C   UNL     1      -1.752  10.361  17.489  0.00  0.00    +0.000 C 
ATOM      8  O   UNL     1      -0.655   9.834  17.674  0.00  0.00    +0.000 OA
ATOM      9  N   UNL     1      -4.135  12.565  19.350  0.00  0.00    +0.000 N 
ATOM     10  C   UNL     1      -3.587  12.632  20.622  0.00  0.00    +0.000 C 
ATOM     11  C   UNL     1      -2.330  12.178  20.833  0.00  0.00    +0.000 C 
ATOM     12  C   UNL     1      -1.812  12.028  22.219  0.00  0.00    +0.000 C 
ATOM     13  O   UNL     1      -0.694  11.561  22.433  0.00  0.00    +0.000 OA
ATOM     14  C   UNL     1      -2.761  12.333  23.361  0.00  0.00    +0.000 C 
ATOM     15  C   UNL     1      -3.664  13.499  22.999  0.00  0.00    +0.000 C 
ATOM     16  C   UNL     1      -4.450  13.206  21.726  0.00  0.00    +0.000 C 
ATOM     17  H   UNL     1      -5.100  12.862  19.236  0.00  0.00    +0.000 HD
ENDROOT
BRANCH   1  20
ATOM     18  C   UNL     1       1.589  11.273  18.898  0.00  0.00    +0.000 C 
ATOM     19  N   UNL     1       0.892  12.539  18.948  0.00  0.00    +0.000 N 
ATOM     20  C   UNL     1      -0.435  12.767  19.257  0.00  0.00    +0.000 A 
ATOM     21  C   UNL     1      -0.650  14.128  19.086  0.00  0.00    +0.000 A 
ATOM     22  C   UNL     1       0.578  14.750  18.753  0.00  0.00    +0.000 A 
ATOM     23  C   UNL     1       0.971  16.083  18.517  0.00  0.00    +0.000 A 
ATOM     24  C   UNL     1       2.313  16.369  18.242  0.00  0.00    +0.000 A 
ATOM     25  C   UNL     1       3.256  15.347  18.188  0.00  0.00    +0.000 A 
ATOM     26  C   UNL     1       2.885  14.016  18.401  0.00  0.00    +0.000 A 
ATOM     27  C   UNL     1       1.536  13.741  18.686  0.00  0.00    +0.000 A 
ENDBRANCH   1  20
TORSDOF 1
ENDMDL
MODEL 5
REMARK VINA RESULT:      -8.6      5.585      8.040
REMARK  Name = 
REMARK  2 active torsions:
REMARK  status: ('A' for Active; 'I' for Inactive)
REMARK    1  A    between atoms: C_1  and  N_2
REMARK    2  A    between atoms: C_3  and  C_4
REMARK                            x       y       z     vdW  Elec       q    Type
REMARK                         _______ _______ _______ _____ _____    ______ ____
ROOT
ATOM      1  C   UNL     1       0.441  11.617  19.807  0.00  0.00    +0.000 C 
ATOM      2  C   UNL     1      -0.165  11.681  21.204  0.00  0.00    +0.000 C 
ATOM      3  C   UNL     1      -0.449  12.865  21.792  0.00  0.00    +0.000 C 
ATOM      4  C   UNL     1      -1.193  12.963  23.101  0.00  0.00    +0.000 C 
ATOM      5  C   UNL     1      -1.933  11.670  23.439  0.00  0.00    +0.000 C 
ATOM      6  C   UNL     1      -1.025  10.460  23.296  0.00  0.00    +0.000 C 
ATOM      7  C   UNL     1      -0.424  10.399  21.911  0.00  0.00    +0.000 C 
ATOM      8  O   UNL     1      -0.067   9.327  21.423  0.00  0.00    +0.000 OA
ATOM      9  N   UNL     1      -0.072  14.050  21.175  0.00  0.00    +0.000 N 
ATOM     10  C   UNL     1       0.829  14.082  20.121  0.00  0.00    +0.000 C 
ATOM     11  C   UNL     1       1.146  12.935  19.477  0.00  0.00    +0.000 C 
ATOM     12  C   UNL     1       2.271  12.909  18.506  0.00  0.00    +0.000 C 
ATOM     13  O   UNL     1       2.612  11.863  17.956  0.00  0.00    +0.000 OA
ATOM     14  C   UNL     1       3.077  14.181  18.328  0.00  0.00    +0.000 C 
ATOM     15  C   UNL     1       2.171  15.396  18.423  0.00  0.00    +0.000 C 
ATOM     16  C   UNL     1       1.431  15.423  19.756  0.00  0.00    +0.000 C 
ATOM     17  H   UNL     1      -0.245  14.918  21.673  0.00  0.00    +0.000 HD
ENDROOT
BRANCH   1  20
ATOM     18  C   UNL     1       0.419   9.223  17.733  0.00  0.00    +0.000 C 
ATOM     19  N   UNL     1      -0.601  10.238  17.874  0.00  0.00    +0.000 N 
ATOM     20  C   UNL     1      -0.643  11.281  18.777  0.00  0.00    +0.000 A 
ATOM     21  C   UNL     1      -1.857  11.926  18.577  0.00  0.00    +0.000 A 
ATOM     22  C   UNL     1      -2.524  11.323  17.483  0.00  0.00    +0.000 A 
ATOM     23  C   UNL     1      -3.735  11.579  16.809  0.00  0.00    +0.000 A 
ATOM     24  C   UNL     1      -4.091  10.794  15.707  0.00  0.00    +0.000 A 
ATOM     25  C   UNL     1      -3.265   9.759  15.281  0.00  0.00    +0.000 A 
ATOM     26  C   UNL     1      -2.068   9.476  15.945  0.00  0.00    +0.000 A 
ATOM     27  C   UNL     1      -1.715  10.277  17.046  0.00  0.00    +0.000 A 
ENDBRANCH   1  20
TORSDOF 1
ENDMDL
MODEL 6
REMARK VINA RESULT:      -8.6      6.479      9.868
REMARK  Name = 
REMARK  2 active torsions:
REMARK  status: ('A' for Active; 'I' for Inactive)
REMARK    1  A    between atoms: C_1  and  N_2
REMARK    2  A    between atoms: C_3  and  C_4
REMARK                            x       y       z     vdW  Elec       q    Type
REMARK                         _______ _______ _______ _____ _____    ______ ____
ROOT
ATOM      1  C   UNL     1      -1.711  12.974  21.347  0.00  0.00    +0.000 C 
ATOM      2  C   UNL     1      -0.898  13.980  20.540  0.00  0.00    +0.000 C 
ATOM      3  C   UNL     1       0.142  13.587  19.772  0.00  0.00    +0.000 C 
ATOM      4  C   UNL     1       0.866  14.528  18.841  0.00  0.00    +0.000 C 
ATOM      5  C   UNL     1       0.052  15.789  18.554  0.00  0.00    +0.000 C 
ATOM      6  C   UNL     1      -0.469  16.415  19.836  0.00  0.00    +0.000 C 
ATOM      7  C   UNL     1      -1.274  15.416  20.635  0.00  0.00    +0.000 C 
ATOM      8  O   UNL     1      -2.149  15.788  21.415  0.00  0.00    +0.000 OA
ATOM      9  N   UNL     1       0.565  12.265  19.808  0.00  0.00    +0.000 N 
ATOM     10  C   UNL     1       0.158  11.383  20.797  0.00  0.00    +0.000 C 
ATOM     11  C   UNL     1      -0.888  11.707  21.592  0.00  0.00    +0.000 C 
ATOM     12  C   UNL     1      -1.194  10.891  22.796  0.00  0.00    +0.000 C 
ATOM     13  O   UNL     1      -2.103  11.204  23.563  0.00  0.00    +0.000 OA
ATOM     14  C   UNL     1      -0.256   9.746  23.126  0.00  0.00    +0.000 C 
ATOM     15  C   UNL     1       0.235   9.083  21.851  0.00  0.00    +0.000 C 
ATOM     16  C   UNL     1       0.933  10.091  20.945  0.00  0.00    +0.000 C 
ATOM     17  H   UNL     1       1.388  12.017  19.266  0.00  0.00    +0.000 HD
ENDROOT
BRANCH   1  20
ATOM     18  C   UNL     1      -4.655  13.386  22.440  0.00  0.00    +0.000 C 
ATOM     19  N   UNL     1      -4.293  12.838  21.151  0.00  0.00    +0.000 N 
ATOM     20  C   UNL     1      -3.028  12.664  20.627  0.00  0.00    +0.000 A 
ATOM     21  C   UNL     1      -3.200  12.188  19.334  0.00  0.00    +0.000 A 
ATOM     22  C   UNL     1      -4.582  11.988  19.097  0.00  0.00    +0.000 A 
ATOM     23  C   UNL     1      -5.330  11.487  18.012  0.00  0.00    +0.000 A 
ATOM     24  C   UNL     1      -6.721  11.382  18.123  0.00  0.00    +0.000 A 
ATOM     25  C   UNL     1      -7.369  11.778  19.288  0.00  0.00    +0.000 A 
ATOM     26  C   UNL     1      -6.649  12.293  20.370  0.00  0.00    +0.000 A 
ATOM     27  C   UNL     1      -5.250  12.386  20.252  0.00  0.00    +0.000 A 
ENDBRANCH   1  20
TORSDOF 1
ENDMDL
MODEL 7
REMARK VINA RESULT:      -8.5      6.668     11.738
REMARK  Name = 
REMARK  2 active torsions:
REMARK  status: ('A' for Active; 'I' for Inactive)
REMARK    1  A    between atoms: C_1  and  N_2
REMARK    2  A    between atoms: C_3  and  C_4
REMARK                            x       y       z     vdW  Elec       q    Type
REMARK                         _______ _______ _______ _____ _____    ______ ____
ROOT
ATOM      1  C   UNL     1      -3.254  13.808  22.063  0.00  0.00    +0.000 C 
ATOM      2  C   UNL     1      -2.817  14.829  23.108  0.00  0.00    +0.000 C 
ATOM      3  C   UNL     1      -3.407  14.886  24.322  0.00  0.00    +0.000 C 
ATOM      4  C   UNL     1      -2.896  15.772  25.432  0.00  0.00    +0.000 C 
ATOM      5  C   UNL     1      -1.461  16.232  25.184  0.00  0.00    +0.000 C 
ATOM      6  C   UNL     1      -1.292  16.786  23.780  0.00  0.00    +0.000 C 
ATOM      7  C   UNL     1      -1.727  15.774  22.746  0.00  0.00    +0.000 C 
ATOM      8  O   UNL     1      -1.264  15.794  21.606  0.00  0.00    +0.000 OA
ATOM      9  N   UNL     1      -4.514  14.092  24.590  0.00  0.00    +0.000 N 
ATOM     10  C   UNL     1      -5.221  13.444  23.588  0.00  0.00    +0.000 C 
ATOM     11  C   UNL     1      -4.681  13.336  22.352  0.00  0.00    +0.000 C 
ATOM     12  C   UNL     1      -5.507  12.855  21.214  0.00  0.00    +0.000 C 
ATOM     13  O   UNL     1      -5.052  12.807  20.072  0.00  0.00    +0.000 OA
ATOM     14  C   UNL     1      -6.972  12.566  21.481  0.00  0.00    +0.000 C 
ATOM     15  C   UNL     1      -7.147  11.968  22.866  0.00  0.00    +0.000 C 
ATOM     16  C   UNL     1      -6.589  12.899  23.937  0.00  0.00    +0.000 C 
ATOM     17  H   UNL     1      -4.970  14.205  25.491  0.00  0.00    +0.000 HD
ENDROOT
BRANCH   1  20
ATOM     18  C   UNL     1      -1.567  12.779  19.587  0.00  0.00    +0.000 C 
ATOM     19  N   UNL     1      -1.567  12.207  20.916  0.00  0.00    +0.000 N 
ATOM     20  C   UNL     1      -2.266  12.637  22.026  0.00  0.00    +0.000 A 
ATOM     21  C   UNL     1      -1.872  11.822  23.079  0.00  0.00    +0.000 A 
ATOM     22  C   UNL     1      -0.990  10.828  22.587  0.00  0.00    +0.000 A 
ATOM     23  C   UNL     1      -0.328   9.728  23.169  0.00  0.00    +0.000 A 
ATOM     24  C   UNL     1       0.465   8.899  22.368  0.00  0.00    +0.000 A 
ATOM     25  C   UNL     1       0.613   9.159  21.010  0.00  0.00    +0.000 A 
ATOM     26  C   UNL     1      -0.020  10.254  20.416  0.00  0.00    +0.000 A 
ATOM     27  C   UNL     1      -0.822  11.077  21.227  0.00  0.00    +0.000 A 
ENDBRANCH   1  20
TORSDOF 1
ENDMDL
MODEL 8
REMARK VINA RESULT:      -8.4      5.976      8.878
REMARK  Name = 
REMARK  2 active torsions:
REMARK  status: ('A' for Active; 'I' for Inactive)
REMARK    1  A    between atoms: C_1  and  N_2
REMARK    2  A    between atoms: C_3  and  C_4
REMARK                            x       y       z     vdW  Elec       q    Type
REMARK                         _______ _______ _______ _____ _____    ______ ____
ROOT
ATOM      1  C   UNL     1      -2.071  11.880  20.031  0.00  0.00    +0.000 C 
ATOM      2  C   UNL     1      -1.075  10.909  20.655  0.00  0.00    +0.000 C 
ATOM      3  C   UNL     1      -0.374  10.038  19.896  0.00  0.00    +0.000 C 
ATOM      4  C   UNL     1       0.731   9.177  20.458  0.00  0.00    +0.000 C 
ATOM      5  C   UNL     1       1.232   9.695  21.805  0.00  0.00    +0.000 C 
ATOM      6  C   UNL     1       0.079   9.975  22.754  0.00  0.00    +0.000 C 
ATOM      7  C   UNL     1      -0.908  10.937  22.133  0.00  0.00    +0.000 C 
ATOM      8  O   UNL     1      -1.622  11.651  22.835  0.00  0.00    +0.000 OA
ATOM      9  N   UNL     1      -0.647   9.930  18.539  0.00  0.00    +0.000 N 
ATOM     10  C   UNL     1      -1.791  10.467  17.969  0.00  0.00    +0.000 C 
ATOM     11  C   UNL     1      -2.532  11.358  18.668  0.00  0.00    +0.000 C 
ATOM     12  C   UNL     1      -3.873  11.767  18.174  0.00  0.00    +0.000 C 
ATOM     13  O   UNL     1      -4.586  12.529  18.826  0.00  0.00    +0.000 OA
ATOM     14  C   UNL     1      -4.393  11.099  16.915  0.00  0.00    +0.000 C 
ATOM     15  C   UNL     1      -3.255  10.857  15.940  0.00  0.00    +0.000 C 
ATOM     16  C   UNL     1      -2.162  10.003  16.576  0.00  0.00    +0.000 C 
ATOM     17  H   UNL     1      -0.145   9.223  18.010  0.00  0.00    +0.000 HD
ENDROOT
BRANCH   1  20
ATOM     18  C   UNL     1      -3.066  14.554  21.407  0.00  0.00    +0.000 C 
ATOM     19  N   UNL     1      -1.929  14.422  20.522  0.00  0.00    +0.000 N 
ATOM     20  C   UNL     1      -1.448  13.275  19.922  0.00  0.00    +0.000 A 
ATOM     21  C   UNL     1      -0.295  13.642  19.241  0.00  0.00    +0.000 A 
ATOM     22  C   UNL     1      -0.118  15.043  19.355  0.00  0.00    +0.000 A 
ATOM     23  C   UNL     1       0.822  15.959  18.842  0.00  0.00    +0.000 A 
ATOM     24  C   UNL     1       0.682  17.322  19.123  0.00  0.00    +0.000 A 
ATOM     25  C   UNL     1      -0.371  17.776  19.911  0.00  0.00    +0.000 A 
ATOM     26  C   UNL     1      -1.305  16.884  20.444  0.00  0.00    +0.000 A 
ATOM     27  C   UNL     1      -1.160  15.516  20.149  0.00  0.00    +0.000 A 
ENDBRANCH   1  20
TORSDOF 1
ENDMDL
MODEL 9
REMARK VINA RESULT:      -8.3      6.569     11.591
REMARK  Name = 
REMARK  2 active torsions:
REMARK  status: ('A' for Active; 'I' for Inactive)
REMARK    1  A    between atoms: C_1  and  N_2
REMARK    2  A    between atoms: C_3  and  C_4
REMARK                            x       y       z     vdW  Elec       q    Type
REMARK                         _______ _______ _______ _____ _____    ______ ____
ROOT
ATOM      1  C   UNL     1      -3.622  13.597  21.010  0.00  0.00    +0.000 C 
ATOM      2  C   UNL     1      -3.636  14.728  22.032  0.00  0.00    +0.000 C 
ATOM      3  C   UNL     1      -4.549  14.762  23.028  0.00  0.00    +0.000 C 
ATOM      4  C   UNL     1      -4.494  15.775  24.145  0.00  0.00    +0.000 C 
ATOM      5  C   UNL     1      -3.120  16.432  24.256  0.00  0.00    +0.000 C 
ATOM      6  C   UNL     1      -2.632  16.927  22.906  0.00  0.00    +0.000 C 
ATOM      7  C   UNL     1      -2.621  15.806  21.893  0.00  0.00    +0.000 C 
ATOM      8  O   UNL     1      -1.859  15.833  20.927  0.00  0.00    +0.000 OA
ATOM      9  N   UNL     1      -5.574  13.826  23.057  0.00  0.00    +0.000 N 
ATOM     10  C   UNL     1      -5.877  13.025  21.967  0.00  0.00    +0.000 C 
ATOM     11  C   UNL     1      -4.999  12.932  20.941  0.00  0.00    +0.000 C 
ATOM     12  C   UNL     1      -5.399  12.270  19.672  0.00  0.00    +0.000 C 
ATOM     13  O   UNL     1      -4.636  12.228  18.708  0.00  0.00    +0.000 OA
ATOM     14  C   UNL     1      -6.829  11.779  19.555  0.00  0.00    +0.000 C 
ATOM     15  C   UNL     1      -7.311  11.238  20.890  0.00  0.00    +0.000 C 
ATOM     16  C   UNL     1      -7.206  12.300  21.979  0.00  0.00    +0.000 C 
ATOM     17  H   UNL     1      -6.278  13.919  23.784  0.00  0.00    +0.000 HD
ENDROOT
BRANCH   1  20
ATOM     18  C   UNL     1      -1.265  12.593  19.147  0.00  0.00    +0.000 C 
ATOM     19  N   UNL     1      -1.524  12.160  20.503  0.00  0.00    +0.000 N 
ATOM     20  C   UNL     1      -2.522  12.589  21.356  0.00  0.00    +0.000 A 
ATOM     21  C   UNL     1      -2.305  11.948  22.569  0.00  0.00    +0.000 A 
ATOM     22  C   UNL     1      -1.214  11.054  22.428  0.00  0.00    +0.000 A 
ATOM     23  C   UNL     1      -0.589  10.127  23.286  0.00  0.00    +0.000 A 
ATOM     24  C   UNL     1       0.472   9.351  22.806  0.00  0.00    +0.000 A 
ATOM     25  C   UNL     1       0.918   9.495  21.497  0.00  0.00    +0.000 A 
ATOM     26  C   UNL     1       0.323  10.421  20.634  0.00  0.00    +0.000 A 
ATOM     27  C   UNL     1      -0.748  11.190  21.123  0.00  0.00    +0.000 A 
ENDBRANCH   1  20
TORSDOF 1
ENDMDL
