MODEL 1
REMARK VINA RESULT:      -7.8      0.000      0.000
REMARK  Name = 
REMARK  7 active torsions:
REMARK  status: ('A' for Active; 'I' for Inactive)
REMARK    1  A    between atoms: C_1  and  N_2
REMARK    2  A    between atoms: N_2  and  C_3
REMARK    3  A    between atoms: N_2  and  C_4
REMARK    4  A    between atoms: C_4  and  C_5
REMARK    5  A    between atoms: C_5  and  C_6
REMARK    6  A    between atoms: C_6  and  N_7
REMARK    7  A    between atoms: C_11  and  C_12
REMARK                            x       y       z     vdW  Elec       q    Type
REMARK                         _______ _______ _______ _____ _____    ______ ____
ROOT
ATOM      1  N   UNL     1       0.541  10.189  19.142  0.00  0.00    +0.000 N 
ATOM      2  C   UNL     1       1.424   9.293  18.588  0.00  0.00    +0.000 C 
ATOM      3  O   UNL     1       1.715   9.352  17.397  0.00  0.00    +0.000 OA
ATOM      4  C   UNL     1       1.868   8.139  19.397  0.00  0.00    +0.000 C 
ATOM      5  C   UNL     1       2.437   7.052  18.843  0.00  0.00    +0.000 C 
ATOM      6  O   UNL     1       1.602   8.151  20.722  0.00  0.00    +0.000 OA
ATOM      7  C   UNL     1       0.817   9.058  21.313  0.00  0.00    +0.000 A 
ATOM      8  C   UNL     1       0.578   8.936  22.685  0.00  0.00    +0.000 A 
ATOM      9  C   UNL     1      -0.283   9.820  23.326  0.00  0.00    +0.000 A 
ATOM     10  C   UNL     1      -0.906  10.832  22.596  0.00  0.00    +0.000 A 
ATOM     11 CL   UNL     1      -2.011  11.928  23.403  0.00  0.00    +0.000 Cl
ATOM     12  C   UNL     1      -0.654  10.972  21.223  0.00  0.00    +0.000 A 
ATOM     13  C   UNL     1       0.221  10.083  20.552  0.00  0.00    +0.000 A 
ENDROOT
BRANCH   5  14
ATOM     14  C   UNL     1       2.556   5.747  19.557  0.00  0.00    +0.000 A 
ATOM     15  C   UNL     1       1.456   5.207  20.268  0.00  0.00    +0.000 A 
ATOM     16  C   UNL     1       1.528   3.952  20.858  0.00  0.00    +0.000 A 
ATOM     17  C   UNL     1       2.695   3.204  20.754  0.00  0.00    +0.000 A 
ATOM     18  C   UNL     1       3.787   3.712  20.043  0.00  0.00    +0.000 A 
ATOM     19  C   UNL     1       3.717   4.972  19.436  0.00  0.00    +0.000 A 
ENDBRANCH   5  14
BRANCH   1  20
ATOM     20  C   UNL     1      -0.169  11.113  18.263  0.00  0.00    +0.000 C 
BRANCH  20  21
ATOM     21  C   UNL     1      -1.650  10.758  18.135  0.00  0.00    +0.000 C 
BRANCH  21  22
ATOM     22  C   UNL     1      -1.921  10.043  16.797  0.00  0.00    +0.000 C 
BRANCH  22  24
ATOM     23  C   UNL     1      -3.060  10.131  14.618  0.00  0.00    +0.000 C 
ATOM     24  N   UNL     1      -2.750  10.847  15.868  0.00  0.00    +0.000 NA
ATOM     25  C   UNL     1      -4.006  11.239  16.526  0.00  0.00    +0.000 C 
ENDBRANCH  22  24
ENDBRANCH  21  22
ENDBRANCH  20  21
ENDBRANCH   1  20
TORSDOF 5
ENDMDL
MODEL 2
REMARK VINA RESULT:      -7.5      0.958      1.304
REMARK  Name = 
REMARK  7 active torsions:
REMARK  status: ('A' for Active; 'I' for Inactive)
REMARK    1  A    between atoms: C_1  and  N_2
REMARK    2  A    between atoms: N_2  and  C_3
REMARK    3  A    between atoms: N_2  and  C_4
REMARK    4  A    between atoms: C_4  and  C_5
REMARK    5  A    between atoms: C_5  and  C_6
REMARK    6  A    between atoms: C_6  and  N_7
REMARK    7  A    between atoms: C_11  and  C_12
REMARK                            x       y       z     vdW  Elec       q    Type
REMARK                         _______ _______ _______ _____ _____    ______ ____
ROOT
ATOM      1  N   UNL     1       0.725   9.976  19.050  0.00  0.00    +0.000 N 
ATOM      2  C   UNL     1       1.597   9.045  18.539  0.00  0.00    +0.000 C 
ATOM      3  O   UNL     1       1.919   9.068  17.354  0.00  0.00    +0.000 OA
ATOM      4  C   UNL     1       1.990   7.898  19.384  0.00  0.00    +0.000 C 
ATOM      5  C   UNL     1       2.543   6.784  18.870  0.00  0.00    +0.000 C 
ATOM      6  O   UNL     1       1.691   7.949  20.702  0.00  0.00    +0.000 OA
ATOM      7  C   UNL     1       0.916   8.890  21.251  0.00  0.00    +0.000 A 
ATOM      8  C   UNL     1       0.639   8.806  22.619  0.00  0.00    +0.000 A 
ATOM      9  C   UNL     1      -0.213   9.727  23.218  0.00  0.00    +0.000 A 
ATOM     10  C   UNL     1      -0.791  10.737  22.449  0.00  0.00    +0.000 A 
ATOM     11 CL   UNL     1      -1.887  11.881  23.202  0.00  0.00    +0.000 Cl
ATOM     12  C   UNL     1      -0.501  10.839  21.080  0.00  0.00    +0.000 A 
ATOM     13  C   UNL     1       0.366   9.912  20.452  0.00  0.00    +0.000 A 
ENDROOT
BRANCH   5  14
ATOM     14  C   UNL     1       2.609   5.495  19.617  0.00  0.00    +0.000 A 
ATOM     15  C   UNL     1       1.496   5.029  20.360  0.00  0.00    +0.000 A 
ATOM     16  C   UNL     1       1.515   3.787  20.981  0.00  0.00    +0.000 A 
ATOM     17  C   UNL     1       2.642   2.979  20.879  0.00  0.00    +0.000 A 
ATOM     18  C   UNL     1       3.746   3.413  20.137  0.00  0.00    +0.000 A 
ATOM     19  C   UNL     1       3.728   4.659  19.498  0.00  0.00    +0.000 A 
ENDBRANCH   5  14
BRANCH   1  20
ATOM     20  C   UNL     1       0.062  10.898  18.131  0.00  0.00    +0.000 C 
BRANCH  20  21
ATOM     21  C   UNL     1      -1.300  10.373  17.679  0.00  0.00    +0.000 C 
BRANCH  21  22
ATOM     22  C   UNL     1      -2.304  11.533  17.526  0.00  0.00    +0.000 C 
BRANCH  22  24
ATOM     23  C   UNL     1      -3.531  12.309  19.511  0.00  0.00    +0.000 C 
ATOM     24  N   UNL     1      -3.509  11.372  18.374  0.00  0.00    +0.000 NA
ATOM     25  C   UNL     1      -4.722  11.563  17.565  0.00  0.00    +0.000 C 
ENDBRANCH  22  24
ENDBRANCH  21  22
ENDBRANCH  20  21
ENDBRANCH   1  20
TORSDOF 5
ENDMDL
MODEL 3
REMARK VINA RESULT:      -7.5      0.829      1.206
REMARK  Name = 
REMARK  7 active torsions:
REMARK  status: ('A' for Active; 'I' for Inactive)
REMARK    1  A    between atoms: C_1  and  N_2
REMARK    2  A    between atoms: N_2  and  C_3
REMARK    3  A    between atoms: N_2  and  C_4
REMARK    4  A    between atoms: C_4  and  C_5
REMARK    5  A    between atoms: C_5  and  C_6
REMARK    6  A    between atoms: C_6  and  N_7
REMARK    7  A    between atoms: C_11  and  C_12
REMARK                            x       y       z     vdW  Elec       q    Type
REMARK                         _______ _______ _______ _____ _____    ______ ____
ROOT
ATOM      1  N   UNL     1       0.993   9.976  19.136  0.00  0.00    +0.000 N 
ATOM      2  C   UNL     1       1.737   8.945  18.616  0.00  0.00    +0.000 C 
ATOM      3  O   UNL     1       2.151   8.987  17.461  0.00  0.00    +0.000 OA
ATOM      4  C   UNL     1       1.870   7.698  19.398  0.00  0.00    +0.000 C 
ATOM      5  C   UNL     1       2.272   6.541  18.841  0.00  0.00    +0.000 C 
ATOM      6  O   UNL     1       1.482   7.716  20.693  0.00  0.00    +0.000 OA
ATOM      7  C   UNL     1       0.831   8.739  21.258  0.00  0.00    +0.000 A 
ATOM      8  C   UNL     1       0.439   8.617  22.595  0.00  0.00    +0.000 A 
ATOM      9  C   UNL     1      -0.295   9.630  23.202  0.00  0.00    +0.000 A 
ATOM     10  C   UNL     1      -0.638  10.769  22.474  0.00  0.00    +0.000 A 
ATOM     11 CL   UNL     1      -1.587  12.032  23.236  0.00  0.00    +0.000 Cl
ATOM     12  C   UNL     1      -0.229  10.905  21.139  0.00  0.00    +0.000 A 
ATOM     13  C   UNL     1       0.520   9.886  20.503  0.00  0.00    +0.000 A 
ENDROOT
BRANCH   5  14
ATOM     14  C   UNL     1       2.068   5.214  19.492  0.00  0.00    +0.000 A 
ATOM     15  C   UNL     1       2.416   5.012  20.851  0.00  0.00    +0.000 A 
ATOM     16  C   UNL     1       2.144   3.810  21.492  0.00  0.00    +0.000 A 
ATOM     17  C   UNL     1       1.519   2.782  20.797  0.00  0.00    +0.000 A 
ATOM     18  C   UNL     1       1.152   2.966  19.459  0.00  0.00    +0.000 A 
ATOM     19  C   UNL     1       1.412   4.179  18.811  0.00  0.00    +0.000 A 
ENDBRANCH   5  14
BRANCH   1  20
ATOM     20  C   UNL     1       0.563  11.052  18.246  0.00  0.00    +0.000 C 
BRANCH  20  21
ATOM     21  C   UNL     1      -0.959  11.117  18.120  0.00  0.00    +0.000 C 
BRANCH  21  22
ATOM     22  C   UNL     1      -1.477   9.972  17.228  0.00  0.00    +0.000 C 
BRANCH  22  24
ATOM     23  C   UNL     1      -3.472  11.409  17.319  0.00  0.00    +0.000 C 
ATOM     24  N   UNL     1      -2.871  10.183  16.767  0.00  0.00    +0.000 NA
ATOM     25  C   UNL     1      -2.910  10.243  15.298  0.00  0.00    +0.000 C 
ENDBRANCH  22  24
ENDBRANCH  21  22
ENDBRANCH  20  21
ENDBRANCH   1  20
TORSDOF 5
ENDMDL
MODEL 4
REMARK VINA RESULT:      -7.3      2.225      3.219
REMARK  Name = 
REMARK  7 active torsions:
REMARK  status: ('A' for Active; 'I' for Inactive)
REMARK    1  A    between atoms: C_1  and  N_2
REMARK    2  A    between atoms: N_2  and  C_3
REMARK    3  A    between atoms: N_2  and  C_4
REMARK    4  A    between atoms: C_4  and  C_5
REMARK    5  A    between atoms: C_5  and  C_6
REMARK    6  A    between atoms: C_6  and  N_7
REMARK    7  A    between atoms: C_11  and  C_12
REMARK                            x       y       z     vdW  Elec       q    Type
REMARK                         _______ _______ _______ _____ _____    ______ ____
ROOT
ATOM      1  N   UNL     1       1.316   9.962  19.150  0.00  0.00    +0.000 N 
ATOM      2  C   UNL     1       2.024   8.869  18.711  0.00  0.00    +0.000 C 
ATOM      3  O   UNL     1       2.546   8.863  17.600  0.00  0.00    +0.000 OA
ATOM      4  C   UNL     1       1.985   7.627  19.511  0.00  0.00    +0.000 C 
ATOM      5  C   UNL     1       2.347   6.435  19.002  0.00  0.00    +0.000 C 
ATOM      6  O   UNL     1       1.479   7.694  20.763  0.00  0.00    +0.000 OA
ATOM      7  C   UNL     1       0.859   8.771  21.257  0.00  0.00    +0.000 A 
ATOM      8  C   UNL     1       0.335   8.699  22.551  0.00  0.00    +0.000 A 
ATOM      9  C   UNL     1      -0.372   9.775  23.078  0.00  0.00    +0.000 A 
ATOM     10  C   UNL     1      -0.555  10.926  22.313  0.00  0.00    +0.000 A 
ATOM     11 CL   UNL     1      -1.471  12.269  22.972  0.00  0.00    +0.000 Cl
ATOM     12  C   UNL     1      -0.013  11.011  21.021  0.00  0.00    +0.000 A 
ATOM     13  C   UNL     1       0.711   9.928  20.467  0.00  0.00    +0.000 A 
ENDROOT
BRANCH   5  14
ATOM     14  C   UNL     1       1.979   5.137  19.641  0.00  0.00    +0.000 A 
ATOM     15  C   UNL     1       1.343   4.115  18.893  0.00  0.00    +0.000 A 
ATOM     16  C   UNL     1       1.082   2.871  19.454  0.00  0.00    +0.000 A 
ATOM     17  C   UNL     1       1.446   2.615  20.770  0.00  0.00    +0.000 A 
ATOM     18  C   UNL     1       2.089   3.606  21.521  0.00  0.00    +0.000 A 
ATOM     19  C   UNL     1       2.366   4.857  20.959  0.00  0.00    +0.000 A 
ENDBRANCH   5  14
BRANCH   1  20
ATOM     20  C   UNL     1       1.057  11.055  18.216  0.00  0.00    +0.000 C 
BRANCH  20  21
ATOM     21  C   UNL     1       2.046  12.206  18.393  0.00  0.00    +0.000 C 
BRANCH  21  22
ATOM     22  C   UNL     1       1.297  13.547  18.525  0.00  0.00    +0.000 C 
BRANCH  22  24
ATOM     23  C   UNL     1       2.663  13.591  20.570  0.00  0.00    +0.000 C 
ATOM     24  N   UNL     1       1.681  14.308  19.738  0.00  0.00    +0.000 NA
ATOM     25  C   UNL     1       2.231  15.617  19.357  0.00  0.00    +0.000 C 
ENDBRANCH  22  24
ENDBRANCH  21  22
ENDBRANCH  20  21
ENDBRANCH   1  20
TORSDOF 5
ENDMDL
MODEL 5
REMARK VINA RESULT:      -7.3      0.935      1.174
REMARK  Name = 
REMARK  7 active torsions:
REMARK  status: ('A' for Active; 'I' for Inactive)
REMARK    1  A    between atoms: C_1  and  N_2
REMARK    2  A    between atoms: N_2  and  C_3
REMARK    3  A    between atoms: N_2  and  C_4
REMARK    4  A    between atoms: C_4  and  C_5
REMARK    5  A    between atoms: C_5  and  C_6
REMARK    6  A    between atoms: C_6  and  N_7
REMARK    7  A    between atoms: C_11  and  C_12
REMARK                            x       y       z     vdW  Elec       q    Type
REMARK                         _______ _______ _______ _____ _____    ______ ____
ROOT
ATOM      1  N   UNL     1       0.768  10.489  19.091  0.00  0.00    +0.000 N 
ATOM      2  C   UNL     1       1.607   9.631  18.421  0.00  0.00    +0.000 C 
ATOM      3  O   UNL     1       1.980   9.881  17.278  0.00  0.00    +0.000 OA
ATOM      4  C   UNL     1       1.898   8.310  19.016  0.00  0.00    +0.000 C 
ATOM      5  C   UNL     1       2.409   7.295  18.295  0.00  0.00    +0.000 C 
ATOM      6  O   UNL     1       1.548   8.104  20.305  0.00  0.00    +0.000 OA
ATOM      7  C   UNL     1       0.804   8.957  21.018  0.00  0.00    +0.000 A 
ATOM      8  C   UNL     1       0.466   8.607  22.329  0.00  0.00    +0.000 A 
ATOM      9  C   UNL     1      -0.358   9.436  23.083  0.00  0.00    +0.000 A 
ATOM     10  C   UNL     1      -0.844  10.619  22.528  0.00  0.00    +0.000 A 
ATOM     11 CL   UNL     1      -1.905  11.648  23.473  0.00  0.00    +0.000 Cl
ATOM     12  C   UNL     1      -0.491  10.986  21.221  0.00  0.00    +0.000 A 
ATOM     13  C   UNL     1       0.348  10.156  20.437  0.00  0.00    +0.000 A 
ENDROOT
BRANCH   5  14
ATOM     14  C   UNL     1       2.370   5.876  18.755  0.00  0.00    +0.000 A 
ATOM     15  C   UNL     1       1.825   4.862  17.930  0.00  0.00    +0.000 A 
ATOM     16  C   UNL     1       1.869   3.526  18.309  0.00  0.00    +0.000 A 
ATOM     17  C   UNL     1       2.456   3.169  19.517  0.00  0.00    +0.000 A 
ATOM     18  C   UNL     1       3.015   4.153  20.339  0.00  0.00    +0.000 A 
ATOM     19  C   UNL     1       2.985   5.500  19.957  0.00  0.00    +0.000 A 
ENDBRANCH   5  14
BRANCH   1  20
ATOM     20  C   UNL     1       0.198  11.623  18.368  0.00  0.00    +0.000 C 
BRANCH  20  21
ATOM     21  C   UNL     1      -1.300  11.448  18.120  0.00  0.00    +0.000 C 
BRANCH  21  22
ATOM     22  C   UNL     1      -1.572  10.143  17.347  0.00  0.00    +0.000 C 
BRANCH  22  24
ATOM     23  C   UNL     1      -3.949  10.708  17.627  0.00  0.00    +0.000 C 
ATOM     24  N   UNL     1      -2.932  10.090  16.759  0.00  0.00    +0.000 NA
ATOM     25  C   UNL     1      -2.939  10.761  15.450  0.00  0.00    +0.000 C 
ENDBRANCH  22  24
ENDBRANCH  21  22
ENDBRANCH  20  21
ENDBRANCH   1  20
TORSDOF 5
ENDMDL
MODEL 6
REMARK VINA RESULT:      -7.3      2.246      3.271
REMARK  Name = 
REMARK  7 active torsions:
REMARK  status: ('A' for Active; 'I' for Inactive)
REMARK    1  A    between atoms: C_1  and  N_2
REMARK    2  A    between atoms: N_2  and  C_3
REMARK    3  A    between atoms: N_2  and  C_4
REMARK    4  A    between atoms: C_4  and  C_5
REMARK    5  A    between atoms: C_5  and  C_6
REMARK    6  A    between atoms: C_6  and  N_7
REMARK    7  A    between atoms: C_11  and  C_12
REMARK                            x       y       z     vdW  Elec       q    Type
REMARK                         _______ _______ _______ _____ _____    ______ ____
ROOT
ATOM      1  N   UNL     1       1.413   9.825  19.022  0.00  0.00    +0.000 N 
ATOM      2  C   UNL     1       2.126   8.734  18.586  0.00  0.00    +0.000 C 
ATOM      3  O   UNL     1       2.643   8.724  17.472  0.00  0.00    +0.000 OA
ATOM      4  C   UNL     1       2.102   7.498  19.395  0.00  0.00    +0.000 C 
ATOM      5  C   UNL     1       2.470   6.304  18.893  0.00  0.00    +0.000 C 
ATOM      6  O   UNL     1       1.603   7.569  20.649  0.00  0.00    +0.000 OA
ATOM      7  C   UNL     1       0.978   8.645  21.139  0.00  0.00    +0.000 A 
ATOM      8  C   UNL     1       0.461   8.578  22.437  0.00  0.00    +0.000 A 
ATOM      9  C   UNL     1      -0.251   9.652  22.961  0.00  0.00    +0.000 A 
ATOM     10  C   UNL     1      -0.448  10.796  22.189  0.00  0.00    +0.000 A 
ATOM     11 CL   UNL     1      -1.370  12.136  22.844  0.00  0.00    +0.000 Cl
ATOM     12  C   UNL     1       0.086  10.876  20.894  0.00  0.00    +0.000 A 
ATOM     13  C   UNL     1       0.816   9.795  20.342  0.00  0.00    +0.000 A 
ENDROOT
BRANCH   5  14
ATOM     14  C   UNL     1       2.116   5.009  19.543  0.00  0.00    +0.000 A 
ATOM     15  C   UNL     1       2.452   4.761  20.897  0.00  0.00    +0.000 A 
ATOM     16  C   UNL     1       2.046   3.597  21.537  0.00  0.00    +0.000 A 
ATOM     17  C   UNL     1       1.296   2.653  20.845  0.00  0.00    +0.000 A 
ATOM     18  C   UNL     1       0.940   2.885  19.512  0.00  0.00    +0.000 A 
ATOM     19  C   UNL     1       1.336   4.062  18.865  0.00  0.00    +0.000 A 
ENDBRANCH   5  14
BRANCH   1  20
ATOM     20  C   UNL     1       1.140  10.908  18.082  0.00  0.00    +0.000 C 
BRANCH  20  21
ATOM     21  C   UNL     1       2.178  12.025  18.178  0.00  0.00    +0.000 C 
BRANCH  21  22
ATOM     22  C   UNL     1       1.496  13.374  18.477  0.00  0.00    +0.000 C 
BRANCH  22  24
ATOM     23  C   UNL     1       1.799  15.709  19.191  0.00  0.00    +0.000 C 
ATOM     24  N   UNL     1       2.431  14.389  19.019  0.00  0.00    +0.000 NA
ATOM     25  C   UNL     1       2.968  13.937  20.312  0.00  0.00    +0.000 C 
ENDBRANCH  22  24
ENDBRANCH  21  22
ENDBRANCH  20  21
ENDBRANCH   1  20
TORSDOF 5
ENDMDL
MODEL 7
REMARK VINA RESULT:      -7.3      5.072      7.274
REMARK  Name = 
REMARK  7 active torsions:
REMARK  status: ('A' for Active; 'I' for Inactive)
REMARK    1  A    between atoms: C_1  and  N_2
REMARK    2  A    between atoms: N_2  and  C_3
REMARK    3  A    between atoms: N_2  and  C_4
REMARK    4  A    between atoms: C_4  and  C_5
REMARK    5  A    between atoms: C_5  and  C_6
REMARK    6  A    between atoms: C_6  and  N_7
REMARK    7  A    between atoms: C_11  and  C_12
REMARK                            x       y       z     vdW  Elec       q    Type
REMARK                         _______ _______ _______ _____ _____    ______ ____
ROOT
ATOM      1  N   UNL     1       4.134   6.037  17.625  0.00  0.00    +0.000 N 
ATOM      2  C   UNL     1       5.057   6.149  16.614  0.00  0.00    +0.000 C 
ATOM      3  O   UNL     1       5.592   7.227  16.368  0.00  0.00    +0.000 OA
ATOM      4  C   UNL     1       5.256   5.005  15.700  0.00  0.00    +0.000 C 
ATOM      5  C   UNL     1       5.862   5.138  14.506  0.00  0.00    +0.000 C 
ATOM      6  O   UNL     1       4.723   3.814  16.049  0.00  0.00    +0.000 OA
ATOM      7  C   UNL     1       3.887   3.648  17.080  0.00  0.00    +0.000 A 
ATOM      8  C   UNL     1       3.363   2.372  17.310  0.00  0.00    +0.000 A 
ATOM      9  C   UNL     1       2.442   2.169  18.333  0.00  0.00    +0.000 A 
ATOM     10  C   UNL     1       2.044   3.243  19.129  0.00  0.00    +0.000 A 
ATOM     11 CL   UNL     1       0.862   2.988  20.400  0.00  0.00    +0.000 Cl
ATOM     12  C   UNL     1       2.582   4.521  18.916  0.00  0.00    +0.000 A 
ATOM     13  C   UNL     1       3.523   4.747  17.881  0.00  0.00    +0.000 A 
ENDROOT
BRANCH   5  14
ATOM     14  C   UNL     1       5.754   4.116  13.424  0.00  0.00    +0.000 A 
ATOM     15  C   UNL     1       4.517   3.874  12.777  0.00  0.00    +0.000 A 
ATOM     16  C   UNL     1       4.426   2.992  11.708  0.00  0.00    +0.000 A 
ATOM     17  C   UNL     1       5.562   2.331  11.258  0.00  0.00    +0.000 A 
ATOM     18  C   UNL     1       6.796   2.568  11.872  0.00  0.00    +0.000 A 
ATOM     19  C   UNL     1       6.897   3.464  12.943  0.00  0.00    +0.000 A 
ENDBRANCH   5  14
BRANCH   1  20
ATOM     20  C   UNL     1       3.676   7.248  18.299  0.00  0.00    +0.000 C 
BRANCH  20  21
ATOM     21  C   UNL     1       2.298   7.690  17.810  0.00  0.00    +0.000 C 
BRANCH  21  22
ATOM     22  C   UNL     1       2.163   9.224  17.884  0.00  0.00    +0.000 C 
BRANCH  22  24
ATOM     23  C   UNL     1       1.045   9.101  20.072  0.00  0.00    +0.000 C 
ATOM     24  N   UNL     1       1.015   9.665  18.711  0.00  0.00    +0.000 NA
ATOM     25  C   UNL     1       0.992  11.133  18.796  0.00  0.00    +0.000 C 
ENDBRANCH  22  24
ENDBRANCH  21  22
ENDBRANCH  20  21
ENDBRANCH   1  20
TORSDOF 5
ENDMDL
MODEL 8
REMARK VINA RESULT:      -7.2      3.699      7.383
REMARK  Name = 
REMARK  7 active torsions:
REMARK  status: ('A' for Active; 'I' for Inactive)
REMARK    1  A    between atoms: C_1  and  N_2
REMARK    2  A    between atoms: N_2  and  C_3
REMARK    3  A    between atoms: N_2  and  C_4
REMARK    4  A    between atoms: C_4  and  C_5
REMARK    5  A    between atoms: C_5  and  C_6
REMARK    6  A    between atoms: C_6  and  N_7
REMARK    7  A    between atoms: C_11  and  C_12
REMARK                            x       y       z     vdW  Elec       q    Type
REMARK                         _______ _______ _______ _____ _____    ______ ____
ROOT
ATOM      1  N   UNL     1       3.324   6.794  17.974  0.00  0.00    +0.000 N 
ATOM      2  C   UNL     1       2.575   7.946  17.982  0.00  0.00    +0.000 C 
ATOM      3  O   UNL     1       2.753   8.818  17.136  0.00  0.00    +0.000 OA
ATOM      4  C   UNL     1       1.687   8.210  19.133  0.00  0.00    +0.000 C 
ATOM      5  C   UNL     1       1.195   9.436  19.393  0.00  0.00    +0.000 C 
ATOM      6  O   UNL     1       1.448   7.198  19.996  0.00  0.00    +0.000 OA
ATOM      7  C   UNL     1       2.096   6.028  19.967  0.00  0.00    +0.000 A 
ATOM      8  C   UNL     1       1.793   5.077  20.946  0.00  0.00    +0.000 A 
ATOM      9  C   UNL     1       2.489   3.874  20.989  0.00  0.00    +0.000 A 
ATOM     10  C   UNL     1       3.489   3.618  20.052  0.00  0.00    +0.000 A 
ATOM     11 CL   UNL     1       4.382   2.110  20.127  0.00  0.00    +0.000 Cl
ATOM     12  C   UNL     1       3.783   4.560  19.054  0.00  0.00    +0.000 A 
ATOM     13  C   UNL     1       3.085   5.790  18.992  0.00  0.00    +0.000 A 
ENDROOT
BRANCH   5  14
ATOM     14  C   UNL     1       0.616   9.812  20.716  0.00  0.00    +0.000 A 
ATOM     15  C   UNL     1      -0.337  10.855  20.820  0.00  0.00    +0.000 A 
ATOM     16  C   UNL     1      -0.950  11.150  22.031  0.00  0.00    +0.000 A 
ATOM     17  C   UNL     1      -0.629  10.416  23.166  0.00  0.00    +0.000 A 
ATOM     18  C   UNL     1       0.298   9.371  23.081  0.00  0.00    +0.000 A 
ATOM     19  C   UNL     1       0.910   9.060  21.862  0.00  0.00    +0.000 A 
ENDBRANCH   5  14
BRANCH   1  20
ATOM     20  C   UNL     1       4.445   6.689  17.044  0.00  0.00    +0.000 C 
BRANCH  20  21
ATOM     21  C   UNL     1       5.792   6.768  17.760  0.00  0.00    +0.000 C 
BRANCH  21  22
ATOM     22  C   UNL     1       6.949   6.740  16.742  0.00  0.00    +0.000 C 
BRANCH  22  24
ATOM     23  C   UNL     1       7.486   4.624  17.874  0.00  0.00    +0.000 C 
ATOM     24  N   UNL     1       7.592   5.409  16.632  0.00  0.00    +0.000 NA
ATOM     25  C   UNL     1       6.989   4.649  15.526  0.00  0.00    +0.000 C 
ENDBRANCH  22  24
ENDBRANCH  21  22
ENDBRANCH  20  21
ENDBRANCH   1  20
TORSDOF 5
ENDMDL
MODEL 9
REMARK VINA RESULT:      -7.2      4.476      7.855
REMARK  Name = 
REMARK  7 active torsions:
REMARK  status: ('A' for Active; 'I' for Inactive)
REMARK    1  A    between atoms: C_1  and  N_2
REMARK    2  A    between atoms: N_2  and  C_3
REMARK    3  A    between atoms: N_2  and  C_4
REMARK    4  A    between atoms: C_4  and  C_5
REMARK    5  A    between atoms: C_5  and  C_6
REMARK    6  A    between atoms: C_6  and  N_7
REMARK    7  A    between atoms: C_11  and  C_12
REMARK                            x       y       z     vdW  Elec       q    Type
REMARK                         _______ _______ _______ _____ _____    ______ ____
ROOT
ATOM      1  N   UNL     1       4.880   5.427  17.896  0.00  0.00    +0.000 N 
ATOM      2  C   UNL     1       4.291   6.553  17.374  0.00  0.00    +0.000 C 
ATOM      3  O   UNL     1       4.867   7.229  16.526  0.00  0.00    +0.000 OA
ATOM      4  C   UNL     1       3.041   7.051  17.984  0.00  0.00    +0.000 C 
ATOM      5  C   UNL     1       2.590   8.302  17.778  0.00  0.00    +0.000 C 
ATOM      6  O   UNL     1       2.390   6.242  18.850  0.00  0.00    +0.000 OA
ATOM      7  C   UNL     1       2.895   5.093  19.315  0.00  0.00    +0.000 A 
ATOM      8  C   UNL     1       2.145   4.368  20.245  0.00  0.00    +0.000 A 
ATOM      9  C   UNL     1       2.661   3.202  20.802  0.00  0.00    +0.000 A 
ATOM     10  C   UNL     1       3.928   2.758  20.426  0.00  0.00    +0.000 A 
ATOM     11 CL   UNL     1       4.586   1.301  21.150  0.00  0.00    +0.000 Cl
ATOM     12  C   UNL     1       4.676   3.470  19.477  0.00  0.00    +0.000 A 
ATOM     13  C   UNL     1       4.168   4.659  18.898  0.00  0.00    +0.000 A 
ENDROOT
BRANCH   5  14
ATOM     14  C   UNL     1       1.562   8.946  18.646  0.00  0.00    +0.000 A 
ATOM     15  C   UNL     1       0.489   9.678  18.080  0.00  0.00    +0.000 A 
ATOM     16  C   UNL     1      -0.523  10.201  18.875  0.00  0.00    +0.000 A 
ATOM     17  C   UNL     1      -0.491  10.010  20.250  0.00  0.00    +0.000 A 
ATOM     18  C   UNL     1       0.552   9.277  20.829  0.00  0.00    +0.000 A 
ATOM     19  C   UNL     1       1.568   8.737  20.032  0.00  0.00    +0.000 A 
ENDBRANCH   5  14
BRANCH   1  20
ATOM     20  C   UNL     1       6.267   5.132  17.548  0.00  0.00    +0.000 C 
BRANCH  20  21
ATOM     21  C   UNL     1       6.374   4.317  16.260  0.00  0.00    +0.000 C 
BRANCH  21  22
ATOM     22  C   UNL     1       7.381   4.965  15.290  0.00  0.00    +0.000 C 
BRANCH  22  24
ATOM     23  C   UNL     1       7.949   5.278  12.917  0.00  0.00    +0.000 C 
ATOM     24  N   UNL     1       6.875   5.050  13.899  0.00  0.00    +0.000 NA
ATOM     25  C   UNL     1       6.155   3.815  13.551  0.00  0.00    +0.000 C 
ENDBRANCH  22  24
ENDBRANCH  21  22
ENDBRANCH  20  21
ENDBRANCH   1  20
TORSDOF 5
ENDMDL
