MODEL 1
REMARK VINA RESULT:      -6.8      0.000      0.000
REMARK  Name = 
REMARK  5 active torsions:
REMARK  status: ('A' for Active; 'I' for Inactive)
REMARK    1  A    between atoms: C_1  and  S_2
REMARK    2  A    between atoms: S_2  and  C_3
REMARK    3  A    between atoms: C_6  and  C_7
REMARK    4  A    between atoms: C_10  and  N_11
REMARK    5  A    between atoms: C_12  and  C_14
REMARK                            x       y       z     vdW  Elec       q    Type
REMARK                         _______ _______ _______ _____ _____    ______ ____
ROOT
ATOM      1  N   UNL     1       3.792   5.176  17.471  0.00  0.00    +0.000 N 
ATOM      2  C   UNL     1       5.058   4.621  17.399  0.00  0.00    +0.000 C 
ATOM      3  O   UNL     1       5.656   4.118  18.347  0.00  0.00    +0.000 OA
ATOM      4  H   UNL     1       3.319   5.432  16.607  0.00  0.00    +0.000 HD
ENDROOT
BRANCH   2   5
ATOM      5  C   UNL     1       5.781   4.624  16.093  0.00  0.00    +0.000 A 
ATOM      6  C   UNL     1       5.246   3.762  15.109  0.00  0.00    +0.000 A 
ATOM      7  C   UNL     1       5.769   3.720  13.816  0.00  0.00    +0.000 A 
ATOM      8  C   UNL     1       6.840   4.541  13.490  0.00  0.00    +0.000 A 
ATOM      9 CL   UNL     1       7.472   4.522  11.890  0.00  0.00    +0.000 Cl
ATOM     10  C   UNL     1       7.394   5.390  14.446  0.00  0.00    +0.000 A 
ATOM     11  C   UNL     1       6.866   5.437  15.747  0.00  0.00    +0.000 A 
ATOM     12 CL   UNL     1       7.591   6.575  16.823  0.00  0.00    +0.000 Cl
ENDBRANCH   2   5
BRANCH   1  18
ATOM     13  C   UNL     1       2.529   6.626  18.988  0.00  0.00    +0.000 A 
ATOM     14  C   UNL     1       1.791   6.809  20.169  0.00  0.00    +0.000 A 
ATOM     15  C   UNL     1       1.514   5.729  21.009  0.00  0.00    +0.000 A 
ATOM     16  C   UNL     1       1.979   4.459  20.675  0.00  0.00    +0.000 A 
ATOM     17  C   UNL     1       2.735   4.276  19.514  0.00  0.00    +0.000 A 
ATOM     18  C   UNL     1       3.017   5.345  18.653  0.00  0.00    +0.000 A 
BRANCH  13  20
ATOM     19  C   UNL     1       1.494   9.133  18.587  0.00  0.00    +0.000 C 
ATOM     20  S   UNL     1       2.791   8.046  17.925  0.00  0.00    +0.000 S 
ENDBRANCH  13  20
BRANCH  16  21
ATOM     21  C   UNL     1       1.684   3.333  21.510  0.00  0.00    +0.000 C 
ATOM     22  N   UNL     1       1.451   2.421  22.189  0.00  0.00    +0.000 NA
ENDBRANCH  16  21
ENDBRANCH   1  18
TORSDOF 4
ENDMDL
MODEL 2
REMARK VINA RESULT:      -6.8      4.029      7.779
REMARK  Name = 
REMARK  5 active torsions:
REMARK  status: ('A' for Active; 'I' for Inactive)
REMARK    1  A    between atoms: C_1  and  S_2
REMARK    2  A    between atoms: S_2  and  C_3
REMARK    3  A    between atoms: C_6  and  C_7
REMARK    4  A    between atoms: C_10  and  N_11
REMARK    5  A    between atoms: C_12  and  C_14
REMARK                            x       y       z     vdW  Elec       q    Type
REMARK                         _______ _______ _______ _____ _____    ______ ____
ROOT
ATOM      1  N   UNL     1       2.330   6.595  19.199  0.00  0.00    +0.000 N 
ATOM      2  C   UNL     1       2.095   7.942  18.990  0.00  0.00    +0.000 C 
ATOM      3  O   UNL     1       2.569   8.599  18.065  0.00  0.00    +0.000 OA
ATOM      4  H   UNL     1       1.778   6.104  19.900  0.00  0.00    +0.000 HD
ENDROOT
BRANCH   2   5
ATOM      5  C   UNL     1       1.216   8.685  19.940  0.00  0.00    +0.000 A 
ATOM      6  C   UNL     1       1.475   8.445  21.309  0.00  0.00    +0.000 A 
ATOM      7  C   UNL     1       0.785   9.131  22.310  0.00  0.00    +0.000 A 
ATOM      8  C   UNL     1      -0.178  10.066  21.954  0.00  0.00    +0.000 A 
ATOM      9 CL   UNL     1      -1.010  10.940  23.179  0.00  0.00    +0.000 Cl
ATOM     10  C   UNL     1      -0.460  10.310  20.612  0.00  0.00    +0.000 A 
ATOM     11  C   UNL     1       0.235   9.625  19.602  0.00  0.00    +0.000 A 
ATOM     12 CL   UNL     1      -0.154  10.060  17.978  0.00  0.00    +0.000 Cl
ENDBRANCH   2   5
BRANCH   1  18
ATOM     13  C   UNL     1       2.883   4.423  18.210  0.00  0.00    +0.000 A 
ATOM     14  C   UNL     1       3.770   3.595  17.502  0.00  0.00    +0.000 A 
ATOM     15  C   UNL     1       4.976   4.099  17.013  0.00  0.00    +0.000 A 
ATOM     16  C   UNL     1       5.306   5.434  17.234  0.00  0.00    +0.000 A 
ATOM     17  C   UNL     1       4.439   6.255  17.960  0.00  0.00    +0.000 A 
ATOM     18  C   UNL     1       3.219   5.772  18.452  0.00  0.00    +0.000 A 
BRANCH  13  20
ATOM     19  C   UNL     1       1.843   3.115  20.383  0.00  0.00    +0.000 C 
ATOM     20  S   UNL     1       1.323   3.725  18.752  0.00  0.00    +0.000 S 
ENDBRANCH  13  20
BRANCH  16  21
ATOM     21  C   UNL     1       6.528   5.977  16.719  0.00  0.00    +0.000 C 
ATOM     22  N   UNL     1       7.520   6.417  16.307  0.00  0.00    +0.000 NA
ENDBRANCH  16  21
ENDBRANCH   1  18
TORSDOF 4
ENDMDL
MODEL 3
REMARK VINA RESULT:      -6.7      4.159      7.671
REMARK  Name = 
REMARK  5 active torsions:
REMARK  status: ('A' for Active; 'I' for Inactive)
REMARK    1  A    between atoms: C_1  and  S_2
REMARK    2  A    between atoms: S_2  and  C_3
REMARK    3  A    between atoms: C_6  and  C_7
REMARK    4  A    between atoms: C_10  and  N_11
REMARK    5  A    between atoms: C_12  and  C_14
REMARK                            x       y       z     vdW  Elec       q    Type
REMARK                         _______ _______ _______ _____ _____    ______ ____
ROOT
ATOM      1  N   UNL     1       2.342   6.529  20.289  0.00  0.00    +0.000 N 
ATOM      2  C   UNL     1       1.963   7.669  19.602  0.00  0.00    +0.000 C 
ATOM      3  O   UNL     1       2.234   7.899  18.426  0.00  0.00    +0.000 OA
ATOM      4  H   UNL     1       1.947   6.358  21.211  0.00  0.00    +0.000 HD
ENDROOT
BRANCH   2   5
ATOM      5  C   UNL     1       1.176   8.719  20.313  0.00  0.00    +0.000 A 
ATOM      6  C   UNL     1       0.666   8.336  21.574  0.00  0.00    +0.000 A 
ATOM      7  C   UNL     1      -0.021   9.240  22.386  0.00  0.00    +0.000 A 
ATOM      8  C   UNL     1      -0.210  10.543  21.944  0.00  0.00    +0.000 A 
ATOM      9 CL   UNL     1      -1.025  11.674  22.950  0.00  0.00    +0.000 Cl
ATOM     10  C   UNL     1       0.273  10.941  20.699  0.00  0.00    +0.000 A 
ATOM     11  C   UNL     1       0.968  10.034  19.882  0.00  0.00    +0.000 A 
ATOM     12 CL   UNL     1       1.575  10.661  18.392  0.00  0.00    +0.000 Cl
ENDBRANCH   2   5
BRANCH   1  18
ATOM     13  C   UNL     1       2.695   4.163  19.761  0.00  0.00    +0.000 A 
ATOM     14  C   UNL     1       3.524   3.125  19.303  0.00  0.00    +0.000 A 
ATOM     15  C   UNL     1       4.818   3.394  18.855  0.00  0.00    +0.000 A 
ATOM     16  C   UNL     1       5.293   4.703  18.868  0.00  0.00    +0.000 A 
ATOM     17  C   UNL     1       4.483   5.736  19.347  0.00  0.00    +0.000 A 
ATOM     18  C   UNL     1       3.177   5.489  19.793  0.00  0.00    +0.000 A 
BRANCH  13  20
ATOM     19  C   UNL     1       1.409   2.650  21.652  0.00  0.00    +0.000 C 
ATOM     20  S   UNL     1       1.022   3.753  20.260  0.00  0.00    +0.000 S 
ENDBRANCH  13  20
BRANCH  16  21
ATOM     21  C   UNL     1       6.610   5.004  18.389  0.00  0.00    +0.000 C 
ATOM     22  N   UNL     1       7.675   5.254  17.999  0.00  0.00    +0.000 NA
ENDBRANCH  16  21
ENDBRANCH   1  18
TORSDOF 4
ENDMDL
MODEL 4
REMARK VINA RESULT:      -6.7      2.007      2.906
REMARK  Name = 
REMARK  5 active torsions:
REMARK  status: ('A' for Active; 'I' for Inactive)
REMARK    1  A    between atoms: C_1  and  S_2
REMARK    2  A    between atoms: S_2  and  C_3
REMARK    3  A    between atoms: C_6  and  C_7
REMARK    4  A    between atoms: C_10  and  N_11
REMARK    5  A    between atoms: C_12  and  C_14
REMARK                            x       y       z     vdW  Elec       q    Type
REMARK                         _______ _______ _______ _____ _____    ______ ____
ROOT
ATOM      1  N   UNL     1       3.610   4.787  17.365  0.00  0.00    +0.000 N 
ATOM      2  C   UNL     1       4.981   4.607  17.399  0.00  0.00    +0.000 C 
ATOM      3  O   UNL     1       5.637   4.424  18.422  0.00  0.00    +0.000 OA
ATOM      4  H   UNL     1       3.137   4.781  16.463  0.00  0.00    +0.000 HD
ENDROOT
BRANCH   2   5
ATOM      5  C   UNL     1       5.752   4.639  16.121  0.00  0.00    +0.000 A 
ATOM      6  C   UNL     1       5.249   3.807  15.096  0.00  0.00    +0.000 A 
ATOM      7  C   UNL     1       5.820   3.796  13.822  0.00  0.00    +0.000 A 
ATOM      8  C   UNL     1       6.907   4.618  13.557  0.00  0.00    +0.000 A 
ATOM      9 CL   UNL     1       7.598   4.637  11.983  0.00  0.00    +0.000 Cl
ATOM     10  C   UNL     1       7.429   5.438  14.556  0.00  0.00    +0.000 A 
ATOM     11  C   UNL     1       6.854   5.455  15.837  0.00  0.00    +0.000 A 
ATOM     12 CL   UNL     1       7.545   6.559  16.969  0.00  0.00    +0.000 Cl
ENDBRANCH   2   5
BRANCH   1  18
ATOM     13  C   UNL     1       2.056   3.743  18.945  0.00  0.00    +0.000 A 
ATOM     14  C   UNL     1       1.179   3.839  20.038  0.00  0.00    +0.000 A 
ATOM     15  C   UNL     1       1.000   5.054  20.701  0.00  0.00    +0.000 A 
ATOM     16  C   UNL     1       1.693   6.183  20.270  0.00  0.00    +0.000 A 
ATOM     17  C   UNL     1       2.547   6.099  19.167  0.00  0.00    +0.000 A 
ATOM     18  C   UNL     1       2.748   4.887  18.493  0.00  0.00    +0.000 A 
BRANCH  13  20
ATOM     19  C   UNL     1       3.753   1.595  19.112  0.00  0.00    +0.000 C 
ATOM     20  S   UNL     1       2.287   2.135  18.184  0.00  0.00    +0.000 S 
ENDBRANCH  13  20
BRANCH  16  21
ATOM     21  C   UNL     1       1.542   7.435  20.952  0.00  0.00    +0.000 C 
ATOM     22  N   UNL     1       1.417   8.445  21.509  0.00  0.00    +0.000 NA
ENDBRANCH  16  21
ENDBRANCH   1  18
TORSDOF 4
ENDMDL
MODEL 5
REMARK VINA RESULT:      -6.6      3.835      7.160
REMARK  Name = 
REMARK  5 active torsions:
REMARK  status: ('A' for Active; 'I' for Inactive)
REMARK    1  A    between atoms: C_1  and  S_2
REMARK    2  A    between atoms: S_2  and  C_3
REMARK    3  A    between atoms: C_6  and  C_7
REMARK    4  A    between atoms: C_10  and  N_11
REMARK    5  A    between atoms: C_12  and  C_14
REMARK                            x       y       z     vdW  Elec       q    Type
REMARK                         _______ _______ _______ _____ _____    ______ ____
ROOT
ATOM      1  N   UNL     1       4.585   6.706  17.312  0.00  0.00    +0.000 N 
ATOM      2  C   UNL     1       3.334   6.447  17.846  0.00  0.00    +0.000 C 
ATOM      3  O   UNL     1       2.783   5.348  17.833  0.00  0.00    +0.000 OA
ATOM      4  H   UNL     1       5.021   7.606  17.501  0.00  0.00    +0.000 HD
ENDROOT
BRANCH   2   5
ATOM      5  C   UNL     1       2.569   7.559  18.481  0.00  0.00    +0.000 A 
ATOM      6  C   UNL     1       2.392   8.704  17.672  0.00  0.00    +0.000 A 
ATOM      7  C   UNL     1       1.628   9.790  18.104  0.00  0.00    +0.000 A 
ATOM      8  C   UNL     1       1.032   9.745  19.358  0.00  0.00    +0.000 A 
ATOM      9 CL   UNL     1       0.062  11.062  19.887  0.00  0.00    +0.000 Cl
ATOM     10  C   UNL     1       1.203   8.632  20.179  0.00  0.00    +0.000 A 
ATOM     11  C   UNL     1       1.967   7.537  19.744  0.00  0.00    +0.000 A 
ATOM     12 CL   UNL     1       2.050   6.190  20.821  0.00  0.00    +0.000 Cl
ENDBRANCH   2   5
BRANCH   1  18
ATOM     13  C   UNL     1       6.608   5.336  17.144  0.00  0.00    +0.000 A 
ATOM     14  C   UNL     1       7.429   4.455  16.420  0.00  0.00    +0.000 A 
ATOM     15  C   UNL     1       7.045   4.002  15.157  0.00  0.00    +0.000 A 
ATOM     16  C   UNL     1       5.839   4.431  14.608  0.00  0.00    +0.000 A 
ATOM     17  C   UNL     1       5.031   5.327  15.313  0.00  0.00    +0.000 A 
ATOM     18  C   UNL     1       5.394   5.788  16.585  0.00  0.00    +0.000 A 
BRANCH  13  20
ATOM     19  C   UNL     1       8.022   7.351  18.351  0.00  0.00    +0.000 C 
ATOM     20  S   UNL     1       7.134   5.826  18.787  0.00  0.00    +0.000 S 
ENDBRANCH  13  20
BRANCH  16  21
ATOM     21  C   UNL     1       5.414   3.957  13.324  0.00  0.00    +0.000 C 
ATOM     22  N   UNL     1       5.072   3.579  12.281  0.00  0.00    +0.000 NA
ENDBRANCH  16  21
ENDBRANCH   1  18
TORSDOF 4
ENDMDL
MODEL 6
REMARK VINA RESULT:      -6.6      4.204      7.943
REMARK  Name = 
REMARK  5 active torsions:
REMARK  status: ('A' for Active; 'I' for Inactive)
REMARK    1  A    between atoms: C_1  and  S_2
REMARK    2  A    between atoms: S_2  and  C_3
REMARK    3  A    between atoms: C_6  and  C_7
REMARK    4  A    between atoms: C_10  and  N_11
REMARK    5  A    between atoms: C_12  and  C_14
REMARK                            x       y       z     vdW  Elec       q    Type
REMARK                         _______ _______ _______ _____ _____    ______ ____
ROOT
ATOM      1  N   UNL     1       2.199   6.756  19.943  0.00  0.00    +0.000 N 
ATOM      2  C   UNL     1       1.900   8.037  19.512  0.00  0.00    +0.000 C 
ATOM      3  O   UNL     1       2.328   8.544  18.477  0.00  0.00    +0.000 OA
ATOM      4  H   UNL     1       1.683   6.371  20.731  0.00  0.00    +0.000 HD
ENDROOT
BRANCH   2   5
ATOM      5  C   UNL     1       1.005   8.894  20.343  0.00  0.00    +0.000 A 
ATOM      6  C   UNL     1       1.179   8.767  21.740  0.00  0.00    +0.000 A 
ATOM      7  C   UNL     1       0.468   9.565  22.637  0.00  0.00    +0.000 A 
ATOM      8  C   UNL     1      -0.433  10.502  22.148  0.00  0.00    +0.000 A 
ATOM      9 CL   UNL     1      -1.290  11.513  23.243  0.00  0.00    +0.000 Cl
ATOM     10  C   UNL     1      -0.632  10.637  20.775  0.00  0.00    +0.000 A 
ATOM     11  C   UNL     1       0.086   9.839  19.870  0.00  0.00    +0.000 A 
ATOM     12 CL   UNL     1      -0.196  10.144  18.194  0.00  0.00    +0.000 Cl
ENDBRANCH   2   5
BRANCH   1  18
ATOM     13  C   UNL     1       3.270   4.555  19.852  0.00  0.00    +0.000 A 
ATOM     14  C   UNL     1       4.192   3.670  19.269  0.00  0.00    +0.000 A 
ATOM     15  C   UNL     1       4.943   4.055  18.158  0.00  0.00    +0.000 A 
ATOM     16  C   UNL     1       4.779   5.332  17.624  0.00  0.00    +0.000 A 
ATOM     17  C   UNL     1       3.881   6.225  18.215  0.00  0.00    +0.000 A 
ATOM     18  C   UNL     1       3.112   5.855  19.326  0.00  0.00    +0.000 A 
BRANCH  13  20
ATOM     19  C   UNL     1       1.092   2.959  20.324  0.00  0.00    +0.000 C 
ATOM     20  S   UNL     1       2.294   3.970  21.238  0.00  0.00    +0.000 S 
ENDBRANCH  13  20
BRANCH  16  21
ATOM     21  C   UNL     1       5.521   5.738  16.467  0.00  0.00    +0.000 C 
ATOM     22  N   UNL     1       6.117   6.066  15.527  0.00  0.00    +0.000 NA
ENDBRANCH  16  21
ENDBRANCH   1  18
TORSDOF 4
ENDMDL
MODEL 7
REMARK VINA RESULT:      -6.5      4.374      7.265
REMARK  Name = 
REMARK  5 active torsions:
REMARK  status: ('A' for Active; 'I' for Inactive)
REMARK    1  A    between atoms: C_1  and  S_2
REMARK    2  A    between atoms: S_2  and  C_3
REMARK    3  A    between atoms: C_6  and  C_7
REMARK    4  A    between atoms: C_10  and  N_11
REMARK    5  A    between atoms: C_12  and  C_14
REMARK                            x       y       z     vdW  Elec       q    Type
REMARK                         _______ _______ _______ _____ _____    ______ ____
ROOT
ATOM      1  N   UNL     1       2.728   6.925  19.726  0.00  0.00    +0.000 N 
ATOM      2  C   UNL     1       2.170   7.773  18.786  0.00  0.00    +0.000 C 
ATOM      3  O   UNL     1       2.146   7.558  17.576  0.00  0.00    +0.000 OA
ATOM      4  H   UNL     1       2.569   7.114  20.713  0.00  0.00    +0.000 HD
ENDROOT
BRANCH   2   5
ATOM      5  C   UNL     1       1.553   9.055  19.237  0.00  0.00    +0.000 A 
ATOM      6  C   UNL     1       1.724  10.147  18.357  0.00  0.00    +0.000 A 
ATOM      7  C   UNL     1       1.134  11.386  18.610  0.00  0.00    +0.000 A 
ATOM      8  C   UNL     1       0.363  11.550  19.753  0.00  0.00    +0.000 A 
ATOM      9 CL   UNL     1      -0.396  13.062  20.059  0.00  0.00    +0.000 Cl
ATOM     10  C   UNL     1       0.190  10.493  20.644  0.00  0.00    +0.000 A 
ATOM     11  C   UNL     1       0.779   9.243  20.389  0.00  0.00    +0.000 A 
ATOM     12 CL   UNL     1       0.438   7.993  21.528  0.00  0.00    +0.000 Cl
ENDBRANCH   2   5
BRANCH   1  18
ATOM     13  C   UNL     1       2.878   4.481  19.807  0.00  0.00    +0.000 A 
ATOM     14  C   UNL     1       3.590   3.293  19.572  0.00  0.00    +0.000 A 
ATOM     15  C   UNL     1       4.847   3.327  18.967  0.00  0.00    +0.000 A 
ATOM     16  C   UNL     1       5.403   4.550  18.599  0.00  0.00    +0.000 A 
ATOM     17  C   UNL     1       4.710   5.736  18.854  0.00  0.00    +0.000 A 
ATOM     18  C   UNL     1       3.443   5.725  19.453  0.00  0.00    +0.000 A 
BRANCH  13  20
ATOM     19  C   UNL     1       1.445   2.784  21.414  0.00  0.00    +0.000 C 
ATOM     20  S   UNL     1       1.240   4.358  20.529  0.00  0.00    +0.000 S 
ENDBRANCH  13  20
BRANCH  16  21
ATOM     21  C   UNL     1       6.681   4.604  17.954  0.00  0.00    +0.000 C 
ATOM     22  N   UNL     1       7.719   4.651  17.436  0.00  0.00    +0.000 NA
ENDBRANCH  16  21
ENDBRANCH   1  18
TORSDOF 4
ENDMDL
MODEL 8
REMARK VINA RESULT:      -6.4      4.059      7.556
REMARK  Name = 
REMARK  5 active torsions:
REMARK  status: ('A' for Active; 'I' for Inactive)
REMARK    1  A    between atoms: C_1  and  S_2
REMARK    2  A    between atoms: S_2  and  C_3
REMARK    3  A    between atoms: C_6  and  C_7
REMARK    4  A    between atoms: C_10  and  N_11
REMARK    5  A    between atoms: C_12  and  C_14
REMARK                            x       y       z     vdW  Elec       q    Type
REMARK                         _______ _______ _______ _____ _____    ______ ____
ROOT
ATOM      1  N   UNL     1       2.564   6.877  18.738  0.00  0.00    +0.000 N 
ATOM      2  C   UNL     1       2.268   8.133  18.237  0.00  0.00    +0.000 C 
ATOM      3  O   UNL     1       2.573   8.527  17.114  0.00  0.00    +0.000 OA
ATOM      4  H   UNL     1       2.143   6.589  19.619  0.00  0.00    +0.000 HD
ENDROOT
BRANCH   2   5
ATOM      5  C   UNL     1       1.535   9.106  19.099  0.00  0.00    +0.000 A 
ATOM      6  C   UNL     1       1.273  10.359  18.500  0.00  0.00    +0.000 A 
ATOM      7  C   UNL     1       0.526  11.338  19.158  0.00  0.00    +0.000 A 
ATOM      8  C   UNL     1       0.033  11.076  20.429  0.00  0.00    +0.000 A 
ATOM      9 CL   UNL     1      -0.916  12.262  21.235  0.00  0.00    +0.000 Cl
ATOM     10  C   UNL     1       0.289   9.853  21.046  0.00  0.00    +0.000 A 
ATOM     11  C   UNL     1       1.036   8.865  20.385  0.00  0.00    +0.000 A 
ATOM     12 CL   UNL     1       1.230   7.368  21.222  0.00  0.00    +0.000 Cl
ENDBRANCH   2   5
BRANCH   1  18
ATOM     13  C   UNL     1       2.917   4.532  18.124  0.00  0.00    +0.000 A 
ATOM     14  C   UNL     1       3.695   3.534  17.515  0.00  0.00    +0.000 A 
ATOM     15  C   UNL     1       4.879   3.861  16.852  0.00  0.00    +0.000 A 
ATOM     16  C   UNL     1       5.295   5.190  16.799  0.00  0.00    +0.000 A 
ATOM     17  C   UNL     1       4.538   6.183  17.426  0.00  0.00    +0.000 A 
ATOM     18  C   UNL     1       3.342   5.877  18.089  0.00  0.00    +0.000 A 
BRANCH  13  20
ATOM     19  C   UNL     1       1.486   2.252  18.641  0.00  0.00    +0.000 C 
ATOM     20  S   UNL     1       1.375   4.047  18.901  0.00  0.00    +0.000 S 
ENDBRANCH  13  20
BRANCH  16  21
ATOM     21  C   UNL     1       6.494   5.550  16.102  0.00  0.00    +0.000 C 
ATOM     22  N   UNL     1       7.462   5.844  15.532  0.00  0.00    +0.000 NA
ENDBRANCH  16  21
ENDBRANCH   1  18
TORSDOF 4
ENDMDL
MODEL 9
REMARK VINA RESULT:      -6.4      4.089      7.880
REMARK  Name = 
REMARK  5 active torsions:
REMARK  status: ('A' for Active; 'I' for Inactive)
REMARK    1  A    between atoms: C_1  and  S_2
REMARK    2  A    between atoms: S_2  and  C_3
REMARK    3  A    between atoms: C_6  and  C_7
REMARK    4  A    between atoms: C_10  and  N_11
REMARK    5  A    between atoms: C_12  and  C_14
REMARK                            x       y       z     vdW  Elec       q    Type
REMARK                         _______ _______ _______ _____ _____    ______ ____
ROOT
ATOM      1  N   UNL     1       2.203   7.495  19.529  0.00  0.00    +0.000 N 
ATOM      2  C   UNL     1       1.575   8.562  18.911  0.00  0.00    +0.000 C 
ATOM      3  O   UNL     1       1.466   8.701  17.695  0.00  0.00    +0.000 OA
ATOM      4  H   UNL     1       2.113   7.390  20.537  0.00  0.00    +0.000 HD
ENDROOT
BRANCH   2   5
ATOM      5  C   UNL     1       0.982   9.644  19.751  0.00  0.00    +0.000 A 
ATOM      6  C   UNL     1       0.221   9.197  20.855  0.00  0.00    +0.000 A 
ATOM      7  C   UNL     1      -0.325  10.095  21.773  0.00  0.00    +0.000 A 
ATOM      8  C   UNL     1      -0.119  11.457  21.596  0.00  0.00    +0.000 A 
ATOM      9 CL   UNL     1      -0.760  12.571  22.739  0.00  0.00    +0.000 Cl
ATOM     10  C   UNL     1       0.616  11.923  20.508  0.00  0.00    +0.000 A 
ATOM     11  C   UNL     1       1.171  11.021  19.586  0.00  0.00    +0.000 A 
ATOM     12 CL   UNL     1       2.118  11.712  18.319  0.00  0.00    +0.000 Cl
ENDBRANCH   2   5
BRANCH   1  18
ATOM     13  C   UNL     1       2.765   5.118  19.343  0.00  0.00    +0.000 A 
ATOM     14  C   UNL     1       3.479   4.077  18.726  0.00  0.00    +0.000 A 
ATOM     15  C   UNL     1       4.312   4.335  17.636  0.00  0.00    +0.000 A 
ATOM     16  C   UNL     1       4.440   5.638  17.159  0.00  0.00    +0.000 A 
ATOM     17  C   UNL     1       3.752   6.680  17.786  0.00  0.00    +0.000 A 
ATOM     18  C   UNL     1       2.904   6.442  18.876  0.00  0.00    +0.000 A 
BRANCH  13  20
ATOM     19  C   UNL     1       0.886   3.226  19.980  0.00  0.00    +0.000 C 
ATOM     20  S   UNL     1       1.665   4.703  20.697  0.00  0.00    +0.000 S 
ENDBRANCH  13  20
BRANCH  16  21
ATOM     21  C   UNL     1       5.269   5.920  16.025  0.00  0.00    +0.000 C 
ATOM     22  N   UNL     1       5.938   6.144  15.104  0.00  0.00    +0.000 NA
ENDBRANCH  16  21
ENDBRANCH   1  18
TORSDOF 4
ENDMDL
