MODEL 1
REMARK VINA RESULT:      -6.8      0.000      0.000
REMARK  Name = 
REMARK  7 active torsions:
REMARK  status: ('A' for Active; 'I' for Inactive)
REMARK    1  A    between atoms: C_1  and  C_2
REMARK    2  A    between atoms: C_9  and  S_10
REMARK    3  A    between atoms: S_10  and  C_11
REMARK    4  A    between atoms: C_18  and  C_19
REMARK    5  A    between atoms: N_20  and  C_21
REMARK    6  A    between atoms: C_21  and  C_22
REMARK    7  A    between atoms: C_22  and  O_24
REMARK                            x       y       z     vdW  Elec       q    Type
REMARK                         _______ _______ _______ _____ _____    ______ ____
ROOT
ATOM      1  C   UNL     1       4.473   2.366  20.182  0.00  0.00    +0.000 C 
ATOM      2  C   UNL     1       3.357   3.371  20.073  0.00  0.00    +0.000 A 
ATOM      3  C   UNL     1       2.138   3.079  20.709  0.00  0.00    +0.000 A 
ATOM      4  F   UNL     1       2.006   1.934  21.398  0.00  0.00    +0.000 F 
ATOM      5  C   UNL     1       1.045   3.926  20.647  0.00  0.00    +0.000 A 
ATOM      6  C   UNL     1       1.117   5.117  19.931  0.00  0.00    +0.000 A 
ATOM      7  C   UNL     1       2.320   5.433  19.274  0.00  0.00    +0.000 A 
ATOM      8  C   UNL     1       3.447   4.593  19.339  0.00  0.00    +0.000 A 
ATOM      9  C   UNL     1       4.461   5.230  18.554  0.00  0.00    +0.000 A 
ATOM     10  C   UNL     1       3.934   6.375  17.984  0.00  0.00    +0.000 A 
ATOM     11  C   UNL     1       4.542   7.335  17.012  0.00  0.00    +0.000 C 
ATOM     12  N   UNL     1       2.643   6.510  18.458  0.00  0.00    +0.000 N 
ENDROOT
BRANCH   9  13
ATOM     13  S   UNL     1       6.068   4.598  18.234  0.00  0.00    +0.000 S 
BRANCH  13  14
ATOM     14  C   UNL     1       6.178   4.494  16.454  0.00  0.00    +0.000 A 
ATOM     15  C   UNL     1       7.258   5.124  15.817  0.00  0.00    +0.000 A 
ATOM     16  C   UNL     1       7.461   4.979  14.439  0.00  0.00    +0.000 A 
ATOM     17  C   UNL     1       6.582   4.202  13.691  0.00  0.00    +0.000 A 
ATOM     18 CL   UNL     1       6.856   3.978  12.008  0.00  0.00    +0.000 Cl
ATOM     19  C   UNL     1       5.493   3.588  14.304  0.00  0.00    +0.000 A 
ATOM     20  C   UNL     1       5.294   3.733  15.682  0.00  0.00    +0.000 A 
ENDBRANCH  13  14
ENDBRANCH   9  13
BRANCH  12  21
ATOM     21  C   UNL     1       1.707   7.565  18.061  0.00  0.00    +0.000 C 
BRANCH  21  22
ATOM     22  C   UNL     1       1.700   8.787  18.946  0.00  0.00    +0.000 C 
ATOM     23  O   UNL     1       1.450   8.726  20.146  0.00  0.00    +0.000 OA
BRANCH  22  24
ATOM     24  O   UNL     1       2.064   9.951  18.366  0.00  0.00    +0.000 OA
ATOM     25  H   UNL     1       1.329  10.545  18.119  0.00  0.00    +0.000 HD
ENDBRANCH  22  24
ENDBRANCH  21  22
ENDBRANCH  12  21
TORSDOF 5
ENDMDL
MODEL 2
REMARK VINA RESULT:      -6.7      0.214      1.004
REMARK  Name = 
REMARK  7 active torsions:
REMARK  status: ('A' for Active; 'I' for Inactive)
REMARK    1  A    between atoms: C_1  and  C_2
REMARK    2  A    between atoms: C_9  and  S_10
REMARK    3  A    between atoms: S_10  and  C_11
REMARK    4  A    between atoms: C_18  and  C_19
REMARK    5  A    between atoms: N_20  and  C_21
REMARK    6  A    between atoms: C_21  and  C_22
REMARK    7  A    between atoms: C_22  and  O_24
REMARK                            x       y       z     vdW  Elec       q    Type
REMARK                         _______ _______ _______ _____ _____    ______ ____
ROOT
ATOM      1  C   UNL     1       4.513   2.439  20.283  0.00  0.00    +0.000 C 
ATOM      2  C   UNL     1       3.389   3.424  20.102  0.00  0.00    +0.000 A 
ATOM      3  C   UNL     1       2.141   3.118  20.674  0.00  0.00    +0.000 A 
ATOM      4  F   UNL     1       1.990   1.979  21.368  0.00  0.00    +0.000 F 
ATOM      5  C   UNL     1       1.040   3.947  20.542  0.00  0.00    +0.000 A 
ATOM      6  C   UNL     1       1.133   5.131  19.817  0.00  0.00    +0.000 A 
ATOM      7  C   UNL     1       2.364   5.460  19.223  0.00  0.00    +0.000 A 
ATOM      8  C   UNL     1       3.499   4.638  19.359  0.00  0.00    +0.000 A 
ATOM      9  C   UNL     1       4.544   5.283  18.623  0.00  0.00    +0.000 A 
ATOM     10  C   UNL     1       4.031   6.414  18.011  0.00  0.00    +0.000 A 
ATOM     11  C   UNL     1       4.676   7.373  17.063  0.00  0.00    +0.000 C 
ATOM     12  N   UNL     1       2.714   6.533  18.412  0.00  0.00    +0.000 N 
ENDROOT
BRANCH   9  13
ATOM     13  S   UNL     1       6.176   4.674  18.398  0.00  0.00    +0.000 S 
BRANCH  13  14
ATOM     14  C   UNL     1       6.323   4.384  16.642  0.00  0.00    +0.000 A 
ATOM     15  C   UNL     1       5.329   3.622  16.008  0.00  0.00    +0.000 A 
ATOM     16  C   UNL     1       5.329   3.459  14.617  0.00  0.00    +0.000 A 
ATOM     17  C   UNL     1       6.325   4.058  13.853  0.00  0.00    +0.000 A 
ATOM     18 CL   UNL     1       6.300   3.905  12.140  0.00  0.00    +0.000 Cl
ATOM     19  C   UNL     1       7.331   4.799  14.468  0.00  0.00    +0.000 A 
ATOM     20  C   UNL     1       7.327   4.962  15.859  0.00  0.00    +0.000 A 
ENDBRANCH  13  14
ENDBRANCH   9  13
BRANCH  12  21
ATOM     21  C   UNL     1       1.785   7.567  17.953  0.00  0.00    +0.000 C 
BRANCH  21  22
ATOM     22  C   UNL     1       1.714   8.801  18.819  0.00  0.00    +0.000 C 
ATOM     23  O   UNL     1       1.485   8.743  20.024  0.00  0.00    +0.000 OA
BRANCH  22  24
ATOM     24  O   UNL     1       1.995   9.976  18.216  0.00  0.00    +0.000 OA
ATOM     25  H   UNL     1       2.924  10.270  18.283  0.00  0.00    +0.000 HD
ENDBRANCH  22  24
ENDBRANCH  21  22
ENDBRANCH  12  21
TORSDOF 5
ENDMDL
MODEL 3
REMARK VINA RESULT:      -6.6      3.682      4.838
REMARK  Name = 
REMARK  7 active torsions:
REMARK  status: ('A' for Active; 'I' for Inactive)
REMARK    1  A    between atoms: C_1  and  C_2
REMARK    2  A    between atoms: C_9  and  S_10
REMARK    3  A    between atoms: S_10  and  C_11
REMARK    4  A    between atoms: C_18  and  C_19
REMARK    5  A    between atoms: N_20  and  C_21
REMARK    6  A    between atoms: C_21  and  C_22
REMARK    7  A    between atoms: C_22  and  O_24
REMARK                            x       y       z     vdW  Elec       q    Type
REMARK                         _______ _______ _______ _____ _____    ______ ____
ROOT
ATOM      1  C   UNL     1       3.596   7.542  17.567  0.00  0.00    +0.000 C 
ATOM      2  C   UNL     1       2.784   6.715  18.528  0.00  0.00    +0.000 A 
ATOM      3  C   UNL     1       2.021   7.388  19.499  0.00  0.00    +0.000 A 
ATOM      4  F   UNL     1       2.025   8.730  19.535  0.00  0.00    +0.000 F 
ATOM      5  C   UNL     1       1.262   6.719  20.443  0.00  0.00    +0.000 A 
ATOM      6  C   UNL     1       1.235   5.328  20.467  0.00  0.00    +0.000 A 
ATOM      7  C   UNL     1       1.996   4.625  19.516  0.00  0.00    +0.000 A 
ATOM      8  C   UNL     1       2.762   5.288  18.539  0.00  0.00    +0.000 A 
ATOM      9  C   UNL     1       3.395   4.260  17.768  0.00  0.00    +0.000 A 
ATOM     10  C   UNL     1       3.073   3.029  18.312  0.00  0.00    +0.000 A 
ATOM     11  C   UNL     1       3.548   1.660  17.945  0.00  0.00    +0.000 C 
ATOM     12  N   UNL     1       2.192   3.259  19.352  0.00  0.00    +0.000 N 
ENDROOT
BRANCH   9  13
ATOM     13  S   UNL     1       4.518   4.509  16.442  0.00  0.00    +0.000 S 
BRANCH  13  14
ATOM     14  C   UNL     1       5.862   5.453  17.144  0.00  0.00    +0.000 A 
ATOM     15  C   UNL     1       6.295   6.602  16.464  0.00  0.00    +0.000 A 
ATOM     16  C   UNL     1       7.263   7.444  17.023  0.00  0.00    +0.000 A 
ATOM     17  C   UNL     1       7.805   7.140  18.269  0.00  0.00    +0.000 A 
ATOM     18 CL   UNL     1       8.955   8.199  18.985  0.00  0.00    +0.000 Cl
ATOM     19  C   UNL     1       7.401   5.992  18.947  0.00  0.00    +0.000 A 
ATOM     20  C   UNL     1       6.432   5.153  18.386  0.00  0.00    +0.000 A 
ENDBRANCH  13  14
ENDBRANCH   9  13
BRANCH  12  21
ATOM     21  C   UNL     1       1.642   2.227  20.232  0.00  0.00    +0.000 C 
BRANCH  21  22
ATOM     22  C   UNL     1       2.089   2.300  21.671  0.00  0.00    +0.000 C 
ATOM     23  O   UNL     1       3.273   2.260  21.992  0.00  0.00    +0.000 OA
BRANCH  22  24
ATOM     24  O   UNL     1       1.121   2.494  22.592  0.00  0.00    +0.000 OA
ATOM     25  H   UNL     1       0.210   2.321  22.286  0.00  0.00    +0.000 HD
ENDBRANCH  22  24
ENDBRANCH  21  22
ENDBRANCH  12  21
TORSDOF 5
ENDMDL
MODEL 4
REMARK VINA RESULT:      -6.5      3.880      6.159
REMARK  Name = 
REMARK  7 active torsions:
REMARK  status: ('A' for Active; 'I' for Inactive)
REMARK    1  A    between atoms: C_1  and  C_2
REMARK    2  A    between atoms: C_9  and  S_10
REMARK    3  A    between atoms: S_10  and  C_11
REMARK    4  A    between atoms: C_18  and  C_19
REMARK    5  A    between atoms: N_20  and  C_21
REMARK    6  A    between atoms: C_21  and  C_22
REMARK    7  A    between atoms: C_22  and  O_24
REMARK                            x       y       z     vdW  Elec       q    Type
REMARK                         _______ _______ _______ _____ _____    ______ ____
ROOT
ATOM      1  C   UNL     1       1.077   4.143  20.547  0.00  0.00    +0.000 C 
ATOM      2  C   UNL     1       1.805   3.805  19.273  0.00  0.00    +0.000 A 
ATOM      3  C   UNL     1       1.601   2.531  18.712  0.00  0.00    +0.000 A 
ATOM      4  F   UNL     1       0.765   1.668  19.311  0.00  0.00    +0.000 F 
ATOM      5  C   UNL     1       2.242   2.116  17.558  0.00  0.00    +0.000 A 
ATOM      6  C   UNL     1       3.135   2.961  16.906  0.00  0.00    +0.000 A 
ATOM      7  C   UNL     1       3.369   4.238  17.448  0.00  0.00    +0.000 A 
ATOM      8  C   UNL     1       2.715   4.684  18.612  0.00  0.00    +0.000 A 
ATOM      9  C   UNL     1       3.205   6.006  18.859  0.00  0.00    +0.000 A 
ATOM     10  C   UNL     1       4.171   6.310  17.915  0.00  0.00    +0.000 A 
ATOM     11  C   UNL     1       5.050   7.513  17.790  0.00  0.00    +0.000 C 
ATOM     12  N   UNL     1       4.237   5.243  17.040  0.00  0.00    +0.000 N 
ENDROOT
BRANCH   9  13
ATOM     13  S   UNL     1       2.774   7.029  20.220  0.00  0.00    +0.000 S 
BRANCH  13  14
ATOM     14  C   UNL     1       1.635   8.231  19.551  0.00  0.00    +0.000 A 
ATOM     15  C   UNL     1       0.759   8.881  20.436  0.00  0.00    +0.000 A 
ATOM     16  C   UNL     1      -0.074   9.914  19.989  0.00  0.00    +0.000 A 
ATOM     17  C   UNL     1      -0.035  10.303  18.654  0.00  0.00    +0.000 A 
ATOM     18 CL   UNL     1      -1.018  11.606  18.111  0.00  0.00    +0.000 Cl
ATOM     19  C   UNL     1       0.812   9.654  17.760  0.00  0.00    +0.000 A 
ATOM     20  C   UNL     1       1.646   8.623  18.209  0.00  0.00    +0.000 A 
ENDBRANCH  13  14
ENDBRANCH   9  13
BRANCH  12  21
ATOM     21  C   UNL     1       5.171   5.133  15.917  0.00  0.00    +0.000 C 
BRANCH  21  22
ATOM     22  C   UNL     1       6.540   4.604  16.267  0.00  0.00    +0.000 C 
ATOM     23  O   UNL     1       7.489   4.678  15.492  0.00  0.00    +0.000 OA
BRANCH  22  24
ATOM     24  O   UNL     1       6.693   4.111  17.515  0.00  0.00    +0.000 OA
ATOM     25  H   UNL     1       6.371   4.686  18.236  0.00  0.00    +0.000 HD
ENDBRANCH  22  24
ENDBRANCH  21  22
ENDBRANCH  12  21
TORSDOF 5
ENDMDL
MODEL 5
REMARK VINA RESULT:      -6.5      3.701      5.025
REMARK  Name = 
REMARK  7 active torsions:
REMARK  status: ('A' for Active; 'I' for Inactive)
REMARK    1  A    between atoms: C_1  and  C_2
REMARK    2  A    between atoms: C_9  and  S_10
REMARK    3  A    between atoms: S_10  and  C_11
REMARK    4  A    between atoms: C_18  and  C_19
REMARK    5  A    between atoms: N_20  and  C_21
REMARK    6  A    between atoms: C_21  and  C_22
REMARK    7  A    between atoms: C_22  and  O_24
REMARK                            x       y       z     vdW  Elec       q    Type
REMARK                         _______ _______ _______ _____ _____    ______ ____
ROOT
ATOM      1  C   UNL     1       3.396   7.938  17.234  0.00  0.00    +0.000 C 
ATOM      2  C   UNL     1       2.746   7.392  18.477  0.00  0.00    +0.000 A 
ATOM      3  C   UNL     1       1.863   8.227  19.185  0.00  0.00    +0.000 A 
ATOM      4  F   UNL     1       1.615   9.467  18.732  0.00  0.00    +0.000 F 
ATOM      5  C   UNL     1       1.235   7.827  20.351  0.00  0.00    +0.000 A 
ATOM      6  C   UNL     1       1.469   6.560  20.878  0.00  0.00    +0.000 A 
ATOM      7  C   UNL     1       2.356   5.705  20.200  0.00  0.00    +0.000 A 
ATOM      8  C   UNL     1       2.992   6.088  19.004  0.00  0.00    +0.000 A 
ATOM      9  C   UNL     1       3.812   4.979  18.619  0.00  0.00    +0.000 A 
ATOM     10  C   UNL     1       3.722   3.997  19.590  0.00  0.00    +0.000 A 
ATOM     11  C   UNL     1       4.449   2.696  19.713  0.00  0.00    +0.000 C 
ATOM     12  N   UNL     1       2.806   4.432  20.528  0.00  0.00    +0.000 N 
ENDROOT
BRANCH   9  13
ATOM     13  S   UNL     1       4.879   4.919  17.226  0.00  0.00    +0.000 S 
BRANCH  13  14
ATOM     14  C   UNL     1       6.225   6.023  17.626  0.00  0.00    +0.000 A 
ATOM     15  C   UNL     1       6.310   7.245  16.940  0.00  0.00    +0.000 A 
ATOM     16  C   UNL     1       7.273   8.198  17.292  0.00  0.00    +0.000 A 
ATOM     17  C   UNL     1       8.157   7.934  18.333  0.00  0.00    +0.000 A 
ATOM     18 CL   UNL     1       9.307   9.123  18.804  0.00  0.00    +0.000 Cl
ATOM     19  C   UNL     1       8.100   6.718  19.010  0.00  0.00    +0.000 A 
ATOM     20  C   UNL     1       7.135   5.767  18.657  0.00  0.00    +0.000 A 
ENDBRANCH  13  14
ENDBRANCH   9  13
BRANCH  12  21
ATOM     21  C   UNL     1       2.452   3.714  21.754  0.00  0.00    +0.000 C 
BRANCH  21  22
ATOM     22  C   UNL     1       1.298   2.750  21.628  0.00  0.00    +0.000 C 
ATOM     23  O   UNL     1       1.009   1.954  22.516  0.00  0.00    +0.000 OA
BRANCH  22  24
ATOM     24  O   UNL     1       0.543   2.860  20.514  0.00  0.00    +0.000 OA
ATOM     25  H   UNL     1       0.945   3.368  19.783  0.00  0.00    +0.000 HD
ENDBRANCH  22  24
ENDBRANCH  21  22
ENDBRANCH  12  21
TORSDOF 5
ENDMDL
MODEL 6
REMARK VINA RESULT:      -6.3      7.605      9.599
REMARK  Name = 
REMARK  7 active torsions:
REMARK  status: ('A' for Active; 'I' for Inactive)
REMARK    1  A    between atoms: C_1  and  C_2
REMARK    2  A    between atoms: C_9  and  S_10
REMARK    3  A    between atoms: S_10  and  C_11
REMARK    4  A    between atoms: C_18  and  C_19
REMARK    5  A    between atoms: N_20  and  C_21
REMARK    6  A    between atoms: C_21  and  C_22
REMARK    7  A    between atoms: C_22  and  O_24
REMARK                            x       y       z     vdW  Elec       q    Type
REMARK                         _______ _______ _______ _____ _____    ______ ____
ROOT
ATOM      1  C   UNL     1       0.836   9.895  19.277  0.00  0.00    +0.000 C 
ATOM      2  C   UNL     1       0.205  10.165  20.617  0.00  0.00    +0.000 A 
ATOM      3  C   UNL     1       0.312   9.175  21.610  0.00  0.00    +0.000 A 
ATOM      4  F   UNL     1       0.976   8.038  21.347  0.00  0.00    +0.000 F 
ATOM      5  C   UNL     1      -0.255   9.317  22.865  0.00  0.00    +0.000 A 
ATOM      6  C   UNL     1      -0.972  10.466  23.188  0.00  0.00    +0.000 A 
ATOM      7  C   UNL     1      -1.106  11.470  22.212  0.00  0.00    +0.000 A 
ATOM      8  C   UNL     1      -0.524  11.350  20.936  0.00  0.00    +0.000 A 
ATOM      9  C   UNL     1      -0.877  12.543  20.227  0.00  0.00    +0.000 A 
ATOM     10  C   UNL     1      -1.701  13.314  21.029  0.00  0.00    +0.000 A 
ATOM     11  C   UNL     1      -2.414  14.593  20.728  0.00  0.00    +0.000 C 
ATOM     12  N   UNL     1      -1.804  12.671  22.247  0.00  0.00    +0.000 N 
ENDROOT
BRANCH   9  13
ATOM     13  S   UNL     1      -0.467  12.913  18.560  0.00  0.00    +0.000 S 
BRANCH  13  14
ATOM     14  C   UNL     1       1.007  13.917  18.659  0.00  0.00    +0.000 A 
ATOM     15  C   UNL     1       2.236  13.332  18.314  0.00  0.00    +0.000 A 
ATOM     16  C   UNL     1       3.405  14.099  18.260  0.00  0.00    +0.000 A 
ATOM     17  C   UNL     1       3.352  15.459  18.552  0.00  0.00    +0.000 A 
ATOM     18 CL   UNL     1       4.776  16.417  18.436  0.00  0.00    +0.000 Cl
ATOM     19  C   UNL     1       2.146  16.050  18.917  0.00  0.00    +0.000 A 
ATOM     20  C   UNL     1       0.977  15.281  18.968  0.00  0.00    +0.000 A 
ENDBRANCH  13  14
ENDBRANCH   9  13
BRANCH  12  21
ATOM     21  C   UNL     1      -2.627  13.123  23.370  0.00  0.00    +0.000 C 
BRANCH  21  22
ATOM     22  C   UNL     1      -4.002  12.507  23.452  0.00  0.00    +0.000 C 
ATOM     23  O   UNL     1      -4.728  12.392  22.469  0.00  0.00    +0.000 OA
BRANCH  22  24
ATOM     24  O   UNL     1      -4.368  12.011  24.653  0.00  0.00    +0.000 OA
ATOM     25  H   UNL     1      -5.096  11.360  24.635  0.00  0.00    +0.000 HD
ENDBRANCH  22  24
ENDBRANCH  21  22
ENDBRANCH  12  21
TORSDOF 5
ENDMDL
MODEL 7
REMARK VINA RESULT:      -6.3      7.684      9.631
REMARK  Name = 
REMARK  7 active torsions:
REMARK  status: ('A' for Active; 'I' for Inactive)
REMARK    1  A    between atoms: C_1  and  C_2
REMARK    2  A    between atoms: C_9  and  S_10
REMARK    3  A    between atoms: S_10  and  C_11
REMARK    4  A    between atoms: C_18  and  C_19
REMARK    5  A    between atoms: N_20  and  C_21
REMARK    6  A    between atoms: C_21  and  C_22
REMARK    7  A    between atoms: C_22  and  O_24
REMARK                            x       y       z     vdW  Elec       q    Type
REMARK                         _______ _______ _______ _____ _____    ______ ____
ROOT
ATOM      1  C   UNL     1       0.485   9.852  19.182  0.00  0.00    +0.000 C 
ATOM      2  C   UNL     1      -0.020  10.145  20.570  0.00  0.00    +0.000 A 
ATOM      3  C   UNL     1       0.122   9.147  21.551  0.00  0.00    +0.000 A 
ATOM      4  F   UNL     1       0.707   7.981  21.232  0.00  0.00    +0.000 F 
ATOM      5  C   UNL     1      -0.332   9.309  22.848  0.00  0.00    +0.000 A 
ATOM      6  C   UNL     1      -0.964  10.489  23.230  0.00  0.00    +0.000 A 
ATOM      7  C   UNL     1      -1.131  11.503  22.270  0.00  0.00    +0.000 A 
ATOM      8  C   UNL     1      -0.663  11.362  20.950  0.00  0.00    +0.000 A 
ATOM      9  C   UNL     1      -1.016  12.573  20.274  0.00  0.00    +0.000 A 
ATOM     10  C   UNL     1      -1.733  13.379  21.141  0.00  0.00    +0.000 A 
ATOM     11  C   UNL     1      -2.407  14.692  20.902  0.00  0.00    +0.000 C 
ATOM     12  N   UNL     1      -1.766  12.735  22.364  0.00  0.00    +0.000 N 
ENDROOT
BRANCH   9  13
ATOM     13  S   UNL     1      -0.728  12.931  18.579  0.00  0.00    +0.000 S 
BRANCH  13  14
ATOM     14  C   UNL     1       0.828  13.809  18.550  0.00  0.00    +0.000 A 
ATOM     15  C   UNL     1       0.837  15.159  18.933  0.00  0.00    +0.000 A 
ATOM     16  C   UNL     1       2.041  15.866  19.041  0.00  0.00    +0.000 A 
ATOM     17  C   UNL     1       3.245  15.223  18.766  0.00  0.00    +0.000 A 
ATOM     18 CL   UNL     1       4.730  16.070  18.949  0.00  0.00    +0.000 Cl
ATOM     19  C   UNL     1       3.251  13.890  18.365  0.00  0.00    +0.000 A 
ATOM     20  C   UNL     1       2.046  13.185  18.259  0.00  0.00    +0.000 A 
ENDBRANCH  13  14
ENDBRANCH   9  13
BRANCH  12  21
ATOM     21  C   UNL     1      -2.471  13.221  23.551  0.00  0.00    +0.000 C 
BRANCH  21  22
ATOM     22  C   UNL     1      -3.876  12.700  23.725  0.00  0.00    +0.000 C 
ATOM     23  O   UNL     1      -4.539  12.275  22.783  0.00  0.00    +0.000 OA
BRANCH  22  24
ATOM     24  O   UNL     1      -4.346  12.650  24.990  0.00  0.00    +0.000 OA
ATOM     25  H   UNL     1      -3.864  12.052  25.593  0.00  0.00    +0.000 HD
ENDBRANCH  22  24
ENDBRANCH  21  22
ENDBRANCH  12  21
TORSDOF 5
ENDMDL
MODEL 8
REMARK VINA RESULT:      -6.3      4.118      6.111
REMARK  Name = 
REMARK  7 active torsions:
REMARK  status: ('A' for Active; 'I' for Inactive)
REMARK    1  A    between atoms: C_1  and  C_2
REMARK    2  A    between atoms: C_9  and  S_10
REMARK    3  A    between atoms: S_10  and  C_11
REMARK    4  A    between atoms: C_18  and  C_19
REMARK    5  A    between atoms: N_20  and  C_21
REMARK    6  A    between atoms: C_21  and  C_22
REMARK    7  A    between atoms: C_22  and  O_24
REMARK                            x       y       z     vdW  Elec       q    Type
REMARK                         _______ _______ _______ _____ _____    ______ ____
ROOT
ATOM      1  C   UNL     1       1.012   4.212  19.365  0.00  0.00    +0.000 C 
ATOM      2  C   UNL     1       2.468   3.837  19.420  0.00  0.00    +0.000 A 
ATOM      3  C   UNL     1       2.835   2.714  20.183  0.00  0.00    +0.000 A 
ATOM      4  F   UNL     1       1.889   2.007  20.822  0.00  0.00    +0.000 F 
ATOM      5  C   UNL     1       4.149   2.302  20.316  0.00  0.00    +0.000 A 
ATOM      6  C   UNL     1       5.175   3.007  19.692  0.00  0.00    +0.000 A 
ATOM      7  C   UNL     1       4.842   4.142  18.931  0.00  0.00    +0.000 A 
ATOM      8  C   UNL     1       3.510   4.567  18.770  0.00  0.00    +0.000 A 
ATOM      9  C   UNL     1       3.564   5.740  17.952  0.00  0.00    +0.000 A 
ATOM     10  C   UNL     1       4.889   6.044  17.692  0.00  0.00    +0.000 A 
ATOM     11  C   UNL     1       5.486   7.212  16.973  0.00  0.00    +0.000 C 
ATOM     12  N   UNL     1       5.657   5.046  18.260  0.00  0.00    +0.000 N 
ENDROOT
BRANCH   9  13
ATOM     13  S   UNL     1       2.195   6.729  17.473  0.00  0.00    +0.000 S 
BRANCH  13  14
ATOM     14  C   UNL     1       1.849   7.759  18.891  0.00  0.00    +0.000 A 
ATOM     15  C   UNL     1       1.375   9.061  18.668  0.00  0.00    +0.000 A 
ATOM     16  C   UNL     1       0.978   9.872  19.737  0.00  0.00    +0.000 A 
ATOM     17  C   UNL     1       1.054   9.384  21.038  0.00  0.00    +0.000 A 
ATOM     18 CL   UNL     1       0.518  10.357  22.352  0.00  0.00    +0.000 Cl
ATOM     19  C   UNL     1       1.542   8.102  21.278  0.00  0.00    +0.000 A 
ATOM     20  C   UNL     1       1.936   7.292  20.207  0.00  0.00    +0.000 A 
ENDBRANCH  13  14
ENDBRANCH   9  13
BRANCH  12  21
ATOM     21  C   UNL     1       7.121   5.009  18.264  0.00  0.00    +0.000 C 
BRANCH  21  22
ATOM     22  C   UNL     1       7.782   5.748  19.401  0.00  0.00    +0.000 C 
ATOM     23  O   UNL     1       7.810   5.301  20.544  0.00  0.00    +0.000 OA
BRANCH  22  24
ATOM     24  O   UNL     1       8.415   6.897  19.084  0.00  0.00    +0.000 OA
ATOM     25  H   UNL     1       9.267   6.792  18.618  0.00  0.00    +0.000 HD
ENDBRANCH  22  24
ENDBRANCH  21  22
ENDBRANCH  12  21
TORSDOF 5
ENDMDL
MODEL 9
REMARK VINA RESULT:      -6.2      4.619      7.098
REMARK  Name = 
REMARK  7 active torsions:
REMARK  status: ('A' for Active; 'I' for Inactive)
REMARK    1  A    between atoms: C_1  and  C_2
REMARK    2  A    between atoms: C_9  and  S_10
REMARK    3  A    between atoms: S_10  and  C_11
REMARK    4  A    between atoms: C_18  and  C_19
REMARK    5  A    between atoms: N_20  and  C_21
REMARK    6  A    between atoms: C_21  and  C_22
REMARK    7  A    between atoms: C_22  and  O_24
REMARK                            x       y       z     vdW  Elec       q    Type
REMARK                         _______ _______ _______ _____ _____    ______ ____
ROOT
ATOM      1  C   UNL     1       5.865   8.450  17.262  0.00  0.00    +0.000 C 
ATOM      2  C   UNL     1       6.040   7.021  17.703  0.00  0.00    +0.000 A 
ATOM      3  C   UNL     1       7.349   6.534  17.867  0.00  0.00    +0.000 A 
ATOM      4  F   UNL     1       8.393   7.347  17.643  0.00  0.00    +0.000 F 
ATOM      5  C   UNL     1       7.614   5.229  18.244  0.00  0.00    +0.000 A 
ATOM      6  C   UNL     1       6.572   4.335  18.471  0.00  0.00    +0.000 A 
ATOM      7  C   UNL     1       5.251   4.789  18.305  0.00  0.00    +0.000 A 
ATOM      8  C   UNL     1       4.960   6.116  17.936  0.00  0.00    +0.000 A 
ATOM      9  C   UNL     1       3.534   6.202  17.858  0.00  0.00    +0.000 A 
ATOM     10  C   UNL     1       2.995   4.950  18.101  0.00  0.00    +0.000 A 
ATOM     11  C   UNL     1       1.576   4.484  18.044  0.00  0.00    +0.000 C 
ATOM     12  N   UNL     1       4.046   4.106  18.409  0.00  0.00    +0.000 N 
ENDROOT
BRANCH   9  13
ATOM     13  S   UNL     1       2.609   7.617  17.383  0.00  0.00    +0.000 S 
BRANCH  13  14
ATOM     14  C   UNL     1       1.937   8.263  18.907  0.00  0.00    +0.000 A 
ATOM     15  C   UNL     1       1.265   9.495  18.868  0.00  0.00    +0.000 A 
ATOM     16  C   UNL     1       0.619   9.995  20.005  0.00  0.00    +0.000 A 
ATOM     17  C   UNL     1       0.641   9.264  21.189  0.00  0.00    +0.000 A 
ATOM     18 CL   UNL     1      -0.196   9.847  22.573  0.00  0.00    +0.000 Cl
ATOM     19  C   UNL     1       1.321   8.050  21.249  0.00  0.00    +0.000 A 
ATOM     20  C   UNL     1       1.965   7.551  20.111  0.00  0.00    +0.000 A 
ENDBRANCH  13  14
ENDBRANCH   9  13
BRANCH  12  21
ATOM     21  C   UNL     1       3.921   2.673  18.682  0.00  0.00    +0.000 C 
BRANCH  21  22
ATOM     22  C   UNL     1       4.082   2.276  20.129  0.00  0.00    +0.000 C 
ATOM     23  O   UNL     1       5.102   1.739  20.551  0.00  0.00    +0.000 OA
BRANCH  22  24
ATOM     24  O   UNL     1       3.074   2.613  20.961  0.00  0.00    +0.000 OA
ATOM     25  H   UNL     1       2.287   2.035  20.923  0.00  0.00    +0.000 HD
ENDBRANCH  22  24
ENDBRANCH  21  22
ENDBRANCH  12  21
TORSDOF 5
ENDMDL
