MODEL 1
REMARK VINA RESULT:      -7.2      0.000      0.000
REMARK  Name = 
REMARK  6 active torsions:
REMARK  status: ('A' for Active; 'I' for Inactive)
REMARK    1  A    between atoms: C_1  and  C_2
REMARK    2  A    between atoms: N_11  and  C_12
REMARK    3  A    between atoms: C_14  and  C_15
REMARK    4  A    between atoms: C_15  and  O_16
REMARK    5  A    between atoms: C_17  and  O_18
REMARK    6  A    between atoms: C_19  and  O_20
REMARK                            x       y       z     vdW  Elec       q    Type
REMARK                         _______ _______ _______ _____ _____    ______ ____
ROOT
ATOM      1  C   UNL     1       6.390   4.694  18.504  0.00  0.00    +0.000 C 
ATOM      2  C   UNL     1       7.129   5.960  18.860  0.00  0.00    +0.000 C 
ATOM      3  C   UNL     1       7.344   6.741  17.787  0.00  0.00    +0.000 C 
ATOM      4  C   UNL     1       6.817   6.100  16.539  0.00  0.00    +0.000 C 
ATOM      5  C   UNL     1       6.595   4.631  16.972  0.00  0.00    +0.000 C 
ENDROOT
BRANCH   1  16
ATOM      6  C   UNL     1       0.550   3.290  20.108  0.00  0.00    +0.000 C 
ATOM      7  C   UNL     1       1.919   3.074  19.540  0.00  0.00    +0.000 A 
ATOM      8  N   UNL     1       2.209   1.819  19.098  0.00  0.00    +0.000 NA
ATOM      9  C   UNL     1       3.434   1.577  18.592  0.00  0.00    +0.000 A 
ATOM     10  N   UNL     1       4.454   2.440  18.456  0.00  0.00    +0.000 NA
ATOM     11  C   UNL     1       4.136   3.666  18.902  0.00  0.00    +0.000 A 
ATOM     12  C   UNL     1       2.914   4.062  19.441  0.00  0.00    +0.000 A 
ATOM     13  C   UNL     1       3.057   5.434  19.756  0.00  0.00    +0.000 A 
ATOM     14 BR   UNL     1       1.765   6.545  20.539  0.00  0.00    +0.000 Br
ATOM     15  C   UNL     1       4.320   5.842  19.405  0.00  0.00    +0.000 A 
ATOM     16  N   UNL     1       4.989   4.746  18.910  0.00  0.00    +0.000 N 
ENDBRANCH   1  16
BRANCH   4  17
ATOM     17  O   UNL     1       7.771   6.212  15.497  0.00  0.00    +0.000 OA
ATOM     18  H   UNL     1       7.272   6.470  14.696  0.00  0.00    +0.000 HD
ENDBRANCH   4  17
BRANCH   5  19
ATOM     19  O   UNL     1       7.773   3.864  16.629  0.00  0.00    +0.000 OA
ATOM     20  H   UNL     1       7.583   3.390  15.796  0.00  0.00    +0.000 HD
ENDBRANCH   5  19
BRANCH   3  21
ATOM     21  C   UNL     1       7.895   8.124  17.753  0.00  0.00    +0.000 C 
BRANCH  21  22
ATOM     22  O   UNL     1       8.735   8.329  18.883  0.00  0.00    +0.000 OA
ATOM     23  H   UNL     1       8.297   7.905  19.639  0.00  0.00    +0.000 HD
ENDBRANCH  21  22
ENDBRANCH   3  21
TORSDOF 5
ENDMDL
MODEL 2
REMARK VINA RESULT:      -7.0      2.300      3.654
REMARK  Name = 
REMARK  6 active torsions:
REMARK  status: ('A' for Active; 'I' for Inactive)
REMARK    1  A    between atoms: C_1  and  C_2
REMARK    2  A    between atoms: N_11  and  C_12
REMARK    3  A    between atoms: C_14  and  C_15
REMARK    4  A    between atoms: C_15  and  O_16
REMARK    5  A    between atoms: C_17  and  O_18
REMARK    6  A    between atoms: C_19  and  O_20
REMARK                            x       y       z     vdW  Elec       q    Type
REMARK                         _______ _______ _______ _____ _____    ______ ____
ROOT
ATOM      1  C   UNL     1       5.491   5.999  17.188  0.00  0.00    +0.000 C 
ATOM      2  C   UNL     1       4.894   5.691  15.838  0.00  0.00    +0.000 C 
ATOM      3  C   UNL     1       5.728   4.974  15.066  0.00  0.00    +0.000 C 
ATOM      4  C   UNL     1       7.030   4.725  15.765  0.00  0.00    +0.000 C 
ATOM      5  C   UNL     1       6.994   5.738  16.934  0.00  0.00    +0.000 C 
ENDROOT
BRANCH   1  16
ATOM      6  C   UNL     1       1.863   3.588  21.624  0.00  0.00    +0.000 C 
ATOM      7  C   UNL     1       2.386   4.620  20.674  0.00  0.00    +0.000 A 
ATOM      8  N   UNL     1       1.715   5.804  20.624  0.00  0.00    +0.000 NA
ATOM      9  C   UNL     1       2.143   6.756  19.773  0.00  0.00    +0.000 A 
ATOM     10  N   UNL     1       3.187   6.699  18.930  0.00  0.00    +0.000 NA
ATOM     11  C   UNL     1       3.826   5.520  19.004  0.00  0.00    +0.000 A 
ATOM     12  C   UNL     1       3.503   4.452  19.837  0.00  0.00    +0.000 A 
ATOM     13  C   UNL     1       4.458   3.444  19.561  0.00  0.00    +0.000 A 
ATOM     14 BR   UNL     1       4.548   1.742  20.343  0.00  0.00    +0.000 Br
ATOM     15  C   UNL     1       5.327   3.905  18.604  0.00  0.00    +0.000 A 
ATOM     16  N   UNL     1       4.917   5.168  18.242  0.00  0.00    +0.000 N 
ENDBRANCH   1  16
BRANCH   4  17
ATOM     17  O   UNL     1       8.110   4.967  14.880  0.00  0.00    +0.000 OA
ATOM     18  H   UNL     1       7.742   5.483  14.134  0.00  0.00    +0.000 HD
ENDBRANCH   4  17
BRANCH   5  19
ATOM     19  O   UNL     1       7.676   6.945  16.521  0.00  0.00    +0.000 OA
ATOM     20  H   UNL     1       8.070   6.774  15.643  0.00  0.00    +0.000 HD
ENDBRANCH   5  19
BRANCH   3  21
ATOM     21  C   UNL     1       5.448   4.350  13.743  0.00  0.00    +0.000 C 
BRANCH  21  22
ATOM     22  O   UNL     1       6.316   3.240  13.547  0.00  0.00    +0.000 OA
ATOM     23  H   UNL     1       6.900   3.200  14.322  0.00  0.00    +0.000 HD
ENDBRANCH  21  22
ENDBRANCH   3  21
TORSDOF 5
ENDMDL
MODEL 3
REMARK VINA RESULT:      -6.6      1.196      1.548
REMARK  Name = 
REMARK  6 active torsions:
REMARK  status: ('A' for Active; 'I' for Inactive)
REMARK    1  A    between atoms: C_1  and  C_2
REMARK    2  A    between atoms: N_11  and  C_12
REMARK    3  A    between atoms: C_14  and  C_15
REMARK    4  A    between atoms: C_15  and  O_16
REMARK    5  A    between atoms: C_17  and  O_18
REMARK    6  A    between atoms: C_19  and  O_20
REMARK                            x       y       z     vdW  Elec       q    Type
REMARK                         _______ _______ _______ _____ _____    ______ ____
ROOT
ATOM      1  C   UNL     1       5.474   4.891  17.257  0.00  0.00    +0.000 C 
ATOM      2  C   UNL     1       6.684   4.667  18.131  0.00  0.00    +0.000 C 
ATOM      3  C   UNL     1       7.376   5.801  18.338  0.00  0.00    +0.000 C 
ATOM      4  C   UNL     1       6.760   6.951  17.601  0.00  0.00    +0.000 C 
ATOM      5  C   UNL     1       5.806   6.252  16.603  0.00  0.00    +0.000 C 
ENDROOT
BRANCH   1  16
ATOM      6  C   UNL     1       0.373   3.276  20.422  0.00  0.00    +0.000 C 
ATOM      7  C   UNL     1       1.545   3.104  19.506  0.00  0.00    +0.000 A 
ATOM      8  N   UNL     1       1.770   1.850  19.026  0.00  0.00    +0.000 NA
ATOM      9  C   UNL     1       2.822   1.648  18.210  0.00  0.00    +0.000 A 
ATOM     10  N   UNL     1       3.720   2.550  17.784  0.00  0.00    +0.000 NA
ATOM     11  C   UNL     1       3.470   3.775  18.276  0.00  0.00    +0.000 A 
ATOM     12  C   UNL     1       2.422   4.132  19.120  0.00  0.00    +0.000 A 
ATOM     13  C   UNL     1       2.573   5.519  19.358  0.00  0.00    +0.000 A 
ATOM     14 BR   UNL     1       1.485   6.596  20.442  0.00  0.00    +0.000 Br
ATOM     15  C   UNL     1       3.670   5.972  18.667  0.00  0.00    +0.000 A 
ATOM     16  N   UNL     1       4.236   4.893  18.030  0.00  0.00    +0.000 N 
ENDBRANCH   1  16
BRANCH   4  17
ATOM     17  O   UNL     1       7.767   7.701  16.943  0.00  0.00    +0.000 OA
ATOM     18  H   UNL     1       8.623   7.336  17.247  0.00  0.00    +0.000 HD
ENDBRANCH   4  17
BRANCH   5  19
ATOM     19  O   UNL     1       6.499   6.078  15.346  0.00  0.00    +0.000 OA
ATOM     20  H   UNL     1       7.397   5.750  15.548  0.00  0.00    +0.000 HD
ENDBRANCH   5  19
BRANCH   3  21
ATOM     21  C   UNL     1       8.527   6.020  19.258  0.00  0.00    +0.000 C 
BRANCH  21  22
ATOM     22  O   UNL     1       8.214   5.498  20.544  0.00  0.00    +0.000 OA
ATOM     23  H   UNL     1       7.281   5.706  20.713  0.00  0.00    +0.000 HD
ENDBRANCH  21  22
ENDBRANCH   3  21
TORSDOF 5
ENDMDL
MODEL 4
REMARK VINA RESULT:      -6.5      2.319      3.462
REMARK  Name = 
REMARK  6 active torsions:
REMARK  status: ('A' for Active; 'I' for Inactive)
REMARK    1  A    between atoms: C_1  and  C_2
REMARK    2  A    between atoms: N_11  and  C_12
REMARK    3  A    between atoms: C_14  and  C_15
REMARK    4  A    between atoms: C_15  and  O_16
REMARK    5  A    between atoms: C_17  and  O_18
REMARK    6  A    between atoms: C_19  and  O_20
REMARK                            x       y       z     vdW  Elec       q    Type
REMARK                         _______ _______ _______ _____ _____    ______ ____
ROOT
ATOM      1  C   UNL     1       4.576   6.076  16.887  0.00  0.00    +0.000 C 
ATOM      2  C   UNL     1       4.966   5.518  15.541  0.00  0.00    +0.000 C 
ATOM      3  C   UNL     1       6.298   5.392  15.411  0.00  0.00    +0.000 C 
ATOM      4  C   UNL     1       7.008   5.884  16.635  0.00  0.00    +0.000 C 
ATOM      5  C   UNL     1       5.911   6.687  17.373  0.00  0.00    +0.000 C 
ENDROOT
BRANCH   1  16
ATOM      6  C   UNL     1       1.377   2.925  21.187  0.00  0.00    +0.000 C 
ATOM      7  C   UNL     1       1.919   4.120  20.466  0.00  0.00    +0.000 A 
ATOM      8  N   UNL     1       1.496   5.341  20.896  0.00  0.00    +0.000 NA
ATOM      9  C   UNL     1       1.948   6.442  20.267  0.00  0.00    +0.000 A 
ATOM     10  N   UNL     1       2.796   6.508  19.228  0.00  0.00    +0.000 NA
ATOM     11  C   UNL     1       3.193   5.288  18.828  0.00  0.00    +0.000 A 
ATOM     12  C   UNL     1       2.816   4.069  19.385  0.00  0.00    +0.000 A 
ATOM     13  C   UNL     1       3.491   3.076  18.634  0.00  0.00    +0.000 A 
ATOM     14 BR   UNL     1       3.379   1.220  18.876  0.00  0.00    +0.000 Br
ATOM     15  C   UNL     1       4.253   3.689  17.670  0.00  0.00    +0.000 A 
ATOM     16  N   UNL     1       4.043   5.044  17.773  0.00  0.00    +0.000 N 
ENDBRANCH   1  16
BRANCH   4  17
ATOM     17  O   UNL     1       8.108   6.697  16.263  0.00  0.00    +0.000 OA
ATOM     18  H   UNL     1       7.774   7.314  15.581  0.00  0.00    +0.000 HD
ENDBRANCH   4  17
BRANCH   5  19
ATOM     19  O   UNL     1       6.022   8.079  16.993  0.00  0.00    +0.000 OA
ATOM     20  H   UNL     1       5.191   8.327  16.541  0.00  0.00    +0.000 HD
ENDBRANCH   5  19
BRANCH   3  21
ATOM     21  C   UNL     1       7.055   4.743  14.305  0.00  0.00    +0.000 C 
BRANCH  21  22
ATOM     22  O   UNL     1       8.008   5.660  13.779  0.00  0.00    +0.000 OA
ATOM     23  H   UNL     1       8.847   5.487  14.236  0.00  0.00    +0.000 HD
ENDBRANCH  21  22
ENDBRANCH   3  21
TORSDOF 5
ENDMDL
MODEL 5
REMARK VINA RESULT:      -6.3      1.460      2.083
REMARK  Name = 
REMARK  6 active torsions:
REMARK  status: ('A' for Active; 'I' for Inactive)
REMARK    1  A    between atoms: C_1  and  C_2
REMARK    2  A    between atoms: N_11  and  C_12
REMARK    3  A    between atoms: C_14  and  C_15
REMARK    4  A    between atoms: C_15  and  O_16
REMARK    5  A    between atoms: C_17  and  O_18
REMARK    6  A    between atoms: C_19  and  O_20
REMARK                            x       y       z     vdW  Elec       q    Type
REMARK                         _______ _______ _______ _____ _____    ______ ____
ROOT
ATOM      1  C   UNL     1       4.444   5.216  16.650  0.00  0.00    +0.000 C 
ATOM      2  C   UNL     1       5.663   4.340  16.804  0.00  0.00    +0.000 C 
ATOM      3  C   UNL     1       6.746   5.041  17.178  0.00  0.00    +0.000 C 
ATOM      4  C   UNL     1       6.431   6.501  17.294  0.00  0.00    +0.000 C 
ATOM      5  C   UNL     1       5.078   6.623  16.553  0.00  0.00    +0.000 C 
ENDROOT
BRANCH   1  16
ATOM      6  C   UNL     1       0.919   2.985  21.259  0.00  0.00    +0.000 C 
ATOM      7  C   UNL     1       1.774   2.950  20.030  0.00  0.00    +0.000 A 
ATOM      8  N   UNL     1       2.073   1.721  19.525  0.00  0.00    +0.000 NA
ATOM      9  C   UNL     1       2.851   1.644  18.428  0.00  0.00    +0.000 A 
ATOM     10  N   UNL     1       3.396   2.654  17.731  0.00  0.00    +0.000 NA
ATOM     11  C   UNL     1       3.082   3.850  18.255  0.00  0.00    +0.000 A 
ATOM     12  C   UNL     1       2.287   4.082  19.375  0.00  0.00    +0.000 A 
ATOM     13  C   UNL     1       2.242   5.489  19.531  0.00  0.00    +0.000 A 
ATOM     14 BR   UNL     1       1.348   6.438  20.879  0.00  0.00    +0.000 Br
ATOM     15  C   UNL     1       2.977   6.071  18.528  0.00  0.00    +0.000 A 
ATOM     16  N   UNL     1       3.516   5.061  17.766  0.00  0.00    +0.000 N 
ENDBRANCH   1  16
BRANCH   4  17
ATOM     17  O   UNL     1       7.450   7.268  16.676  0.00  0.00    +0.000 OA
ATOM     18  H   UNL     1       8.172   7.344  17.332  0.00  0.00    +0.000 HD
ENDBRANCH   4  17
BRANCH   5  19
ATOM     19  O   UNL     1       5.335   6.992  15.178  0.00  0.00    +0.000 OA
ATOM     20  H   UNL     1       6.023   7.685  15.184  0.00  0.00    +0.000 HD
ENDBRANCH   5  19
BRANCH   3  21
ATOM     21  C   UNL     1       8.084   4.522  17.579  0.00  0.00    +0.000 C 
BRANCH  21  22
ATOM     22  O   UNL     1       8.315   4.811  18.952  0.00  0.00    +0.000 OA
ATOM     23  H   UNL     1       9.036   5.460  18.986  0.00  0.00    +0.000 HD
ENDBRANCH  21  22
ENDBRANCH   3  21
TORSDOF 5
ENDMDL
MODEL 6
REMARK VINA RESULT:      -6.3      2.548      3.230
REMARK  Name = 
REMARK  6 active torsions:
REMARK  status: ('A' for Active; 'I' for Inactive)
REMARK    1  A    between atoms: C_1  and  C_2
REMARK    2  A    between atoms: N_11  and  C_12
REMARK    3  A    between atoms: C_14  and  C_15
REMARK    4  A    between atoms: C_15  and  O_16
REMARK    5  A    between atoms: C_17  and  O_18
REMARK    6  A    between atoms: C_19  and  O_20
REMARK                            x       y       z     vdW  Elec       q    Type
REMARK                         _______ _______ _______ _____ _____    ______ ____
ROOT
ATOM      1  C   UNL     1       4.471   5.358  17.372  0.00  0.00    +0.000 C 
ATOM      2  C   UNL     1       5.556   4.980  18.350  0.00  0.00    +0.000 C 
ATOM      3  C   UNL     1       6.737   5.539  18.038  0.00  0.00    +0.000 C 
ATOM      4  C   UNL     1       6.636   6.347  16.780  0.00  0.00    +0.000 C 
ATOM      5  C   UNL     1       5.296   5.870  16.169  0.00  0.00    +0.000 C 
ENDROOT
BRANCH   1  16
ATOM      6  C   UNL     1       0.575   8.560  21.009  0.00  0.00    +0.000 C 
ATOM      7  C   UNL     1       1.365   7.383  20.526  0.00  0.00    +0.000 A 
ATOM      8  N   UNL     1       1.319   6.257  21.291  0.00  0.00    +0.000 NA
ATOM      9  C   UNL     1       2.025   5.180  20.901  0.00  0.00    +0.000 A 
ATOM     10  N   UNL     1       2.804   5.054  19.814  0.00  0.00    +0.000 NA
ATOM     11  C   UNL     1       2.828   6.180  19.083  0.00  0.00    +0.000 A 
ATOM     12  C   UNL     1       2.146   7.363  19.358  0.00  0.00    +0.000 A 
ATOM     13  C   UNL     1       2.478   8.253  18.308  0.00  0.00    +0.000 A 
ATOM     14 BR   UNL     1       1.895  10.025  18.115  0.00  0.00    +0.000 Br
ATOM     15  C   UNL     1       3.320   7.614  17.433  0.00  0.00    +0.000 A 
ATOM     16  N   UNL     1       3.558   6.353  17.928  0.00  0.00    +0.000 N 
ENDBRANCH   1  16
BRANCH   4  17
ATOM     17  O   UNL     1       7.738   6.068  15.934  0.00  0.00    +0.000 OA
ATOM     18  H   UNL     1       7.962   5.126  16.078  0.00  0.00    +0.000 HD
ENDBRANCH   4  17
BRANCH   5  19
ATOM     19  O   UNL     1       5.570   4.807  15.227  0.00  0.00    +0.000 OA
ATOM     20  H   UNL     1       5.964   4.066  15.727  0.00  0.00    +0.000 HD
ENDBRANCH   5  19
BRANCH   3  21
ATOM     21  C   UNL     1       7.996   5.532  18.834  0.00  0.00    +0.000 C 
BRANCH  21  22
ATOM     22  O   UNL     1       7.682   5.506  20.221  0.00  0.00    +0.000 OA
ATOM     23  H   UNL     1       8.292   4.875  20.636  0.00  0.00    +0.000 HD
ENDBRANCH  21  22
ENDBRANCH   3  21
TORSDOF 5
ENDMDL
MODEL 7
REMARK VINA RESULT:      -6.1      4.903      6.589
REMARK  Name = 
REMARK  6 active torsions:
REMARK  status: ('A' for Active; 'I' for Inactive)
REMARK    1  A    between atoms: C_1  and  C_2
REMARK    2  A    between atoms: N_11  and  C_12
REMARK    3  A    between atoms: C_14  and  C_15
REMARK    4  A    between atoms: C_15  and  O_16
REMARK    5  A    between atoms: C_17  and  O_18
REMARK    6  A    between atoms: C_19  and  O_20
REMARK                            x       y       z     vdW  Elec       q    Type
REMARK                         _______ _______ _______ _____ _____    ______ ____
ROOT
ATOM      1  C   UNL     1       1.983   8.627  20.315  0.00  0.00    +0.000 C 
ATOM      2  C   UNL     1       1.528   8.892  21.729  0.00  0.00    +0.000 C 
ATOM      3  C   UNL     1       0.259   9.329  21.779  0.00  0.00    +0.000 C 
ATOM      4  C   UNL     1      -0.321   9.463  20.404  0.00  0.00    +0.000 C 
ATOM      5  C   UNL     1       0.930   9.407  19.494  0.00  0.00    +0.000 C 
ENDROOT
BRANCH   1  16
ATOM      6  C   UNL     1       3.358   3.019  18.010  0.00  0.00    +0.000 C 
ATOM      7  C   UNL     1       3.335   4.514  18.090  0.00  0.00    +0.000 A 
ATOM      8  N   UNL     1       4.057   5.191  17.154  0.00  0.00    +0.000 NA
ATOM      9  C   UNL     1       4.074   6.537  17.197  0.00  0.00    +0.000 A 
ATOM     10  N   UNL     1       3.450   7.341  18.073  0.00  0.00    +0.000 NA
ATOM     11  C   UNL     1       2.749   6.643  18.981  0.00  0.00    +0.000 A 
ATOM     12  C   UNL     1       2.634   5.257  19.055  0.00  0.00    +0.000 A 
ATOM     13  C   UNL     1       1.795   4.998  20.165  0.00  0.00    +0.000 A 
ATOM     14 BR   UNL     1       1.274   3.315  20.808  0.00  0.00    +0.000 Br
ATOM     15  C   UNL     1       1.415   6.193  20.725  0.00  0.00    +0.000 A 
ATOM     16  N   UNL     1       2.027   7.199  20.014  0.00  0.00    +0.000 N 
ENDBRANCH   1  16
BRANCH   4  17
ATOM     17  O   UNL     1      -1.012  10.695  20.286  0.00  0.00    +0.000 OA
ATOM     18  H   UNL     1      -1.652  10.581  19.555  0.00  0.00    +0.000 HD
ENDBRANCH   4  17
BRANCH   5  19
ATOM     19  O   UNL     1       1.368  10.759  19.225  0.00  0.00    +0.000 OA
ATOM     20  H   UNL     1       0.569  11.300  19.069  0.00  0.00    +0.000 HD
ENDBRANCH   5  19
BRANCH   3  21
ATOM     21  C   UNL     1      -0.591   9.550  22.983  0.00  0.00    +0.000 C 
BRANCH  21  22
ATOM     22  O   UNL     1      -0.558  10.926  23.342  0.00  0.00    +0.000 OA
ATOM     23  H   UNL     1       0.092  11.015  24.058  0.00  0.00    +0.000 HD
ENDBRANCH  21  22
ENDBRANCH   3  21
TORSDOF 5
ENDMDL
MODEL 8
REMARK VINA RESULT:      -6.0      4.249      6.363
REMARK  Name = 
REMARK  6 active torsions:
REMARK  status: ('A' for Active; 'I' for Inactive)
REMARK    1  A    between atoms: C_1  and  C_2
REMARK    2  A    between atoms: N_11  and  C_12
REMARK    3  A    between atoms: C_14  and  C_15
REMARK    4  A    between atoms: C_15  and  O_16
REMARK    5  A    between atoms: C_17  and  O_18
REMARK    6  A    between atoms: C_19  and  O_20
REMARK                            x       y       z     vdW  Elec       q    Type
REMARK                         _______ _______ _______ _____ _____    ______ ____
ROOT
ATOM      1  C   UNL     1       2.894   6.239  18.878  0.00  0.00    +0.000 C 
ATOM      2  C   UNL     1       1.983   5.225  18.232  0.00  0.00    +0.000 C 
ATOM      3  C   UNL     1       1.947   4.068  18.915  0.00  0.00    +0.000 C 
ATOM      4  C   UNL     1       2.859   4.114  20.102  0.00  0.00    +0.000 C 
ATOM      5  C   UNL     1       3.747   5.347  19.809  0.00  0.00    +0.000 C 
ENDROOT
BRANCH   1  16
ATOM      6  C   UNL     1      -0.149  11.434  20.429  0.00  0.00    +0.000 C 
ATOM      7  C   UNL     1       0.748  10.544  19.626  0.00  0.00    +0.000 A 
ATOM      8  N   UNL     1       1.245  11.057  18.467  0.00  0.00    +0.000 NA
ATOM      9  C   UNL     1       2.044  10.285  17.706  0.00  0.00    +0.000 A 
ATOM     10  N   UNL     1       2.439   9.023  17.943  0.00  0.00    +0.000 NA
ATOM     11  C   UNL     1       1.931   8.547  19.091  0.00  0.00    +0.000 A 
ATOM     12  C   UNL     1       1.101   9.229  19.978  0.00  0.00    +0.000 A 
ATOM     13  C   UNL     1       0.837   8.325  21.034  0.00  0.00    +0.000 A 
ATOM     14 BR   UNL     1      -0.244   8.638  22.534  0.00  0.00    +0.000 Br
ATOM     15  C   UNL     1       1.500   7.148  20.788  0.00  0.00    +0.000 A 
ATOM     16  N   UNL     1       2.144   7.278  19.580  0.00  0.00    +0.000 N 
ENDBRANCH   1  16
BRANCH   4  17
ATOM     17  O   UNL     1       3.615   2.917  20.180  0.00  0.00    +0.000 OA
ATOM     18  H   UNL     1       2.966   2.187  20.236  0.00  0.00    +0.000 HD
ENDBRANCH   4  17
BRANCH   5  19
ATOM     19  O   UNL     1       4.955   4.901  19.149  0.00  0.00    +0.000 OA
ATOM     20  H   UNL     1       4.723   4.123  18.606  0.00  0.00    +0.000 HD
ENDBRANCH   5  19
BRANCH   3  21
ATOM     21  C   UNL     1       1.060   2.894  18.687  0.00  0.00    +0.000 C 
BRANCH  21  22
ATOM     22  O   UNL     1       1.836   1.792  18.229  0.00  0.00    +0.000 OA
ATOM     23  H   UNL     1       2.271   2.076  17.409  0.00  0.00    +0.000 HD
ENDBRANCH  21  22
ENDBRANCH   3  21
TORSDOF 5
ENDMDL
MODEL 9
REMARK VINA RESULT:      -6.0      3.427      6.132
REMARK  Name = 
REMARK  6 active torsions:
REMARK  status: ('A' for Active; 'I' for Inactive)
REMARK    1  A    between atoms: C_1  and  C_2
REMARK    2  A    between atoms: N_11  and  C_12
REMARK    3  A    between atoms: C_14  and  C_15
REMARK    4  A    between atoms: C_15  and  O_16
REMARK    5  A    between atoms: C_17  and  O_18
REMARK    6  A    between atoms: C_19  and  O_20
REMARK                            x       y       z     vdW  Elec       q    Type
REMARK                         _______ _______ _______ _____ _____    ______ ____
ROOT
ATOM      1  C   UNL     1       4.692   2.845  18.895  0.00  0.00    +0.000 C 
ATOM      2  C   UNL     1       3.338   2.368  18.430  0.00  0.00    +0.000 C 
ATOM      3  C   UNL     1       2.381   2.584  19.348  0.00  0.00    +0.000 C 
ATOM      4  C   UNL     1       2.953   3.203  20.587  0.00  0.00    +0.000 C 
ATOM      5  C   UNL     1       4.474   2.970  20.420  0.00  0.00    +0.000 C 
ENDROOT
BRANCH   1  16
ATOM      6  C   UNL     1       7.654   8.018  17.128  0.00  0.00    +0.000 C 
ATOM      7  C   UNL     1       7.329   6.834  17.986  0.00  0.00    +0.000 A 
ATOM      8  N   UNL     1       8.130   6.620  19.066  0.00  0.00    +0.000 NA
ATOM      9  C   UNL     1       7.881   5.559  19.857  0.00  0.00    +0.000 A 
ATOM     10  N   UNL     1       6.910   4.641  19.724  0.00  0.00    +0.000 NA
ATOM     11  C   UNL     1       6.140   4.881  18.650  0.00  0.00    +0.000 A 
ATOM     12  C   UNL     1       6.273   5.937  17.752  0.00  0.00    +0.000 A 
ATOM     13  C   UNL     1       5.237   5.769  16.802  0.00  0.00    +0.000 A 
ATOM     14 BR   UNL     1       4.894   6.858  15.314  0.00  0.00    +0.000 Br
ATOM     15  C   UNL     1       4.505   4.656  17.133  0.00  0.00    +0.000 A 
ATOM     16  N   UNL     1       5.081   4.096  18.249  0.00  0.00    +0.000 N 
ENDBRANCH   1  16
BRANCH   4  17
ATOM     17  O   UNL     1       2.436   2.554  21.737  0.00  0.00    +0.000 OA
ATOM     18  H   UNL     1       2.555   3.178  22.481  0.00  0.00    +0.000 HD
ENDBRANCH   4  17
BRANCH   5  19
ATOM     19  O   UNL     1       4.833   1.748  21.106  0.00  0.00    +0.000 OA
ATOM     20  H   UNL     1       4.276   1.033  20.742  0.00  0.00    +0.000 HD
ENDBRANCH   5  19
BRANCH   3  21
ATOM     21  C   UNL     1       0.911   2.398  19.205  0.00  0.00    +0.000 C 
BRANCH  21  22
ATOM     22  O   UNL     1       0.234   3.185  20.178  0.00  0.00    +0.000 OA
ATOM     23  H   UNL     1      -0.294   3.840  19.693  0.00  0.00    +0.000 HD
ENDBRANCH  21  22
ENDBRANCH   3  21
TORSDOF 5
ENDMDL
