MODEL 1
REMARK VINA RESULT:      -6.2      0.000      0.000
REMARK  Name = 
REMARK  17 active torsions:
REMARK  status: ('A' for Active; 'I' for Inactive)
REMARK    1  A    between atoms: C_1  and  C_2
REMARK    2  A    between atoms: C_2  and  C_3
REMARK    3  A    between atoms: C_3  and  C_4
REMARK    4  A    between atoms: C_4  and  C_5
REMARK    5  A    between atoms: C_5  and  C_6
REMARK    6  A    between atoms: C_6  and  C_7
REMARK    7  A    between atoms: C_7  and  C_8
REMARK    8  A    between atoms: C_8  and  C_9
REMARK    9  A    between atoms: C_9  and  C_10
REMARK   10  A    between atoms: C_10  and  C_11
REMARK   11  A    between atoms: C_11  and  C_12
REMARK   12  A    between atoms: C_12  and  C_13
REMARK   13  A    between atoms: C_13  and  C_14
REMARK   14  A    between atoms: C_14  and  C_15
REMARK   15  A    between atoms: C_15  and  C_16
REMARK   16  A    between atoms: C_18  and  O_19
REMARK   17  A    between atoms: C_25  and  O_26
REMARK                            x       y       z     vdW  Elec       q    Type
REMARK                         _______ _______ _______ _____ _____    ______ ____
ROOT
ATOM      1  C   UNL     1       6.970   6.071  16.731  0.00  0.00    +0.000 C 
ENDROOT
BRANCH   1   2
ATOM      2  C   UNL     1       5.474   5.725  16.640  0.00  0.00    +0.000 C 
ATOM      3  C   UNL     1       4.708   6.242  17.889  0.00  0.00    +0.000 C 
ATOM      4  C   UNL     1       3.888   5.047  18.348  0.00  0.00    +0.000 C 
ATOM      5  C   UNL     1       3.604   4.745  19.825  0.00  0.00    +0.000 C 
ATOM      6  C   UNL     1       3.308   3.244  20.044  0.00  0.00    +0.000 C 
ATOM      7  O   UNL     1       3.062   2.796  21.159  0.00  0.00    +0.000 OA
ATOM      8  C   UNL     1       3.238   2.326  18.863  0.00  0.00    +0.000 C 
ATOM      9  C   UNL     1       3.893   2.667  17.743  0.00  0.00    +0.000 C 
ATOM     10  C   UNL     1       4.735   3.890  17.768  0.00  0.00    +0.000 C 
ATOM     11  O   UNL     1       5.255   4.304  16.524  0.00  0.00    +0.000 OA
BRANCH  10  12
ATOM     12  O   UNL     1       5.863   3.643  18.605  0.00  0.00    +0.000 OA
ATOM     13  H   UNL     1       5.494   3.514  19.495  0.00  0.00    +0.000 HD
ENDBRANCH  10  12
BRANCH   4  14
ATOM     14  O   UNL     1       2.599   5.223  17.726  0.00  0.00    +0.000 OA
ATOM     15  H   UNL     1       2.719   5.460  16.778  0.00  0.00    +0.000 HD
ENDBRANCH   4  14
ENDBRANCH   1   2
BRANCH   1  16
ATOM     16  C   UNL     1       7.313   6.948  17.932  0.00  0.00    +0.000 C 
BRANCH  16  17
ATOM     17  C   UNL     1       7.857   8.307  17.492  0.00  0.00    +0.000 C 
BRANCH  17  18
ATOM     18  C   UNL     1       8.548   8.988  18.666  0.00  0.00    +0.000 C 
BRANCH  18  19
ATOM     19  C   UNL     1       9.333  10.203  18.204  0.00  0.00    +0.000 C 
BRANCH  19  20
ATOM     20  C   UNL     1       8.485  11.457  18.354  0.00  0.00    +0.000 C 
BRANCH  20  21
ATOM     21  C   UNL     1       9.079  12.588  17.533  0.00  0.00    +0.000 C 
BRANCH  21  22
ATOM     22  C   UNL     1      10.595  12.481  17.508  0.00  0.00    +0.000 C 
BRANCH  22  23
ATOM     23  C   UNL     1      11.206  13.846  17.299  0.00  0.00    +0.000 C 
BRANCH  23  24
ATOM     24  C   UNL     1      10.858  14.776  18.452  0.00  0.00    +0.000 C 
BRANCH  24  25
ATOM     25  C   UNL     1      11.545  14.331  19.734  0.00  0.00    +0.000 C 
BRANCH  25  26
ATOM     26  C   UNL     1      10.743  14.768  20.952  0.00  0.00    +0.000 C 
BRANCH  26  27
ATOM     27  C   UNL     1       9.497  13.906  21.101  0.00  0.00    +0.000 C 
BRANCH  27  29
ATOM     28  C   UNL     1       8.661  11.717  21.991  0.00  0.00    +0.000 C 
ATOM     29  C   UNL     1       9.866  12.469  21.457  0.00  0.00    +0.000 C 
ENDBRANCH  27  29
ENDBRANCH  26  27
ENDBRANCH  25  26
ENDBRANCH  24  25
ENDBRANCH  23  24
ENDBRANCH  22  23
ENDBRANCH  21  22
ENDBRANCH  20  21
ENDBRANCH  19  20
ENDBRANCH  18  19
ENDBRANCH  17  18
ENDBRANCH  16  17
ENDBRANCH   1  16
TORSDOF 16
ENDMDL
MODEL 2
REMARK VINA RESULT:      -6.2      1.324      1.859
REMARK  Name = 
REMARK  17 active torsions:
REMARK  status: ('A' for Active; 'I' for Inactive)
REMARK    1  A    between atoms: C_1  and  C_2
REMARK    2  A    between atoms: C_2  and  C_3
REMARK    3  A    between atoms: C_3  and  C_4
REMARK    4  A    between atoms: C_4  and  C_5
REMARK    5  A    between atoms: C_5  and  C_6
REMARK    6  A    between atoms: C_6  and  C_7
REMARK    7  A    between atoms: C_7  and  C_8
REMARK    8  A    between atoms: C_8  and  C_9
REMARK    9  A    between atoms: C_9  and  C_10
REMARK   10  A    between atoms: C_10  and  C_11
REMARK   11  A    between atoms: C_11  and  C_12
REMARK   12  A    between atoms: C_12  and  C_13
REMARK   13  A    between atoms: C_13  and  C_14
REMARK   14  A    between atoms: C_14  and  C_15
REMARK   15  A    between atoms: C_15  and  C_16
REMARK   16  A    between atoms: C_18  and  O_19
REMARK   17  A    between atoms: C_25  and  O_26
REMARK                            x       y       z     vdW  Elec       q    Type
REMARK                         _______ _______ _______ _____ _____    ______ ____
ROOT
ATOM      1  C   UNL     1       6.264   6.580  17.433  0.00  0.00    +0.000 C 
ENDROOT
BRANCH   1   2
ATOM      2  C   UNL     1       6.108   5.050  17.421  0.00  0.00    +0.000 C 
ATOM      3  C   UNL     1       4.849   4.627  16.614  0.00  0.00    +0.000 C 
ATOM      4  C   UNL     1       4.128   3.648  17.527  0.00  0.00    +0.000 C 
ATOM      5  C   UNL     1       2.599   3.546  17.604  0.00  0.00    +0.000 C 
ATOM      6  C   UNL     1       2.143   2.965  18.962  0.00  0.00    +0.000 C 
ATOM      7  O   UNL     1       0.955   2.809  19.224  0.00  0.00    +0.000 OA
ATOM      8  C   UNL     1       3.171   2.506  19.950  0.00  0.00    +0.000 C 
ATOM      9  C   UNL     1       4.403   3.031  19.888  0.00  0.00    +0.000 C 
ATOM     10  C   UNL     1       4.655   4.115  18.904  0.00  0.00    +0.000 C 
ATOM     11  O   UNL     1       6.002   4.507  18.753  0.00  0.00    +0.000 OA
BRANCH  10  12
ATOM     12  O   UNL     1       3.950   5.281  19.328  0.00  0.00    +0.000 OA
ATOM     13  H   UNL     1       3.340   5.486  18.598  0.00  0.00    +0.000 HD
ENDBRANCH  10  12
BRANCH   4  14
ATOM     14  O   UNL     1       4.591   2.347  17.113  0.00  0.00    +0.000 OA
ATOM     15  H   UNL     1       5.531   2.406  16.827  0.00  0.00    +0.000 HD
ENDBRANCH   4  14
ENDBRANCH   1   2
BRANCH   1  16
ATOM     16  C   UNL     1       7.644   7.040  17.895  0.00  0.00    +0.000 C 
BRANCH  16  17
ATOM     17  C   UNL     1       7.882   8.511  17.556  0.00  0.00    +0.000 C 
BRANCH  17  18
ATOM     18  C   UNL     1       8.715   9.163  18.652  0.00  0.00    +0.000 C 
BRANCH  18  19
ATOM     19  C   UNL     1       8.924  10.640  18.371  0.00  0.00    +0.000 C 
BRANCH  19  20
ATOM     20  C   UNL     1      10.272  11.088  18.916  0.00  0.00    +0.000 C 
BRANCH  20  21
ATOM     21  C   UNL     1      11.070  11.778  17.825  0.00  0.00    +0.000 C 
BRANCH  21  22
ATOM     22  C   UNL     1      12.098  12.717  18.436  0.00  0.00    +0.000 C 
BRANCH  22  23
ATOM     23  C   UNL     1      11.613  13.209  19.779  0.00  0.00    +0.000 C 
BRANCH  23  24
ATOM     24  C   UNL     1      11.675  14.727  19.853  0.00  0.00    +0.000 C 
BRANCH  24  25
ATOM     25  C   UNL     1      10.417  15.291  20.495  0.00  0.00    +0.000 C 
BRANCH  25  26
ATOM     26  C   UNL     1       9.230  14.367  20.255  0.00  0.00    +0.000 C 
BRANCH  26  27
ATOM     27  C   UNL     1       8.268  14.427  21.432  0.00  0.00    +0.000 C 
BRANCH  27  29
ATOM     28  C   UNL     1       8.812  12.067  22.081  0.00  0.00    +0.000 C 
ATOM     29  C   UNL     1       8.725  13.505  22.559  0.00  0.00    +0.000 C 
ENDBRANCH  27  29
ENDBRANCH  26  27
ENDBRANCH  25  26
ENDBRANCH  24  25
ENDBRANCH  23  24
ENDBRANCH  22  23
ENDBRANCH  21  22
ENDBRANCH  20  21
ENDBRANCH  19  20
ENDBRANCH  18  19
ENDBRANCH  17  18
ENDBRANCH  16  17
ENDBRANCH   1  16
TORSDOF 16
ENDMDL
MODEL 3
REMARK VINA RESULT:      -6.2      6.113      8.276
REMARK  Name = 
REMARK  17 active torsions:
REMARK  status: ('A' for Active; 'I' for Inactive)
REMARK    1  A    between atoms: C_1  and  C_2
REMARK    2  A    between atoms: C_2  and  C_3
REMARK    3  A    between atoms: C_3  and  C_4
REMARK    4  A    between atoms: C_4  and  C_5
REMARK    5  A    between atoms: C_5  and  C_6
REMARK    6  A    between atoms: C_6  and  C_7
REMARK    7  A    between atoms: C_7  and  C_8
REMARK    8  A    between atoms: C_8  and  C_9
REMARK    9  A    between atoms: C_9  and  C_10
REMARK   10  A    between atoms: C_10  and  C_11
REMARK   11  A    between atoms: C_11  and  C_12
REMARK   12  A    between atoms: C_12  and  C_13
REMARK   13  A    between atoms: C_13  and  C_14
REMARK   14  A    between atoms: C_14  and  C_15
REMARK   15  A    between atoms: C_15  and  C_16
REMARK   16  A    between atoms: C_18  and  O_19
REMARK   17  A    between atoms: C_25  and  O_26
REMARK                            x       y       z     vdW  Elec       q    Type
REMARK                         _______ _______ _______ _____ _____    ______ ____
ROOT
ATOM      1  C   UNL     1       3.471   7.034  17.760  0.00  0.00    +0.000 C 
ENDROOT
BRANCH   1   2
ATOM      2  C   UNL     1       3.311   5.511  17.615  0.00  0.00    +0.000 C 
ATOM      3  C   UNL     1       1.863   5.069  17.963  0.00  0.00    +0.000 C 
ATOM      4  C   UNL     1       2.045   3.908  18.927  0.00  0.00    +0.000 C 
ATOM      5  C   UNL     1       1.093   3.637  20.099  0.00  0.00    +0.000 C 
ATOM      6  C   UNL     1       1.796   2.837  21.220  0.00  0.00    +0.000 C 
ATOM      7  O   UNL     1       1.207   2.525  22.249  0.00  0.00    +0.000 OA
ATOM      8  C   UNL     1       3.202   2.362  21.016  0.00  0.00    +0.000 C 
ATOM      9  C   UNL     1       3.983   3.018  20.145  0.00  0.00    +0.000 C 
ATOM     10  C   UNL     1       3.442   4.242  19.501  0.00  0.00    +0.000 C 
ATOM     11  O   UNL     1       4.227   4.790  18.465  0.00  0.00    +0.000 OA
BRANCH  10  12
ATOM     12  O   UNL     1       3.332   5.261  20.493  0.00  0.00    +0.000 OA
ATOM     13  H   UNL     1       2.378   5.355  20.653  0.00  0.00    +0.000 HD
ENDBRANCH  10  12
BRANCH   4  14
ATOM     14  O   UNL     1       1.999   2.729  18.099  0.00  0.00    +0.000 OA
ATOM     15  H   UNL     1       2.808   2.685  17.540  0.00  0.00    +0.000 HD
ENDBRANCH   4  14
ENDBRANCH   1   2
BRANCH   1  16
ATOM     16  C   UNL     1       2.300   7.696  18.482  0.00  0.00    +0.000 C 
BRANCH  16  17
ATOM     17  C   UNL     1       1.827   8.948  17.745  0.00  0.00    +0.000 C 
BRANCH  17  18
ATOM     18  C   UNL     1       1.574  10.069  18.746  0.00  0.00    +0.000 C 
BRANCH  18  19
ATOM     19  C   UNL     1       0.775   9.566  19.935  0.00  0.00    +0.000 C 
BRANCH  19  20
ATOM     20  C   UNL     1       0.811  10.592  21.057  0.00  0.00    +0.000 C 
BRANCH  20  21
ATOM     21  C   UNL     1       0.959  11.988  20.479  0.00  0.00    +0.000 C 
BRANCH  21  22
ATOM     22  C   UNL     1      -0.330  12.774  20.660  0.00  0.00    +0.000 C 
BRANCH  22  23
ATOM     23  C   UNL     1      -0.611  13.597  19.426  0.00  0.00    +0.000 C 
BRANCH  23  24
ATOM     24  C   UNL     1      -0.863  12.701  18.224  0.00  0.00    +0.000 C 
BRANCH  24  25
ATOM     25  C   UNL     1      -2.037  11.767  18.479  0.00  0.00    +0.000 C 
BRANCH  25  26
ATOM     26  C   UNL     1      -1.904  10.498  17.648  0.00  0.00    +0.000 C 
BRANCH  26  27
ATOM     27  C   UNL     1      -3.268  10.058  17.136  0.00  0.00    +0.000 C 
BRANCH  27  29
ATOM     28  C   UNL     1      -5.471  11.069  17.772  0.00  0.00    +0.000 C 
ATOM     29  C   UNL     1      -4.200  11.253  16.964  0.00  0.00    +0.000 C 
ENDBRANCH  27  29
ENDBRANCH  26  27
ENDBRANCH  25  26
ENDBRANCH  24  25
ENDBRANCH  23  24
ENDBRANCH  22  23
ENDBRANCH  21  22
ENDBRANCH  20  21
ENDBRANCH  19  20
ENDBRANCH  18  19
ENDBRANCH  17  18
ENDBRANCH  16  17
ENDBRANCH   1  16
TORSDOF 16
ENDMDL
MODEL 4
REMARK VINA RESULT:      -6.1      7.123     10.562
REMARK  Name = 
REMARK  17 active torsions:
REMARK  status: ('A' for Active; 'I' for Inactive)
REMARK    1  A    between atoms: C_1  and  C_2
REMARK    2  A    between atoms: C_2  and  C_3
REMARK    3  A    between atoms: C_3  and  C_4
REMARK    4  A    between atoms: C_4  and  C_5
REMARK    5  A    between atoms: C_5  and  C_6
REMARK    6  A    between atoms: C_6  and  C_7
REMARK    7  A    between atoms: C_7  and  C_8
REMARK    8  A    between atoms: C_8  and  C_9
REMARK    9  A    between atoms: C_9  and  C_10
REMARK   10  A    between atoms: C_10  and  C_11
REMARK   11  A    between atoms: C_11  and  C_12
REMARK   12  A    between atoms: C_12  and  C_13
REMARK   13  A    between atoms: C_13  and  C_14
REMARK   14  A    between atoms: C_14  and  C_15
REMARK   15  A    between atoms: C_15  and  C_16
REMARK   16  A    between atoms: C_18  and  O_19
REMARK   17  A    between atoms: C_25  and  O_26
REMARK                            x       y       z     vdW  Elec       q    Type
REMARK                         _______ _______ _______ _____ _____    ______ ____
ROOT
ATOM      1  C   UNL     1      -0.226   9.132  19.842  0.00  0.00    +0.000 C 
ENDROOT
BRANCH   1   2
ATOM      2  C   UNL     1      -0.293  10.209  18.746  0.00  0.00    +0.000 C 
ATOM      3  C   UNL     1      -1.214  11.383  19.178  0.00  0.00    +0.000 C 
ATOM      4  C   UNL     1      -2.133  11.598  17.987  0.00  0.00    +0.000 C 
ATOM      5  C   UNL     1      -3.603  12.017  18.128  0.00  0.00    +0.000 C 
ATOM      6  C   UNL     1      -4.430  11.587  16.896  0.00  0.00    +0.000 C 
ATOM      7  O   UNL     1      -5.632  11.823  16.818  0.00  0.00    +0.000 OA
ATOM      8  C   UNL     1      -3.741  10.939  15.735  0.00  0.00    +0.000 C 
ATOM      9  C   UNL     1      -2.579  10.304  15.947  0.00  0.00    +0.000 C 
ATOM     10  C   UNL     1      -2.088  10.192  17.344  0.00  0.00    +0.000 C 
ATOM     11  O   UNL     1      -0.783   9.679  17.498  0.00  0.00    +0.000 OA
BRANCH  10  12
ATOM     12  O   UNL     1      -2.947   9.302  18.054  0.00  0.00    +0.000 OA
ATOM     13  H   UNL     1      -3.274   9.817  18.812  0.00  0.00    +0.000 HD
ENDBRANCH  10  12
BRANCH   4  14
ATOM     14  O   UNL     1      -1.500  12.636  17.213  0.00  0.00    +0.000 OA
ATOM     15  H   UNL     1      -1.176  12.263  16.362  0.00  0.00    +0.000 HD
ENDBRANCH   4  14
ENDBRANCH   1   2
BRANCH   1  16
ATOM     16  C   UNL     1       0.512   9.594  21.096  0.00  0.00    +0.000 C 
BRANCH  16  17
ATOM     17  C   UNL     1       1.489   8.529  21.592  0.00  0.00    +0.000 C 
BRANCH  17  18
ATOM     18  C   UNL     1       1.321   7.256  20.772  0.00  0.00    +0.000 C 
BRANCH  18  19
ATOM     19  C   UNL     1       2.622   6.875  20.087  0.00  0.00    +0.000 C 
BRANCH  19  20
ATOM     20  C   UNL     1       2.553   7.225  18.608  0.00  0.00    +0.000 C 
BRANCH  20  21
ATOM     21  C   UNL     1       2.866   5.999  17.769  0.00  0.00    +0.000 C 
BRANCH  21  22
ATOM     22  C   UNL     1       4.059   5.255  18.346  0.00  0.00    +0.000 C 
BRANCH  22  23
ATOM     23  C   UNL     1       4.214   3.918  17.663  0.00  0.00    +0.000 C 
BRANCH  23  24
ATOM     24  C   UNL     1       2.860   3.363  17.247  0.00  0.00    +0.000 C 
BRANCH  24  25
ATOM     25  C   UNL     1       2.296   2.446  18.321  0.00  0.00    +0.000 C 
BRANCH  25  26
ATOM     26  C   UNL     1       0.865   2.837  18.664  0.00  0.00    +0.000 C 
BRANCH  26  27
ATOM     27  C   UNL     1       0.835   3.665  19.940  0.00  0.00    +0.000 C 
BRANCH  27  29
ATOM     28  C   UNL     1       1.680   2.507  21.996  0.00  0.00    +0.000 C 
ATOM     29  C   UNL     1       2.055   3.375  20.809  0.00  0.00    +0.000 C 
ENDBRANCH  27  29
ENDBRANCH  26  27
ENDBRANCH  25  26
ENDBRANCH  24  25
ENDBRANCH  23  24
ENDBRANCH  22  23
ENDBRANCH  21  22
ENDBRANCH  20  21
ENDBRANCH  19  20
ENDBRANCH  18  19
ENDBRANCH  17  18
ENDBRANCH  16  17
ENDBRANCH   1  16
TORSDOF 16
ENDMDL
MODEL 5
REMARK VINA RESULT:      -6.1      5.081     11.262
REMARK  Name = 
REMARK  17 active torsions:
REMARK  status: ('A' for Active; 'I' for Inactive)
REMARK    1  A    between atoms: C_1  and  C_2
REMARK    2  A    between atoms: C_2  and  C_3
REMARK    3  A    between atoms: C_3  and  C_4
REMARK    4  A    between atoms: C_4  and  C_5
REMARK    5  A    between atoms: C_5  and  C_6
REMARK    6  A    between atoms: C_6  and  C_7
REMARK    7  A    between atoms: C_7  and  C_8
REMARK    8  A    between atoms: C_8  and  C_9
REMARK    9  A    between atoms: C_9  and  C_10
REMARK   10  A    between atoms: C_10  and  C_11
REMARK   11  A    between atoms: C_11  and  C_12
REMARK   12  A    between atoms: C_12  and  C_13
REMARK   13  A    between atoms: C_13  and  C_14
REMARK   14  A    between atoms: C_14  and  C_15
REMARK   15  A    between atoms: C_15  and  C_16
REMARK   16  A    between atoms: C_18  and  O_19
REMARK   17  A    between atoms: C_25  and  O_26
REMARK                            x       y       z     vdW  Elec       q    Type
REMARK                         _______ _______ _______ _____ _____    ______ ____
ROOT
ATOM      1  C   UNL     1      10.333  11.565  17.979  0.00  0.00    +0.000 C 
ENDROOT
BRANCH   1   2
ATOM      2  C   UNL     1      10.177  12.831  17.120  0.00  0.00    +0.000 C 
ATOM      3  C   UNL     1      11.549  13.526  16.901  0.00  0.00    +0.000 C 
ATOM      4  C   UNL     1      11.291  14.985  17.238  0.00  0.00    +0.000 C 
ATOM      5  C   UNL     1      12.332  15.885  17.916  0.00  0.00    +0.000 C 
ATOM      6  C   UNL     1      11.659  17.057  18.666  0.00  0.00    +0.000 C 
ATOM      7  O   UNL     1      12.320  17.887  19.280  0.00  0.00    +0.000 OA
ATOM      8  C   UNL     1      10.174  17.232  18.579  0.00  0.00    +0.000 C 
ATOM      9  C   UNL     1       9.415  16.162  18.299  0.00  0.00    +0.000 C 
ATOM     10  C   UNL     1      10.080  14.839  18.190  0.00  0.00    +0.000 C 
ATOM     11  O   UNL     1       9.273  13.782  17.720  0.00  0.00    +0.000 OA
BRANCH  10  12
ATOM     12  O   UNL     1      10.524  14.449  19.488  0.00  0.00    +0.000 OA
ATOM     13  H   UNL     1      11.326  13.921  19.333  0.00  0.00    +0.000 HD
ENDBRANCH  10  12
BRANCH   4  14
ATOM     14  O   UNL     1      10.992  15.609  15.973  0.00  0.00    +0.000 OA
ATOM     15  H   UNL     1      10.038  15.491  15.763  0.00  0.00    +0.000 HD
ENDBRANCH   4  14
ENDBRANCH   1   2
BRANCH   1  16
ATOM     16  C   UNL     1       9.019  10.823  18.203  0.00  0.00    +0.000 C 
BRANCH  16  17
ATOM     17  C   UNL     1       9.155   9.765  19.297  0.00  0.00    +0.000 C 
BRANCH  17  18
ATOM     18  C   UNL     1       8.701   8.413  18.764  0.00  0.00    +0.000 C 
BRANCH  18  19
ATOM     19  C   UNL     1       7.688   8.581  17.645  0.00  0.00    +0.000 C 
BRANCH  19  20
ATOM     20  C   UNL     1       7.249   7.218  17.132  0.00  0.00    +0.000 C 
BRANCH  20  21
ATOM     21  C   UNL     1       7.482   6.162  18.197  0.00  0.00    +0.000 C 
BRANCH  21  22
ATOM     22  C   UNL     1       7.519   4.778  17.569  0.00  0.00    +0.000 C 
BRANCH  22  23
ATOM     23  C   UNL     1       6.866   4.811  16.208  0.00  0.00    +0.000 C 
BRANCH  23  24
ATOM     24  C   UNL     1       5.679   3.861  16.156  0.00  0.00    +0.000 C 
BRANCH  24  25
ATOM     25  C   UNL     1       4.735   4.107  17.323  0.00  0.00    +0.000 C 
BRANCH  25  26
ATOM     26  C   UNL     1       3.994   2.829  17.692  0.00  0.00    +0.000 C 
BRANCH  26  27
ATOM     27  C   UNL     1       2.507   2.979  17.403  0.00  0.00    +0.000 C 
BRANCH  27  29
ATOM     28  C   UNL     1       1.520   4.313  19.281  0.00  0.00    +0.000 C 
ATOM     29  C   UNL     1       2.000   4.349  17.842  0.00  0.00    +0.000 C 
ENDBRANCH  27  29
ENDBRANCH  26  27
ENDBRANCH  25  26
ENDBRANCH  24  25
ENDBRANCH  23  24
ENDBRANCH  22  23
ENDBRANCH  21  22
ENDBRANCH  20  21
ENDBRANCH  19  20
ENDBRANCH  18  19
ENDBRANCH  17  18
ENDBRANCH  16  17
ENDBRANCH   1  16
TORSDOF 16
ENDMDL
MODEL 6
REMARK VINA RESULT:      -6.0      4.490     10.099
REMARK  Name = 
REMARK  17 active torsions:
REMARK  status: ('A' for Active; 'I' for Inactive)
REMARK    1  A    between atoms: C_1  and  C_2
REMARK    2  A    between atoms: C_2  and  C_3
REMARK    3  A    between atoms: C_3  and  C_4
REMARK    4  A    between atoms: C_4  and  C_5
REMARK    5  A    between atoms: C_5  and  C_6
REMARK    6  A    between atoms: C_6  and  C_7
REMARK    7  A    between atoms: C_7  and  C_8
REMARK    8  A    between atoms: C_8  and  C_9
REMARK    9  A    between atoms: C_9  and  C_10
REMARK   10  A    between atoms: C_10  and  C_11
REMARK   11  A    between atoms: C_11  and  C_12
REMARK   12  A    between atoms: C_12  and  C_13
REMARK   13  A    between atoms: C_13  and  C_14
REMARK   14  A    between atoms: C_14  and  C_15
REMARK   15  A    between atoms: C_15  and  C_16
REMARK   16  A    between atoms: C_18  and  O_19
REMARK   17  A    between atoms: C_25  and  O_26
REMARK                            x       y       z     vdW  Elec       q    Type
REMARK                         _______ _______ _______ _____ _____    ______ ____
ROOT
ATOM      1  C   UNL     1       8.436  10.122  18.500  0.00  0.00    +0.000 C 
ENDROOT
BRANCH   1   2
ATOM      2  C   UNL     1       9.793  10.801  18.748  0.00  0.00    +0.000 C 
ATOM      3  C   UNL     1       9.653  11.967  19.765  0.00  0.00    +0.000 C 
ATOM      4  C   UNL     1      10.368  13.133  19.102  0.00  0.00    +0.000 C 
ATOM      5  C   UNL     1       9.904  14.589  19.244  0.00  0.00    +0.000 C 
ATOM      6  C   UNL     1      10.385  15.450  18.053  0.00  0.00    +0.000 C 
ATOM      7  O   UNL     1      10.112  16.643  17.975  0.00  0.00    +0.000 OA
ATOM      8  C   UNL     1      11.271  14.838  17.012  0.00  0.00    +0.000 C 
ATOM      9  C   UNL     1      11.235  13.509  16.836  0.00  0.00    +0.000 C 
ATOM     10  C   UNL     1      10.244  12.725  17.616  0.00  0.00    +0.000 C 
ATOM     11  O   UNL     1      10.366  11.322  17.531  0.00  0.00    +0.000 OA
BRANCH  10  12
ATOM     12  O   UNL     1       8.940  13.037  17.130  0.00  0.00    +0.000 OA
ATOM     13  H   UNL     1       8.336  12.786  17.850  0.00  0.00    +0.000 HD
ENDBRANCH  10  12
BRANCH   4  14
ATOM     14  O   UNL     1      11.709  13.093  19.630  0.00  0.00    +0.000 OA
ATOM     15  H   UNL     1      11.683  13.206  20.607  0.00  0.00    +0.000 HD
ENDBRANCH   4  14
ENDBRANCH   1   2
BRANCH   1  16
ATOM     16  C   UNL     1       8.517   8.953  17.522  0.00  0.00    +0.000 C 
BRANCH  16  17
ATOM     17  C   UNL     1       7.413   7.930  17.784  0.00  0.00    +0.000 C 
BRANCH  17  18
ATOM     18  C   UNL     1       7.985   6.736  18.536  0.00  0.00    +0.000 C 
BRANCH  18  19
ATOM     19  C   UNL     1       7.070   5.530  18.419  0.00  0.00    +0.000 C 
BRANCH  19  20
ATOM     20  C   UNL     1       7.649   4.532  17.428  0.00  0.00    +0.000 C 
BRANCH  20  21
ATOM     21  C   UNL     1       7.011   4.724  16.064  0.00  0.00    +0.000 C 
BRANCH  21  22
ATOM     22  C   UNL     1       5.705   3.951  15.978  0.00  0.00    +0.000 C 
BRANCH  22  23
ATOM     23  C   UNL     1       4.549   4.847  16.353  0.00  0.00    +0.000 C 
BRANCH  23  24
ATOM     24  C   UNL     1       3.619   4.148  17.333  0.00  0.00    +0.000 C 
BRANCH  24  25
ATOM     25  C   UNL     1       2.926   5.155  18.238  0.00  0.00    +0.000 C 
BRANCH  25  26
ATOM     26  C   UNL     1       3.416   6.566  17.945  0.00  0.00    +0.000 C 
BRANCH  26  27
ATOM     27  C   UNL     1       2.526   7.589  18.637  0.00  0.00    +0.000 C 
BRANCH  27  29
ATOM     28  C   UNL     1       1.485   9.852  18.363  0.00  0.00    +0.000 C 
ATOM     29  C   UNL     1       2.005   8.621  17.643  0.00  0.00    +0.000 C 
ENDBRANCH  27  29
ENDBRANCH  26  27
ENDBRANCH  25  26
ENDBRANCH  24  25
ENDBRANCH  23  24
ENDBRANCH  22  23
ENDBRANCH  21  22
ENDBRANCH  20  21
ENDBRANCH  19  20
ENDBRANCH  18  19
ENDBRANCH  17  18
ENDBRANCH  16  17
ENDBRANCH   1  16
TORSDOF 16
ENDMDL
MODEL 7
REMARK VINA RESULT:      -6.0      1.735      2.452
REMARK  Name = 
REMARK  17 active torsions:
REMARK  status: ('A' for Active; 'I' for Inactive)
REMARK    1  A    between atoms: C_1  and  C_2
REMARK    2  A    between atoms: C_2  and  C_3
REMARK    3  A    between atoms: C_3  and  C_4
REMARK    4  A    between atoms: C_4  and  C_5
REMARK    5  A    between atoms: C_5  and  C_6
REMARK    6  A    between atoms: C_6  and  C_7
REMARK    7  A    between atoms: C_7  and  C_8
REMARK    8  A    between atoms: C_8  and  C_9
REMARK    9  A    between atoms: C_9  and  C_10
REMARK   10  A    between atoms: C_10  and  C_11
REMARK   11  A    between atoms: C_11  and  C_12
REMARK   12  A    between atoms: C_12  and  C_13
REMARK   13  A    between atoms: C_13  and  C_14
REMARK   14  A    between atoms: C_14  and  C_15
REMARK   15  A    between atoms: C_15  and  C_16
REMARK   16  A    between atoms: C_18  and  O_19
REMARK   17  A    between atoms: C_25  and  O_26
REMARK                            x       y       z     vdW  Elec       q    Type
REMARK                         _______ _______ _______ _____ _____    ______ ____
ROOT
ATOM      1  C   UNL     1       5.803   4.396  17.243  0.00  0.00    +0.000 C 
ENDROOT
BRANCH   1   2
ATOM      2  C   UNL     1       4.651   5.208  17.860  0.00  0.00    +0.000 C 
ATOM      3  C   UNL     1       4.749   5.218  19.411  0.00  0.00    +0.000 C 
ATOM      4  C   UNL     1       3.350   4.849  19.878  0.00  0.00    +0.000 C 
ATOM      5  C   UNL     1       3.082   4.003  21.130  0.00  0.00    +0.000 C 
ATOM      6  C   UNL     1       1.714   3.290  21.043  0.00  0.00    +0.000 C 
ATOM      7  O   UNL     1       1.315   2.558  21.943  0.00  0.00    +0.000 OA
ATOM      8  C   UNL     1       0.816   3.557  19.874  0.00  0.00    +0.000 C 
ATOM      9  C   UNL     1       1.363   3.981  18.725  0.00  0.00    +0.000 C 
ATOM     10  C   UNL     1       2.843   4.066  18.644  0.00  0.00    +0.000 C 
ATOM     11  O   UNL     1       3.361   4.684  17.486  0.00  0.00    +0.000 OA
BRANCH  10  12
ATOM     12  O   UNL     1       3.373   2.742  18.653  0.00  0.00    +0.000 OA
ATOM     13  H   UNL     1       3.048   2.334  17.832  0.00  0.00    +0.000 HD
ENDBRANCH  10  12
BRANCH   4  14
ATOM     14  O   UNL     1       2.691   6.110  20.105  0.00  0.00    +0.000 OA
ATOM     15  H   UNL     1       1.956   5.988  20.748  0.00  0.00    +0.000 HD
ENDBRANCH   4  14
ENDBRANCH   1   2
BRANCH   1  16
ATOM     16  C   UNL     1       7.179   4.998  17.517  0.00  0.00    +0.000 C 
BRANCH  16  17
ATOM     17  C   UNL     1       7.245   6.459  17.075  0.00  0.00    +0.000 C 
BRANCH  17  18
ATOM     18  C   UNL     1       7.904   7.296  18.164  0.00  0.00    +0.000 C 
BRANCH  18  19
ATOM     19  C   UNL     1       7.949   8.762  17.770  0.00  0.00    +0.000 C 
BRANCH  19  20
ATOM     20  C   UNL     1       8.867   9.525  18.712  0.00  0.00    +0.000 C 
BRANCH  20  21
ATOM     21  C   UNL     1       9.066  10.944  18.209  0.00  0.00    +0.000 C 
BRANCH  21  22
ATOM     22  C   UNL     1      10.538  11.320  18.260  0.00  0.00    +0.000 C 
BRANCH  22  23
ATOM     23  C   UNL     1      10.730  12.534  19.138  0.00  0.00    +0.000 C 
BRANCH  23  24
ATOM     24  C   UNL     1      10.541  12.175  20.604  0.00  0.00    +0.000 C 
BRANCH  24  25
ATOM     25  C   UNL     1      10.028  13.369  21.393  0.00  0.00    +0.000 C 
BRANCH  25  26
ATOM     26  C   UNL     1       8.512  13.310  21.532  0.00  0.00    +0.000 C 
BRANCH  26  27
ATOM     27  C   UNL     1       7.857  14.322  20.603  0.00  0.00    +0.000 C 
BRANCH  27  29
ATOM     28  C   UNL     1       6.441  16.167  21.537  0.00  0.00    +0.000 C 
ATOM     29  C   UNL     1       6.472  14.711  21.109  0.00  0.00    +0.000 C 
ENDBRANCH  27  29
ENDBRANCH  26  27
ENDBRANCH  25  26
ENDBRANCH  24  25
ENDBRANCH  23  24
ENDBRANCH  22  23
ENDBRANCH  21  22
ENDBRANCH  20  21
ENDBRANCH  19  20
ENDBRANCH  18  19
ENDBRANCH  17  18
ENDBRANCH  16  17
ENDBRANCH   1  16
TORSDOF 16
ENDMDL
MODEL 8
REMARK VINA RESULT:      -6.0      4.960      7.883
REMARK  Name = 
REMARK  17 active torsions:
REMARK  status: ('A' for Active; 'I' for Inactive)
REMARK    1  A    between atoms: C_1  and  C_2
REMARK    2  A    between atoms: C_2  and  C_3
REMARK    3  A    between atoms: C_3  and  C_4
REMARK    4  A    between atoms: C_4  and  C_5
REMARK    5  A    between atoms: C_5  and  C_6
REMARK    6  A    between atoms: C_6  and  C_7
REMARK    7  A    between atoms: C_7  and  C_8
REMARK    8  A    between atoms: C_8  and  C_9
REMARK    9  A    between atoms: C_9  and  C_10
REMARK   10  A    between atoms: C_10  and  C_11
REMARK   11  A    between atoms: C_11  and  C_12
REMARK   12  A    between atoms: C_12  and  C_13
REMARK   13  A    between atoms: C_13  and  C_14
REMARK   14  A    between atoms: C_14  and  C_15
REMARK   15  A    between atoms: C_15  and  C_16
REMARK   16  A    between atoms: C_18  and  O_19
REMARK   17  A    between atoms: C_25  and  O_26
REMARK                            x       y       z     vdW  Elec       q    Type
REMARK                         _______ _______ _______ _____ _____    ______ ____
ROOT
ATOM      1  C   UNL     1       2.797   3.469  17.617  0.00  0.00    +0.000 C 
ENDROOT
BRANCH   1   2
ATOM      2  C   UNL     1       4.316   3.249  17.515  0.00  0.00    +0.000 C 
ATOM      3  C   UNL     1       5.063   4.006  18.647  0.00  0.00    +0.000 C 
ATOM      4  C   UNL     1       6.176   4.752  17.929  0.00  0.00    +0.000 C 
ATOM      5  C   UNL     1       6.666   6.141  18.360  0.00  0.00    +0.000 C 
ATOM      6  C   UNL     1       7.318   6.898  17.181  0.00  0.00    +0.000 C 
ATOM      7  O   UNL     1       7.769   8.030  17.318  0.00  0.00    +0.000 OA
ATOM      8  C   UNL     1       7.478   6.209  15.861  0.00  0.00    +0.000 C 
ATOM      9  C   UNL     1       6.654   5.193  15.561  0.00  0.00    +0.000 C 
ATOM     10  C   UNL     1       5.563   4.871  16.514  0.00  0.00    +0.000 C 
ATOM     11  O   UNL     1       4.840   3.689  16.246  0.00  0.00    +0.000 OA
BRANCH  10  12
ATOM     12  O   UNL     1       4.609   5.931  16.482  0.00  0.00    +0.000 OA
ATOM     13  H   UNL     1       4.487   6.189  17.412  0.00  0.00    +0.000 HD
ENDBRANCH  10  12
BRANCH   4  14
ATOM     14  O   UNL     1       7.322   3.883  18.019  0.00  0.00    +0.000 OA
ATOM     15  H   UNL     1       7.202   3.113  17.418  0.00  0.00    +0.000 HD
ENDBRANCH   4  14
ENDBRANCH   1   2
BRANCH   1  16
ATOM     16  C   UNL     1       2.028   2.202  17.982  0.00  0.00    +0.000 C 
BRANCH  16  17
ATOM     17  C   UNL     1       1.061   2.452  19.139  0.00  0.00    +0.000 C 
BRANCH  17  18
ATOM     18  C   UNL     1       1.803   2.331  20.464  0.00  0.00    +0.000 C 
BRANCH  18  19
ATOM     19  C   UNL     1       1.692   3.615  21.267  0.00  0.00    +0.000 C 
BRANCH  19  20
ATOM     20  C   UNL     1       1.145   4.732  20.391  0.00  0.00    +0.000 C 
BRANCH  20  21
ATOM     21  C   UNL     1       1.842   6.040  20.721  0.00  0.00    +0.000 C 
BRANCH  21  22
ATOM     22  C   UNL     1       2.851   6.387  19.640  0.00  0.00    +0.000 C 
BRANCH  22  23
ATOM     23  C   UNL     1       2.180   7.173  18.539  0.00  0.00    +0.000 C 
BRANCH  23  24
ATOM     24  C   UNL     1       1.832   8.576  19.012  0.00  0.00    +0.000 C 
BRANCH  24  25
ATOM     25  C   UNL     1       1.450   9.466  17.839  0.00  0.00    +0.000 C 
BRANCH  25  26
ATOM     26  C   UNL     1       2.035  10.861  18.009  0.00  0.00    +0.000 C 
BRANCH  26  27
ATOM     27  C   UNL     1       1.234  11.648  19.035  0.00  0.00    +0.000 C 
BRANCH  27  29
ATOM     28  C   UNL     1      -0.911  12.846  18.537  0.00  0.00    +0.000 C 
ATOM     29  C   UNL     1      -0.265  11.497  18.792  0.00  0.00    +0.000 C 
ENDBRANCH  27  29
ENDBRANCH  26  27
ENDBRANCH  25  26
ENDBRANCH  24  25
ENDBRANCH  23  24
ENDBRANCH  22  23
ENDBRANCH  21  22
ENDBRANCH  20  21
ENDBRANCH  19  20
ENDBRANCH  18  19
ENDBRANCH  17  18
ENDBRANCH  16  17
ENDBRANCH   1  16
TORSDOF 16
ENDMDL
MODEL 9
REMARK VINA RESULT:      -6.0      1.857      3.087
REMARK  Name = 
REMARK  17 active torsions:
REMARK  status: ('A' for Active; 'I' for Inactive)
REMARK    1  A    between atoms: C_1  and  C_2
REMARK    2  A    between atoms: C_2  and  C_3
REMARK    3  A    between atoms: C_3  and  C_4
REMARK    4  A    between atoms: C_4  and  C_5
REMARK    5  A    between atoms: C_5  and  C_6
REMARK    6  A    between atoms: C_6  and  C_7
REMARK    7  A    between atoms: C_7  and  C_8
REMARK    8  A    between atoms: C_8  and  C_9
REMARK    9  A    between atoms: C_9  and  C_10
REMARK   10  A    between atoms: C_10  and  C_11
REMARK   11  A    between atoms: C_11  and  C_12
REMARK   12  A    between atoms: C_12  and  C_13
REMARK   13  A    between atoms: C_13  and  C_14
REMARK   14  A    between atoms: C_14  and  C_15
REMARK   15  A    between atoms: C_15  and  C_16
REMARK   16  A    between atoms: C_18  and  O_19
REMARK   17  A    between atoms: C_25  and  O_26
REMARK                            x       y       z     vdW  Elec       q    Type
REMARK                         _______ _______ _______ _____ _____    ______ ____
ROOT
ATOM      1  C   UNL     1       7.422   6.746  17.606  0.00  0.00    +0.000 C 
ENDROOT
BRANCH   1   2
ATOM      2  C   UNL     1       6.876   5.529  18.371  0.00  0.00    +0.000 C 
ATOM      3  C   UNL     1       6.274   4.483  17.392  0.00  0.00    +0.000 C 
ATOM      4  C   UNL     1       4.914   4.152  17.985  0.00  0.00    +0.000 C 
ATOM      5  C   UNL     1       3.679   3.843  17.128  0.00  0.00    +0.000 C 
ATOM      6  C   UNL     1       2.372   4.139  17.897  0.00  0.00    +0.000 C 
ATOM      7  O   UNL     1       1.273   3.963  17.383  0.00  0.00    +0.000 OA
ATOM      8  C   UNL     1       2.442   4.572  19.329  0.00  0.00    +0.000 C 
ATOM      9  C   UNL     1       3.562   5.164  19.769  0.00  0.00    +0.000 C 
ATOM     10  C   UNL     1       4.638   5.447  18.785  0.00  0.00    +0.000 C 
ATOM     11  O   UNL     1       5.860   5.902  19.324  0.00  0.00    +0.000 OA
BRANCH  10  12
ATOM     12  O   UNL     1       4.187   6.477  17.908  0.00  0.00    +0.000 OA
ATOM     13  H   UNL     1       4.945   6.665  17.328  0.00  0.00    +0.000 HD
ENDBRANCH  10  12
BRANCH   4  14
ATOM     14  O   UNL     1       5.137   2.980  18.793  0.00  0.00    +0.000 OA
ATOM     15  H   UNL     1       4.502   2.274  18.534  0.00  0.00    +0.000 HD
ENDBRANCH   4  14
ENDBRANCH   1   2
BRANCH   1  16
ATOM     16  C   UNL     1       8.294   7.657  18.467  0.00  0.00    +0.000 C 
BRANCH  16  17
ATOM     17  C   UNL     1       8.212   9.109  18.000  0.00  0.00    +0.000 C 
BRANCH  17  18
ATOM     18  C   UNL     1       9.033   9.994  18.929  0.00  0.00    +0.000 C 
BRANCH  18  19
ATOM     19  C   UNL     1       9.630  11.169  18.173  0.00  0.00    +0.000 C 
BRANCH  19  20
ATOM     20  C   UNL     1      11.077  11.377  18.595  0.00  0.00    +0.000 C 
BRANCH  20  21
ATOM     21  C   UNL     1      11.134  11.867  20.031  0.00  0.00    +0.000 C 
BRANCH  21  22
ATOM     22  C   UNL     1      11.123  13.387  20.070  0.00  0.00    +0.000 C 
BRANCH  22  23
ATOM     23  C   UNL     1       9.824  13.879  20.661  0.00  0.00    +0.000 C 
BRANCH  23  24
ATOM     24  C   UNL     1       9.493  13.127  21.942  0.00  0.00    +0.000 C 
BRANCH  24  25
ATOM     25  C   UNL     1       8.342  13.791  22.680  0.00  0.00    +0.000 C 
BRANCH  25  26
ATOM     26  C   UNL     1       8.399  13.468  24.167  0.00  0.00    +0.000 C 
BRANCH  26  27
ATOM     27  C   UNL     1       6.993  13.302  24.726  0.00  0.00    +0.000 C 
BRANCH  27  29
ATOM     28  C   UNL     1       5.810  11.134  25.157  0.00  0.00    +0.000 C 
ATOM     29  C   UNL     1       6.292  12.104  24.093  0.00  0.00    +0.000 C 
ENDBRANCH  27  29
ENDBRANCH  26  27
ENDBRANCH  25  26
ENDBRANCH  24  25
ENDBRANCH  23  24
ENDBRANCH  22  23
ENDBRANCH  21  22
ENDBRANCH  20  21
ENDBRANCH  19  20
ENDBRANCH  18  19
ENDBRANCH  17  18
ENDBRANCH  16  17
ENDBRANCH   1  16
TORSDOF 16
ENDMDL
