MODEL 1
REMARK VINA RESULT:      -7.6      0.000      0.000
REMARK  Name = 
REMARK  5 active torsions:
REMARK  status: ('A' for Active; 'I' for Inactive)
REMARK    1  A    between atoms: C_1  and  O_2
REMARK    2  A    between atoms: O_2  and  C_3
REMARK    3  A    between atoms: C_8  and  C_9
REMARK    4  A    between atoms: N_13  and  C_14
REMARK    5  A    between atoms: C_18  and  C_19
REMARK                            x       y       z     vdW  Elec       q    Type
REMARK                         _______ _______ _______ _____ _____    ______ ____
ROOT
ATOM      1  C   UNL     1       4.479   4.569  17.759  0.00  0.00    +0.000 A 
ATOM      2  N   UNL     1       4.493   3.280  17.439  0.00  0.00    +0.000 NA
ATOM      3  C   UNL     1       3.187   2.959  17.271  0.00  0.00    +0.000 A 
ATOM      4  N   UNL     1       2.323   3.952  17.461  0.00  0.00    +0.000 NA
ATOM      5  N   UNL     1       3.136   4.974  17.863  0.00  0.00    +0.000 N 
ENDROOT
BRANCH   5   6
ATOM      6  C   UNL     1       2.526   6.073  18.425  0.00  0.00    +0.000 A 
ATOM      7  S   UNL     1       2.325   7.515  17.487  0.00  0.00    +0.000 S 
ATOM      8  C   UNL     1       1.927   8.444  18.877  0.00  0.00    +0.000 A 
ATOM      9  C   UNL     1       1.871   7.609  19.980  0.00  0.00    +0.000 A 
ATOM     10  C   UNL     1       2.124   6.249  19.733  0.00  0.00    +0.000 A 
ATOM     11  C   UNL     1       1.537   8.169  21.305  0.00  0.00    +0.000 C 
ATOM     12  C   UNL     1       0.489   8.898  22.071  0.00  0.00    +0.000 C 
ATOM     13  C   UNL     1       0.432  10.338  21.508  0.00  0.00    +0.000 C 
ATOM     14  C   UNL     1       0.773  10.674  19.987  0.00  0.00    +0.000 C 
ATOM     15  C   UNL     1       1.728   9.964  18.913  0.00  0.00    +0.000 C 
BRANCH  10  16
ATOM     16  C   UNL     1       2.040   5.235  20.758  0.00  0.00    +0.000 C 
ATOM     17  N   UNL     1       2.051   4.371  21.531  0.00  0.00    +0.000 NA
ENDBRANCH  10  16
ENDBRANCH   5   6
BRANCH   1  23
ATOM     18  C   UNL     1       6.297   6.238  16.981  0.00  0.00    +0.000 A 
ATOM     19  C   UNL     1       7.410   7.023  17.326  0.00  0.00    +0.000 A 
ATOM     20  C   UNL     1       8.050   6.854  18.550  0.00  0.00    +0.000 A 
ATOM     21  C   UNL     1       7.580   5.913  19.451  0.00  0.00    +0.000 A 
ATOM     22  C   UNL     1       6.419   5.195  19.155  0.00  0.00    +0.000 A 
ATOM     23  C   UNL     1       5.727   5.366  17.937  0.00  0.00    +0.000 A 
BRANCH  18  25
ATOM     24  C   UNL     1       5.955   5.322  14.762  0.00  0.00    +0.000 C 
ATOM     25  O   UNL     1       5.701   6.304  15.756  0.00  0.00    +0.000 OA
ENDBRANCH  18  25
ENDBRANCH   1  23
TORSDOF 4
ENDMDL
MODEL 2
REMARK VINA RESULT:      -7.0      1.999      3.887
REMARK  Name = 
REMARK  5 active torsions:
REMARK  status: ('A' for Active; 'I' for Inactive)
REMARK    1  A    between atoms: C_1  and  O_2
REMARK    2  A    between atoms: O_2  and  C_3
REMARK    3  A    between atoms: C_8  and  C_9
REMARK    4  A    between atoms: N_13  and  C_14
REMARK    5  A    between atoms: C_18  and  C_19
REMARK                            x       y       z     vdW  Elec       q    Type
REMARK                         _______ _______ _______ _____ _____    ______ ____
ROOT
ATOM      1  C   UNL     1       3.573   5.045  17.614  0.00  0.00    +0.000 A 
ATOM      2  N   UNL     1       4.546   4.825  16.737  0.00  0.00    +0.000 NA
ATOM      3  C   UNL     1       5.184   6.015  16.634  0.00  0.00    +0.000 A 
ATOM      4  N   UNL     1       4.691   6.997  17.383  0.00  0.00    +0.000 NA
ATOM      5  N   UNL     1       3.597   6.409  17.952  0.00  0.00    +0.000 N 
ENDROOT
BRANCH   5   6
ATOM      6  C   UNL     1       2.688   7.243  18.564  0.00  0.00    +0.000 A 
ATOM      7  S   UNL     1       2.227   8.723  17.793  0.00  0.00    +0.000 S 
ATOM      8  C   UNL     1       1.487   9.318  19.226  0.00  0.00    +0.000 A 
ATOM      9  C   UNL     1       1.536   8.338  20.202  0.00  0.00    +0.000 A 
ATOM     10  C   UNL     1       2.136   7.125  19.824  0.00  0.00    +0.000 A 
ATOM     11  C   UNL     1       0.955   8.602  21.533  0.00  0.00    +0.000 C 
ATOM     12  C   UNL     1      -0.305   8.949  22.246  0.00  0.00    +0.000 C 
ATOM     13  C   UNL     1      -0.661  10.404  21.861  0.00  0.00    +0.000 C 
ATOM     14  C   UNL     1      -0.274  11.032  20.447  0.00  0.00    +0.000 C 
ATOM     15  C   UNL     1       0.919  10.728  19.423  0.00  0.00    +0.000 C 
BRANCH  10  16
ATOM     16  C   UNL     1       2.209   5.978  20.698  0.00  0.00    +0.000 C 
ATOM     17  N   UNL     1       2.264   4.997  21.313  0.00  0.00    +0.000 NA
ENDBRANCH  10  16
ENDBRANCH   5   6
BRANCH   1  23
ATOM     18  C   UNL     1       3.069   2.841  18.875  0.00  0.00    +0.000 A 
ATOM     19  C   UNL     1       2.098   1.960  19.377  0.00  0.00    +0.000 A 
ATOM     20  C   UNL     1       0.761   2.088  19.013  0.00  0.00    +0.000 A 
ATOM     21  C   UNL     1       0.374   3.107  18.157  0.00  0.00    +0.000 A 
ATOM     22  C   UNL     1       1.317   4.042  17.729  0.00  0.00    +0.000 A 
ATOM     23  C   UNL     1       2.675   3.960  18.106  0.00  0.00    +0.000 A 
BRANCH  18  25
ATOM     24  C   UNL     1       4.854   1.997  20.282  0.00  0.00    +0.000 C 
ATOM     25  O   UNL     1       4.401   2.693  19.130  0.00  0.00    +0.000 OA
ENDBRANCH  18  25
ENDBRANCH   1  23
TORSDOF 4
ENDMDL
MODEL 3
REMARK VINA RESULT:      -6.8      1.567      2.539
REMARK  Name = 
REMARK  5 active torsions:
REMARK  status: ('A' for Active; 'I' for Inactive)
REMARK    1  A    between atoms: C_1  and  O_2
REMARK    2  A    between atoms: O_2  and  C_3
REMARK    3  A    between atoms: C_8  and  C_9
REMARK    4  A    between atoms: N_13  and  C_14
REMARK    5  A    between atoms: C_18  and  C_19
REMARK                            x       y       z     vdW  Elec       q    Type
REMARK                         _______ _______ _______ _____ _____    ______ ____
ROOT
ATOM      1  C   UNL     1       3.983   4.136  18.737  0.00  0.00    +0.000 A 
ATOM      2  N   UNL     1       3.685   2.847  18.865  0.00  0.00    +0.000 NA
ATOM      3  C   UNL     1       2.335   2.822  18.978  0.00  0.00    +0.000 A 
ATOM      4  N   UNL     1       1.733   4.007  18.933  0.00  0.00    +0.000 NA
ATOM      5  N   UNL     1       2.791   4.870  18.867  0.00  0.00    +0.000 N 
ENDROOT
BRANCH   5   6
ATOM      6  C   UNL     1       2.527   6.201  19.103  0.00  0.00    +0.000 A 
ATOM      7  S   UNL     1       1.657   6.663  20.527  0.00  0.00    +0.000 S 
ATOM      8  C   UNL     1       1.392   8.253  19.931  0.00  0.00    +0.000 A 
ATOM      9  C   UNL     1       2.050   8.399  18.722  0.00  0.00    +0.000 A 
ATOM     10  C   UNL     1       2.768   7.278  18.275  0.00  0.00    +0.000 A 
ATOM     11  C   UNL     1       1.984   9.688  18.004  0.00  0.00    +0.000 C 
ATOM     12  C   UNL     1       2.302  11.139  18.109  0.00  0.00    +0.000 C 
ATOM     13  C   UNL     1       1.346  11.739  19.167  0.00  0.00    +0.000 C 
ATOM     14  C   UNL     1       0.794  10.890  20.399  0.00  0.00    +0.000 C 
ATOM     15  C   UNL     1       0.516   9.324  20.591  0.00  0.00    +0.000 C 
BRANCH  10  16
ATOM     16  C   UNL     1       3.564   7.282  17.069  0.00  0.00    +0.000 C 
ATOM     17  N   UNL     1       4.287   7.290  16.163  0.00  0.00    +0.000 NA
ENDBRANCH  10  16
ENDBRANCH   5   6
BRANCH   1  23
ATOM     18  C   UNL     1       6.078   4.501  17.262  0.00  0.00    +0.000 A 
ATOM     19  C   UNL     1       7.336   5.110  17.122  0.00  0.00    +0.000 A 
ATOM     20  C   UNL     1       7.964   5.708  18.210  0.00  0.00    +0.000 A 
ATOM     21  C   UNL     1       7.340   5.721  19.446  0.00  0.00    +0.000 A 
ATOM     22  C   UNL     1       6.050   5.201  19.572  0.00  0.00    +0.000 A 
ATOM     23  C   UNL     1       5.371   4.617  18.481  0.00  0.00    +0.000 A 
BRANCH  18  25
ATOM     24  C   UNL     1       6.003   3.844  14.929  0.00  0.00    +0.000 C 
ATOM     25  O   UNL     1       5.472   3.821  16.247  0.00  0.00    +0.000 OA
ENDBRANCH  18  25
ENDBRANCH   1  23
TORSDOF 4
ENDMDL
MODEL 4
REMARK VINA RESULT:      -6.7      1.348      2.285
REMARK  Name = 
REMARK  5 active torsions:
REMARK  status: ('A' for Active; 'I' for Inactive)
REMARK    1  A    between atoms: C_1  and  O_2
REMARK    2  A    between atoms: O_2  and  C_3
REMARK    3  A    between atoms: C_8  and  C_9
REMARK    4  A    between atoms: N_13  and  C_14
REMARK    5  A    between atoms: C_18  and  C_19
REMARK                            x       y       z     vdW  Elec       q    Type
REMARK                         _______ _______ _______ _____ _____    ______ ____
ROOT
ATOM      1  C   UNL     1       4.185   3.154  17.719  0.00  0.00    +0.000 A 
ATOM      2  N   UNL     1       4.293   1.844  17.911  0.00  0.00    +0.000 NA
ATOM      3  C   UNL     1       3.131   1.493  18.512  0.00  0.00    +0.000 A 
ATOM      4  N   UNL     1       2.273   2.487  18.726  0.00  0.00    +0.000 NA
ATOM      5  N   UNL     1       2.977   3.578  18.300  0.00  0.00    +0.000 N 
ENDROOT
BRANCH   5   6
ATOM      6  C   UNL     1       2.486   4.815  18.654  0.00  0.00    +0.000 A 
ATOM      7  S   UNL     1       2.305   6.042  17.446  0.00  0.00    +0.000 S 
ATOM      8  C   UNL     1       2.081   7.268  18.629  0.00  0.00    +0.000 A 
ATOM      9  C   UNL     1       2.059   6.687  19.886  0.00  0.00    +0.000 A 
ATOM     10  C   UNL     1       2.203   5.290  19.918  0.00  0.00    +0.000 A 
ATOM     11  C   UNL     1       1.870   7.534  21.080  0.00  0.00    +0.000 C 
ATOM     12  C   UNL     1       0.937   8.488  21.740  0.00  0.00    +0.000 C 
ATOM     13  C   UNL     1       0.928   9.780  20.888  0.00  0.00    +0.000 C 
ATOM     14  C   UNL     1       1.166   9.765  19.312  0.00  0.00    +0.000 C 
ATOM     15  C   UNL     1       1.984   8.773  18.354  0.00  0.00    +0.000 C 
BRANCH  10  16
ATOM     16  C   UNL     1       2.136   4.520  21.138  0.00  0.00    +0.000 C 
ATOM     17  N   UNL     1       2.145   3.831  22.070  0.00  0.00    +0.000 NA
ENDBRANCH  10  16
ENDBRANCH   5   6
BRANCH   1  23
ATOM     18  C   UNL     1       6.272   4.677  17.569  0.00  0.00    +0.000 A 
ATOM     19  C   UNL     1       7.244   5.277  16.751  0.00  0.00    +0.000 A 
ATOM     20  C   UNL     1       7.107   5.283  15.367  0.00  0.00    +0.000 A 
ATOM     21  C   UNL     1       6.008   4.678  14.779  0.00  0.00    +0.000 A 
ATOM     22  C   UNL     1       5.086   3.999  15.579  0.00  0.00    +0.000 A 
ATOM     23  C   UNL     1       5.214   3.945  16.983  0.00  0.00    +0.000 A 
BRANCH  18  25
ATOM     24  C   UNL     1       7.290   5.526  19.600  0.00  0.00    +0.000 C 
ATOM     25  O   UNL     1       6.320   4.732  18.931  0.00  0.00    +0.000 OA
ENDBRANCH  18  25
ENDBRANCH   1  23
TORSDOF 4
ENDMDL
MODEL 5
REMARK VINA RESULT:      -6.7      1.292      2.219
REMARK  Name = 
REMARK  5 active torsions:
REMARK  status: ('A' for Active; 'I' for Inactive)
REMARK    1  A    between atoms: C_1  and  O_2
REMARK    2  A    between atoms: O_2  and  C_3
REMARK    3  A    between atoms: C_8  and  C_9
REMARK    4  A    between atoms: N_13  and  C_14
REMARK    5  A    between atoms: C_18  and  C_19
REMARK                            x       y       z     vdW  Elec       q    Type
REMARK                         _______ _______ _______ _____ _____    ______ ____
ROOT
ATOM      1  C   UNL     1       4.097   4.397  18.219  0.00  0.00    +0.000 A 
ATOM      2  N   UNL     1       3.960   3.115  17.896  0.00  0.00    +0.000 NA
ATOM      3  C   UNL     1       2.628   2.885  17.984  0.00  0.00    +0.000 A 
ATOM      4  N   UNL     1       1.887   3.930  18.344  0.00  0.00    +0.000 NA
ATOM      5  N   UNL     1       2.831   4.888  18.586  0.00  0.00    +0.000 N 
ENDROOT
BRANCH   5   6
ATOM      6  C   UNL     1       2.419   6.014  19.262  0.00  0.00    +0.000 A 
ATOM      7  S   UNL     1       1.718   5.860  20.838  0.00  0.00    +0.000 S 
ATOM      8  C   UNL     1       1.142   7.479  20.814  0.00  0.00    +0.000 A 
ATOM      9  C   UNL     1       1.581   8.100  19.657  0.00  0.00    +0.000 A 
ATOM     10  C   UNL     1       2.376   7.316  18.805  0.00  0.00    +0.000 A 
ATOM     11  C   UNL     1       1.224   9.510  19.403  0.00  0.00    +0.000 C 
ATOM     12  C   UNL     1       1.344  10.894  19.937  0.00  0.00    +0.000 C 
ATOM     13  C   UNL     1       0.484  10.964  21.221  0.00  0.00    +0.000 C 
ATOM     14  C   UNL     1       0.251   9.697  22.163  0.00  0.00    +0.000 C 
ATOM     15  C   UNL     1       0.233   8.123  21.867  0.00  0.00    +0.000 C 
BRANCH  10  16
ATOM     16  C   UNL     1       2.971   7.828  17.592  0.00  0.00    +0.000 C 
ATOM     17  N   UNL     1       3.404   8.158  16.569  0.00  0.00    +0.000 NA
ENDBRANCH  10  16
ENDBRANCH   5   6
BRANCH   1  23
ATOM     18  C   UNL     1       5.985   5.676  16.996  0.00  0.00    +0.000 A 
ATOM     19  C   UNL     1       7.169   6.424  17.102  0.00  0.00    +0.000 A 
ATOM     20  C   UNL     1       7.863   6.497  18.305  0.00  0.00    +0.000 A 
ATOM     21  C   UNL     1       7.377   5.838  19.423  0.00  0.00    +0.000 A 
ATOM     22  C   UNL     1       6.153   5.170  19.351  0.00  0.00    +0.000 A 
ATOM     23  C   UNL     1       5.408   5.106  18.154  0.00  0.00    +0.000 A 
BRANCH  18  25
ATOM     24  C   UNL     1       5.756   4.527  14.873  0.00  0.00    +0.000 C 
ATOM     25  O   UNL     1       5.327   5.501  15.814  0.00  0.00    +0.000 OA
ENDBRANCH  18  25
ENDBRANCH   1  23
TORSDOF 4
ENDMDL
MODEL 6
REMARK VINA RESULT:      -6.5      5.766      8.392
REMARK  Name = 
REMARK  5 active torsions:
REMARK  status: ('A' for Active; 'I' for Inactive)
REMARK    1  A    between atoms: C_1  and  O_2
REMARK    2  A    between atoms: O_2  and  C_3
REMARK    3  A    between atoms: C_8  and  C_9
REMARK    4  A    between atoms: N_13  and  C_14
REMARK    5  A    between atoms: C_18  and  C_19
REMARK                            x       y       z     vdW  Elec       q    Type
REMARK                         _______ _______ _______ _____ _____    ______ ____
ROOT
ATOM      1  C   UNL     1       0.773  11.822  19.274  0.00  0.00    +0.000 A 
ATOM      2  N   UNL     1       1.762  12.586  18.822  0.00  0.00    +0.000 NA
ATOM      3  C   UNL     1       1.169  13.769  18.531  0.00  0.00    +0.000 A 
ATOM      4  N   UNL     1      -0.140  13.827  18.762  0.00  0.00    +0.000 NA
ATOM      5  N   UNL     1      -0.424  12.551  19.157  0.00  0.00    +0.000 N 
ENDROOT
BRANCH   5   6
ATOM      6  C   UNL     1      -1.752  12.190  19.193  0.00  0.00    +0.000 A 
ATOM      7  S   UNL     1      -2.417  11.237  17.909  0.00  0.00    +0.000 S 
ATOM      8  C   UNL     1      -4.028  11.549  18.421  0.00  0.00    +0.000 A 
ATOM      9  C   UNL     1      -3.997  12.283  19.594  0.00  0.00    +0.000 A 
ATOM     10  C   UNL     1      -2.719  12.585  20.095  0.00  0.00    +0.000 A 
ATOM     11  C   UNL     1      -5.263  12.675  20.246  0.00  0.00    +0.000 C 
ATOM     12  C   UNL     1      -6.510  12.145  20.861  0.00  0.00    +0.000 C 
ATOM     13  C   UNL     1      -7.352  11.522  19.722  0.00  0.00    +0.000 C 
ATOM     14  C   UNL     1      -6.686  10.865  18.430  0.00  0.00    +0.000 C 
ATOM     15  C   UNL     1      -5.302  11.141  17.672  0.00  0.00    +0.000 C 
BRANCH  10  16
ATOM     16  C   UNL     1      -2.508  13.284  21.341  0.00  0.00    +0.000 C 
ATOM     17  N   UNL     1      -2.428  13.895  22.323  0.00  0.00    +0.000 NA
ENDBRANCH  10  16
ENDBRANCH   5   6
BRANCH   1  23
ATOM     18  C   UNL     1       0.733  10.020  21.131  0.00  0.00    +0.000 A 
ATOM     19  C   UNL     1       0.877   8.664  21.468  0.00  0.00    +0.000 A 
ATOM     20  C   UNL     1       1.416   7.757  20.561  0.00  0.00    +0.000 A 
ATOM     21  C   UNL     1       1.802   8.186  19.302  0.00  0.00    +0.000 A 
ATOM     22  C   UNL     1       1.575   9.511  18.926  0.00  0.00    +0.000 A 
ATOM     23  C   UNL     1       1.000  10.449  19.810  0.00  0.00    +0.000 A 
BRANCH  18  25
ATOM     24  C   UNL     1      -0.707  10.653  22.977  0.00  0.00    +0.000 C 
ATOM     25  O   UNL     1       0.299  10.958  22.021  0.00  0.00    +0.000 OA
ENDBRANCH  18  25
ENDBRANCH   1  23
TORSDOF 4
ENDMDL
MODEL 7
REMARK VINA RESULT:      -6.5      2.222      6.500
REMARK  Name = 
REMARK  5 active torsions:
REMARK  status: ('A' for Active; 'I' for Inactive)
REMARK    1  A    between atoms: C_1  and  O_2
REMARK    2  A    between atoms: O_2  and  C_3
REMARK    3  A    between atoms: C_8  and  C_9
REMARK    4  A    between atoms: N_13  and  C_14
REMARK    5  A    between atoms: C_18  and  C_19
REMARK                            x       y       z     vdW  Elec       q    Type
REMARK                         _______ _______ _______ _____ _____    ______ ____
ROOT
ATOM      1  C   UNL     1       2.286   5.889  20.155  0.00  0.00    +0.000 A 
ATOM      2  N   UNL     1       1.533   5.330  21.096  0.00  0.00    +0.000 NA
ATOM      3  C   UNL     1       2.167   4.171  21.392  0.00  0.00    +0.000 A 
ATOM      4  N   UNL     1       3.282   3.935  20.707  0.00  0.00    +0.000 NA
ATOM      5  N   UNL     1       3.323   4.992  19.842  0.00  0.00    +0.000 N 
ENDROOT
BRANCH   5   6
ATOM      6  C   UNL     1       4.202   4.901  18.786  0.00  0.00    +0.000 A 
ATOM      7  S   UNL     1       5.728   5.716  18.869  0.00  0.00    +0.000 S 
ATOM      8  C   UNL     1       6.013   5.495  17.189  0.00  0.00    +0.000 A 
ATOM      9  C   UNL     1       4.989   4.734  16.651  0.00  0.00    +0.000 A 
ATOM     10  C   UNL     1       3.997   4.316  17.553  0.00  0.00    +0.000 A 
ATOM     11  C   UNL     1       5.007   4.395  15.214  0.00  0.00    +0.000 C 
ATOM     12  C   UNL     1       5.790   3.705  14.153  0.00  0.00    +0.000 C 
ATOM     13  C   UNL     1       7.072   4.537  13.917  0.00  0.00    +0.000 C 
ATOM     14  C   UNL     1       7.762   5.388  15.076  0.00  0.00    +0.000 C 
ATOM     15  C   UNL     1       7.177   6.094  16.390  0.00  0.00    +0.000 C 
BRANCH  10  16
ATOM     16  C   UNL     1       2.896   3.462  17.172  0.00  0.00    +0.000 C 
ATOM     17  N   UNL     1       2.031   2.723  16.954  0.00  0.00    +0.000 NA
ENDBRANCH  10  16
ENDBRANCH   5   6
BRANCH   1  23
ATOM     18  C   UNL     1       1.459   8.336  20.319  0.00  0.00    +0.000 A 
ATOM     19  C   UNL     1       1.365   9.597  19.709  0.00  0.00    +0.000 A 
ATOM     20  C   UNL     1       1.671   9.763  18.362  0.00  0.00    +0.000 A 
ATOM     21  C   UNL     1       2.091   8.677  17.611  0.00  0.00    +0.000 A 
ATOM     22  C   UNL     1       2.277   7.441  18.232  0.00  0.00    +0.000 A 
ATOM     23  C   UNL     1       2.007   7.247  19.604  0.00  0.00    +0.000 A 
BRANCH  18  25
ATOM     24  C   UNL     1       0.268   9.047  22.309  0.00  0.00    +0.000 C 
ATOM     25  O   UNL     1       1.077   8.111  21.609  0.00  0.00    +0.000 OA
ENDBRANCH  18  25
ENDBRANCH   1  23
TORSDOF 4
ENDMDL
MODEL 8
REMARK VINA RESULT:      -6.4      5.543      8.047
REMARK  Name = 
REMARK  5 active torsions:
REMARK  status: ('A' for Active; 'I' for Inactive)
REMARK    1  A    between atoms: C_1  and  O_2
REMARK    2  A    between atoms: O_2  and  C_3
REMARK    3  A    between atoms: C_8  and  C_9
REMARK    4  A    between atoms: N_13  and  C_14
REMARK    5  A    between atoms: C_18  and  C_19
REMARK                            x       y       z     vdW  Elec       q    Type
REMARK                         _______ _______ _______ _____ _____    ______ ____
ROOT
ATOM      1  C   UNL     1       0.660  11.769  19.372  0.00  0.00    +0.000 A 
ATOM      2  N   UNL     1       1.694  12.422  18.853  0.00  0.00    +0.000 NA
ATOM      3  C   UNL     1       1.154  13.551  18.334  0.00  0.00    +0.000 A 
ATOM      4  N   UNL     1      -0.162  13.677  18.478  0.00  0.00    +0.000 NA
ATOM      5  N   UNL     1      -0.507  12.493  19.067  0.00  0.00    +0.000 N 
ENDROOT
BRANCH   5   6
ATOM      6  C   UNL     1      -1.845  12.173  19.090  0.00  0.00    +0.000 A 
ATOM      7  S   UNL     1      -2.569  11.413  17.712  0.00  0.00    +0.000 S 
ATOM      8  C   UNL     1      -4.157  11.709  18.298  0.00  0.00    +0.000 A 
ATOM      9  C   UNL     1      -4.077  12.286  19.554  0.00  0.00    +0.000 A 
ATOM     10  C   UNL     1      -2.780  12.481  20.057  0.00  0.00    +0.000 A 
ATOM     11  C   UNL     1      -5.315  12.632  20.280  0.00  0.00    +0.000 C 
ATOM     12  C   UNL     1      -6.568  12.069  20.854  0.00  0.00    +0.000 C 
ATOM     13  C   UNL     1      -7.453  11.623  19.666  0.00  0.00    +0.000 C 
ATOM     14  C   UNL     1      -6.837  11.115  18.286  0.00  0.00    +0.000 C 
ATOM     15  C   UNL     1      -5.459  11.440  17.535  0.00  0.00    +0.000 C 
BRANCH  10  16
ATOM     16  C   UNL     1      -2.519  13.009  21.376  0.00  0.00    +0.000 C 
ATOM     17  N   UNL     1      -2.322  13.335  22.471  0.00  0.00    +0.000 NA
ENDBRANCH  10  16
ENDBRANCH   5   6
BRANCH   1  23
ATOM     18  C   UNL     1       1.245   9.260  19.625  0.00  0.00    +0.000 A 
ATOM     19  C   UNL     1       1.466   8.178  20.492  0.00  0.00    +0.000 A 
ATOM     20  C   UNL     1       1.136   8.264  21.841  0.00  0.00    +0.000 A 
ATOM     21  C   UNL     1       0.595   9.436  22.345  0.00  0.00    +0.000 A 
ATOM     22  C   UNL     1       0.459  10.547  21.511  0.00  0.00    +0.000 A 
ATOM     23  C   UNL     1       0.816  10.503  20.146  0.00  0.00    +0.000 A 
BRANCH  18  25
ATOM     24  C   UNL     1       2.436   8.296  17.746  0.00  0.00    +0.000 C 
ATOM     25  O   UNL     1       1.465   9.185  18.281  0.00  0.00    +0.000 OA
ENDBRANCH  18  25
ENDBRANCH   1  23
TORSDOF 4
ENDMDL
MODEL 9
REMARK VINA RESULT:      -6.2      3.157      4.593
REMARK  Name = 
REMARK  5 active torsions:
REMARK  status: ('A' for Active; 'I' for Inactive)
REMARK    1  A    between atoms: C_1  and  O_2
REMARK    2  A    between atoms: O_2  and  C_3
REMARK    3  A    between atoms: C_8  and  C_9
REMARK    4  A    between atoms: N_13  and  C_14
REMARK    5  A    between atoms: C_18  and  C_19
REMARK                            x       y       z     vdW  Elec       q    Type
REMARK                         _______ _______ _______ _____ _____    ______ ____
ROOT
ATOM      1  C   UNL     1       6.764   5.520  15.836  0.00  0.00    +0.000 A 
ATOM      2  N   UNL     1       7.393   5.367  14.676  0.00  0.00    +0.000 NA
ATOM      3  C   UNL     1       6.533   4.647  13.917  0.00  0.00    +0.000 A 
ATOM      4  N   UNL     1       5.385   4.319  14.505  0.00  0.00    +0.000 NA
ATOM      5  N   UNL     1       5.558   4.799  15.772  0.00  0.00    +0.000 N 
ENDROOT
BRANCH   5   6
ATOM      6  C   UNL     1       4.669   4.368  16.731  0.00  0.00    +0.000 A 
ATOM      7  S   UNL     1       4.421   2.670  16.969  0.00  0.00    +0.000 S 
ATOM      8  C   UNL     1       3.014   2.941  17.918  0.00  0.00    +0.000 A 
ATOM      9  C   UNL     1       2.840   4.303  18.094  0.00  0.00    +0.000 A 
ATOM     10  C   UNL     1       3.812   5.127  17.502  0.00  0.00    +0.000 A 
ATOM     11  C   UNL     1       1.697   4.798  18.887  0.00  0.00    +0.000 C 
ATOM     12  C   UNL     1       1.063   4.759  20.233  0.00  0.00    +0.000 C 
ATOM     13  C   UNL     1       0.516   3.326  20.438  0.00  0.00    +0.000 C 
ATOM     14  C   UNL     1       1.201   2.048  19.775  0.00  0.00    +0.000 C 
ATOM     15  C   UNL     1       2.061   1.858  18.437  0.00  0.00    +0.000 C 
BRANCH  10  16
ATOM     16  C   UNL     1       3.817   6.564  17.644  0.00  0.00    +0.000 C 
ATOM     17  N   UNL     1       3.717   7.713  17.759  0.00  0.00    +0.000 NA
ENDBRANCH  10  16
ENDBRANCH   5   6
BRANCH   1  23
ATOM     18  C   UNL     1       7.643   5.890  18.242  0.00  0.00    +0.000 A 
ATOM     19  C   UNL     1       8.273   6.754  19.153  0.00  0.00    +0.000 A 
ATOM     20  C   UNL     1       8.454   8.100  18.851  0.00  0.00    +0.000 A 
ATOM     21  C   UNL     1       8.025   8.598  17.631  0.00  0.00    +0.000 A 
ATOM     22  C   UNL     1       7.484   7.727  16.684  0.00  0.00    +0.000 A 
ATOM     23  C   UNL     1       7.317   6.350  16.946  0.00  0.00    +0.000 A 
BRANCH  18  25
ATOM     24  C   UNL     1       6.421   4.253  19.548  0.00  0.00    +0.000 C 
ATOM     25  O   UNL     1       7.361   4.589  18.537  0.00  0.00    +0.000 OA
ENDBRANCH  18  25
ENDBRANCH   1  23
TORSDOF 4
ENDMDL
