MODEL 1
REMARK VINA RESULT:      -6.8      0.000      0.000
REMARK  Name = 
REMARK  7 active torsions:
REMARK  status: ('A' for Active; 'I' for Inactive)
REMARK    1  A    between atoms: C_2  and  OXT_3
REMARK    2  A    between atoms: C_2  and  CA_4
REMARK    3  A    between atoms: C_8  and  C_9
REMARK    4  A    between atoms: C_14  and  C_15
REMARK    5  A    between atoms: C_21  and  O_22
REMARK    6  A    between atoms: O_22  and  C_23
REMARK    7  A    between atoms: C_23  and  C_24
REMARK                            x       y       z     vdW  Elec       q    Type
REMARK                         _______ _______ _______ _____ _____    ______ ____
ROOT
ATOM      1  C   UNL     1      -0.713  12.643  19.210  0.00  0.00    +0.000 A 
ATOM      2  C   UNL     1      -0.474  13.857  18.500  0.00  0.00    +0.000 A 
ATOM      3  C   UNL     1       0.390  14.858  18.950  0.00  0.00    +0.000 A 
ATOM      4  C   UNL     1       1.042  14.691  20.153  0.00  0.00    +0.000 A 
ATOM      5  C   UNL     1       0.830  13.520  20.888  0.00  0.00    +0.000 A 
ATOM      6  C   UNL     1      -0.013  12.460  20.443  0.00  0.00    +0.000 A 
ENDROOT
BRANCH   6   7
ATOM      7  C   UNL     1       0.028  11.200  21.266  0.00  0.00    +0.000 A 
ATOM      8  C   UNL     1       0.711  10.089  20.700  0.00  0.00    +0.000 A 
ATOM      9  C   UNL     1       0.777   8.852  21.335  0.00  0.00    +0.000 A 
ATOM     10 CL   UNL     1       1.681   7.571  20.629  0.00  0.00    +0.000 Cl
ATOM     11  C   UNL     1       0.112   8.654  22.530  0.00  0.00    +0.000 A 
ATOM     12  C   UNL     1      -0.547   9.726  23.130  0.00  0.00    +0.000 A 
ATOM     13  C   UNL     1      -0.548  11.009  22.546  0.00  0.00    +0.000 A 
BRANCH  13  14
ATOM     14  O   UNL     1      -1.096  12.104  23.172  0.00  0.00    +0.000 OA
BRANCH  14  15
ATOM     15  C   UNL     1      -2.525  12.235  23.129  0.00  0.00    +0.000 C 
BRANCH  15  16
ATOM     16  C   UNL     1      -2.940  13.428  22.308  0.00  0.00    +0.000 A 
ATOM     17  C   UNL     1      -2.215  14.624  22.303  0.00  0.00    +0.000 A 
ATOM     18  C   UNL     1      -2.675  15.724  21.578  0.00  0.00    +0.000 A 
ATOM     19  C   UNL     1      -3.868  15.648  20.862  0.00  0.00    +0.000 A 
ATOM     20  C   UNL     1      -4.601  14.468  20.859  0.00  0.00    +0.000 A 
ATOM     21  C   UNL     1      -4.138  13.371  21.586  0.00  0.00    +0.000 A 
ATOM     22  F   UNL     1      -4.870  12.248  21.595  0.00  0.00    +0.000 F 
ENDBRANCH  15  16
ENDBRANCH  14  15
ENDBRANCH  13  14
ENDBRANCH   6   7
BRANCH   1  27
ATOM     23  CA  UNL     1      -3.895  11.182  18.082  0.00  0.00    +0.000 A 
ATOM     24  C   UNL     1      -3.547  10.167  17.206  0.00  0.00    +0.000 A 
ATOM     25  C   UNL     1      -2.205   9.854  17.098  0.00  0.00    +0.000 A 
ATOM     26  C   UNL     1      -1.273  10.630  17.787  0.00  0.00    +0.000 A 
ATOM     27  C   UNL     1      -1.694  11.682  18.619  0.00  0.00    +0.000 A 
ATOM     28  N   UNL     1      -3.012  11.898  18.844  0.00  0.00    +0.000 NA
BRANCH  23  30
ATOM     29  O   UNL     1      -5.740  12.657  17.619  0.00  0.00    +0.000 OA
ATOM     30  C   UNL     1      -5.313  11.641  18.147  0.00  0.00    +0.000 C 
BRANCH  30  31
ATOM     31  OXT UNL     1      -6.057  10.805  18.904  0.00  0.00    +0.000 OA
ATOM     32  HXT UNL     1      -6.264  10.000  18.367  0.00  0.00    +0.000 HD
ENDBRANCH  30  31
ENDBRANCH  23  30
ENDBRANCH   1  27
TORSDOF 7
ENDMDL
MODEL 2
REMARK VINA RESULT:      -6.7      1.565      1.990
REMARK  Name = 
REMARK  7 active torsions:
REMARK  status: ('A' for Active; 'I' for Inactive)
REMARK    1  A    between atoms: C_2  and  OXT_3
REMARK    2  A    between atoms: C_2  and  CA_4
REMARK    3  A    between atoms: C_8  and  C_9
REMARK    4  A    between atoms: C_14  and  C_15
REMARK    5  A    between atoms: C_21  and  O_22
REMARK    6  A    between atoms: O_22  and  C_23
REMARK    7  A    between atoms: C_23  and  C_24
REMARK                            x       y       z     vdW  Elec       q    Type
REMARK                         _______ _______ _______ _____ _____    ______ ____
ROOT
ATOM      1  C   UNL     1      -0.407  13.028  19.286  0.00  0.00    +0.000 A 
ATOM      2  C   UNL     1      -0.285  14.404  18.933  0.00  0.00    +0.000 A 
ATOM      3  C   UNL     1       0.836  15.183  19.231  0.00  0.00    +0.000 A 
ATOM      4  C   UNL     1       1.884  14.612  19.919  0.00  0.00    +0.000 A 
ATOM      5  C   UNL     1       1.805  13.268  20.295  0.00  0.00    +0.000 A 
ATOM      6  C   UNL     1       0.695  12.432  19.976  0.00  0.00    +0.000 A 
ENDROOT
BRANCH   6   7
ATOM      7  C   UNL     1       0.864  10.968  20.289  0.00  0.00    +0.000 A 
ATOM      8  C   UNL     1       1.371  10.146  19.246  0.00  0.00    +0.000 A 
ATOM      9  C   UNL     1       1.525   8.770  19.390  0.00  0.00    +0.000 A 
ATOM     10 CL   UNL     1       2.212   7.844  18.115  0.00  0.00    +0.000 Cl
ATOM     11  C   UNL     1       1.121   8.149  20.557  0.00  0.00    +0.000 A 
ATOM     12  C   UNL     1       0.644   8.925  21.613  0.00  0.00    +0.000 A 
ATOM     13  C   UNL     1       0.565  10.329  21.517  0.00  0.00    +0.000 A 
BRANCH  13  14
ATOM     14  O   UNL     1       0.202  11.121  22.581  0.00  0.00    +0.000 OA
BRANCH  14  15
ATOM     15  C   UNL     1      -1.197  11.206  22.886  0.00  0.00    +0.000 C 
BRANCH  15  16
ATOM     16  C   UNL     1      -1.612  12.627  23.162  0.00  0.00    +0.000 A 
ATOM     17  C   UNL     1      -0.778  13.718  22.891  0.00  0.00    +0.000 A 
ATOM     18  C   UNL     1      -1.180  15.012  23.224  0.00  0.00    +0.000 A 
ATOM     19  C   UNL     1      -2.410  15.232  23.841  0.00  0.00    +0.000 A 
ATOM     20  C   UNL     1      -3.249  14.159  24.119  0.00  0.00    +0.000 A 
ATOM     21  C   UNL     1      -2.842  12.867  23.785  0.00  0.00    +0.000 A 
ATOM     22  F   UNL     1      -3.650  11.839  24.084  0.00  0.00    +0.000 F 
ENDBRANCH  15  16
ENDBRANCH  14  15
ENDBRANCH  13  14
ENDBRANCH   6   7
BRANCH   1  27
ATOM     23  CA  UNL     1      -3.957  12.062  19.313  0.00  0.00    +0.000 A 
ATOM     24  C   UNL     1      -4.174  11.415  18.106  0.00  0.00    +0.000 A 
ATOM     25  C   UNL     1      -3.069  11.156  17.318  0.00  0.00    +0.000 A 
ATOM     26  C   UNL     1      -1.824  11.639  17.719  0.00  0.00    +0.000 A 
ATOM     27  C   UNL     1      -1.685  12.337  18.932  0.00  0.00    +0.000 A 
ATOM     28  N   UNL     1      -2.734  12.464  19.779  0.00  0.00    +0.000 NA
BRANCH  23  30
ATOM     29  O   UNL     1      -5.242  12.240  21.339  0.00  0.00    +0.000 OA
ATOM     30  C   UNL     1      -5.124  12.473  20.145  0.00  0.00    +0.000 C 
BRANCH  30  31
ATOM     31  OXT UNL     1      -6.055  13.102  19.396  0.00  0.00    +0.000 OA
ATOM     32  HXT UNL     1      -5.594  13.573  18.657  0.00  0.00    +0.000 HD
ENDBRANCH  30  31
ENDBRANCH  23  30
ENDBRANCH   1  27
TORSDOF 7
ENDMDL
MODEL 3
REMARK VINA RESULT:      -6.7      8.652     11.651
REMARK  Name = 
REMARK  7 active torsions:
REMARK  status: ('A' for Active; 'I' for Inactive)
REMARK    1  A    between atoms: C_2  and  OXT_3
REMARK    2  A    between atoms: C_2  and  CA_4
REMARK    3  A    between atoms: C_8  and  C_9
REMARK    4  A    between atoms: C_14  and  C_15
REMARK    5  A    between atoms: C_21  and  O_22
REMARK    6  A    between atoms: O_22  and  C_23
REMARK    7  A    between atoms: C_23  and  C_24
REMARK                            x       y       z     vdW  Elec       q    Type
REMARK                         _______ _______ _______ _____ _____    ______ ____
ROOT
ATOM      1  C   UNL     1       6.662   5.162  15.741  0.00  0.00    +0.000 A 
ATOM      2  C   UNL     1       7.479   4.802  14.630  0.00  0.00    +0.000 A 
ATOM      3  C   UNL     1       6.975   4.273  13.439  0.00  0.00    +0.000 A 
ATOM      4  C   UNL     1       5.619   4.063  13.320  0.00  0.00    +0.000 A 
ATOM      5  C   UNL     1       4.780   4.393  14.388  0.00  0.00    +0.000 A 
ATOM      6  C   UNL     1       5.252   4.970  15.603  0.00  0.00    +0.000 A 
ENDROOT
BRANCH   6   7
ATOM      7  C   UNL     1       4.190   5.437  16.564  0.00  0.00    +0.000 A 
ATOM      8  C   UNL     1       4.113   6.837  16.800  0.00  0.00    +0.000 A 
ATOM      9  C   UNL     1       3.211   7.391  17.704  0.00  0.00    +0.000 A 
ATOM     10 CL   UNL     1       3.120   9.098  17.888  0.00  0.00    +0.000 Cl
ATOM     11  C   UNL     1       2.393   6.569  18.455  0.00  0.00    +0.000 A 
ATOM     12  C   UNL     1       2.421   5.193  18.234  0.00  0.00    +0.000 A 
ATOM     13  C   UNL     1       3.264   4.622  17.259  0.00  0.00    +0.000 A 
BRANCH  13  14
ATOM     14  O   UNL     1       3.228   3.282  16.947  0.00  0.00    +0.000 OA
BRANCH  14  15
ATOM     15  C   UNL     1       3.698   2.366  17.946  0.00  0.00    +0.000 C 
BRANCH  15  16
ATOM     16  C   UNL     1       2.846   2.422  19.186  0.00  0.00    +0.000 A 
ATOM     17  C   UNL     1       1.447   2.419  19.135  0.00  0.00    +0.000 A 
ATOM     18  C   UNL     1       0.699   2.540  20.308  0.00  0.00    +0.000 A 
ATOM     19  C   UNL     1       1.336   2.677  21.540  0.00  0.00    +0.000 A 
ATOM     20  C   UNL     1       2.724   2.684  21.606  0.00  0.00    +0.000 A 
ATOM     21  C   UNL     1       3.468   2.565  20.432  0.00  0.00    +0.000 A 
ATOM     22  F   UNL     1       4.806   2.601  20.510  0.00  0.00    +0.000 F 
ENDBRANCH  15  16
ENDBRANCH  14  15
ENDBRANCH  13  14
ENDBRANCH   6   7
BRANCH   1  27
ATOM     23  CA  UNL     1       8.120   7.504  18.176  0.00  0.00    +0.000 A 
ATOM     24  C   UNL     1       8.256   6.781  19.350  0.00  0.00    +0.000 A 
ATOM     25  C   UNL     1       7.996   5.424  19.294  0.00  0.00    +0.000 A 
ATOM     26  C   UNL     1       7.518   4.877  18.104  0.00  0.00    +0.000 A 
ATOM     27  C   UNL     1       7.351   5.682  16.963  0.00  0.00    +0.000 A 
ATOM     28  N   UNL     1       7.744   6.978  16.969  0.00  0.00    +0.000 NA
BRANCH  23  30
ATOM     29  O   UNL     1       7.733   9.757  17.425  0.00  0.00    +0.000 OA
ATOM     30  C   UNL     1       8.271   8.987  18.206  0.00  0.00    +0.000 C 
BRANCH  30  31
ATOM     31  OXT UNL     1       9.116   9.367  19.188  0.00  0.00    +0.000 OA
ATOM     32  HXT UNL     1       9.143  10.357  19.212  0.00  0.00    +0.000 HD
ENDBRANCH  30  31
ENDBRANCH  23  30
ENDBRANCH   1  27
TORSDOF 7
ENDMDL
MODEL 4
REMARK VINA RESULT:      -6.7      3.112      6.342
REMARK  Name = 
REMARK  7 active torsions:
REMARK  status: ('A' for Active; 'I' for Inactive)
REMARK    1  A    between atoms: C_2  and  OXT_3
REMARK    2  A    between atoms: C_2  and  CA_4
REMARK    3  A    between atoms: C_8  and  C_9
REMARK    4  A    between atoms: C_14  and  C_15
REMARK    5  A    between atoms: C_21  and  O_22
REMARK    6  A    between atoms: O_22  and  C_23
REMARK    7  A    between atoms: C_23  and  C_24
REMARK                            x       y       z     vdW  Elec       q    Type
REMARK                         _______ _______ _______ _____ _____    ______ ____
ROOT
ATOM      1  C   UNL     1       0.550  11.423  21.283  0.00  0.00    +0.000 A 
ATOM      2  C   UNL     1       0.954  10.062  21.150  0.00  0.00    +0.000 A 
ATOM      3  C   UNL     1       0.338   9.004  21.823  0.00  0.00    +0.000 A 
ATOM      4  C   UNL     1      -0.707   9.272  22.680  0.00  0.00    +0.000 A 
ATOM      5  C   UNL     1      -1.131  10.594  22.849  0.00  0.00    +0.000 A 
ATOM      6  C   UNL     1      -0.553  11.695  22.152  0.00  0.00    +0.000 A 
ENDROOT
BRANCH   6   7
ATOM      7  C   UNL     1      -1.258  13.016  22.310  0.00  0.00    +0.000 A 
ATOM      8  C   UNL     1      -1.115  13.671  23.563  0.00  0.00    +0.000 A 
ATOM      9  C   UNL     1      -1.758  14.871  23.854  0.00  0.00    +0.000 A 
ATOM     10 CL   UNL     1      -1.484  15.647  25.364  0.00  0.00    +0.000 Cl
ATOM     11  C   UNL     1      -2.618  15.435  22.932  0.00  0.00    +0.000 A 
ATOM     12  C   UNL     1      -2.764  14.837  21.681  0.00  0.00    +0.000 A 
ATOM     13  C   UNL     1      -2.052  13.670  21.336  0.00  0.00    +0.000 A 
BRANCH  13  14
ATOM     14  O   UNL     1      -2.096  13.126  20.074  0.00  0.00    +0.000 OA
BRANCH  14  15
ATOM     15  C   UNL     1      -3.235  12.316  19.750  0.00  0.00    +0.000 C 
BRANCH  15  16
ATOM     16  C   UNL     1      -2.959  11.434  18.560  0.00  0.00    +0.000 A 
ATOM     17  C   UNL     1      -1.823  10.622  18.476  0.00  0.00    +0.000 A 
ATOM     18  C   UNL     1      -1.576   9.872  17.325  0.00  0.00    +0.000 A 
ATOM     19  C   UNL     1      -2.451   9.932  16.242  0.00  0.00    +0.000 A 
ATOM     20  C   UNL     1      -3.583  10.736  16.309  0.00  0.00    +0.000 A 
ATOM     21  C   UNL     1      -3.825  11.485  17.462  0.00  0.00    +0.000 A 
ATOM     22  F   UNL     1      -4.907  12.276  17.500  0.00  0.00    +0.000 F 
ENDBRANCH  15  16
ENDBRANCH  14  15
ENDBRANCH  13  14
ENDBRANCH   6   7
BRANCH   1  27
ATOM     23  CA  UNL     1       3.031  14.030  20.515  0.00  0.00    +0.000 A 
ATOM     24  C   UNL     1       3.097  14.084  19.132  0.00  0.00    +0.000 A 
ATOM     25  C   UNL     1       2.177  13.334  18.424  0.00  0.00    +0.000 A 
ATOM     26  C   UNL     1       1.308  12.495  19.122  0.00  0.00    +0.000 A 
ATOM     27  C   UNL     1       1.332  12.450  20.527  0.00  0.00    +0.000 A 
ATOM     28  N   UNL     1       2.127  13.291  21.230  0.00  0.00    +0.000 NA
BRANCH  23  30
ATOM     29  O   UNL     1       5.002  15.366  20.862  0.00  0.00    +0.000 OA
ATOM     30  C   UNL     1       4.073  14.723  21.327  0.00  0.00    +0.000 C 
BRANCH  30  31
ATOM     31  OXT UNL     1       3.878  14.511  22.646  0.00  0.00    +0.000 OA
ATOM     32  HXT UNL     1       3.987  15.373  23.121  0.00  0.00    +0.000 HD
ENDBRANCH  30  31
ENDBRANCH  23  30
ENDBRANCH   1  27
TORSDOF 7
ENDMDL
MODEL 5
REMARK VINA RESULT:      -6.6      2.728      5.256
REMARK  Name = 
REMARK  7 active torsions:
REMARK  status: ('A' for Active; 'I' for Inactive)
REMARK    1  A    between atoms: C_2  and  OXT_3
REMARK    2  A    between atoms: C_2  and  CA_4
REMARK    3  A    between atoms: C_8  and  C_9
REMARK    4  A    between atoms: C_14  and  C_15
REMARK    5  A    between atoms: C_21  and  O_22
REMARK    6  A    between atoms: O_22  and  C_23
REMARK    7  A    between atoms: C_23  and  C_24
REMARK                            x       y       z     vdW  Elec       q    Type
REMARK                         _______ _______ _______ _____ _____    ______ ____
ROOT
ATOM      1  C   UNL     1       0.987  13.388  20.224  0.00  0.00    +0.000 A 
ATOM      2  C   UNL     1       2.129  14.001  19.630  0.00  0.00    +0.000 A 
ATOM      3  C   UNL     1       2.263  15.381  19.457  0.00  0.00    +0.000 A 
ATOM      4  C   UNL     1       1.238  16.210  19.859  0.00  0.00    +0.000 A 
ATOM      5  C   UNL     1       0.095  15.651  20.437  0.00  0.00    +0.000 A 
ATOM      6  C   UNL     1      -0.062  14.253  20.666  0.00  0.00    +0.000 A 
ENDROOT
BRANCH   6   7
ATOM      7  C   UNL     1      -1.269  13.850  21.471  0.00  0.00    +0.000 A 
ATOM      8  C   UNL     1      -1.323  14.309  22.815  0.00  0.00    +0.000 A 
ATOM      9  C   UNL     1      -2.358  13.965  23.680  0.00  0.00    +0.000 A 
ATOM     10 CL   UNL     1      -2.400  14.613  25.272  0.00  0.00    +0.000 Cl
ATOM     11  C   UNL     1      -3.349  13.098  23.259  0.00  0.00    +0.000 A 
ATOM     12  C   UNL     1      -3.346  12.648  21.939  0.00  0.00    +0.000 A 
ATOM     13  C   UNL     1      -2.355  13.058  21.024  0.00  0.00    +0.000 A 
BRANCH  13  14
ATOM     14  O   UNL     1      -2.394  12.715  19.693  0.00  0.00    +0.000 OA
BRANCH  14  15
ATOM     15  C   UNL     1      -3.604  12.116  19.207  0.00  0.00    +0.000 C 
BRANCH  15  16
ATOM     16  C   UNL     1      -3.348  11.291  17.973  0.00  0.00    +0.000 A 
ATOM     17  C   UNL     1      -2.287  10.382  17.885  0.00  0.00    +0.000 A 
ATOM     18  C   UNL     1      -2.051   9.687  16.698  0.00  0.00    +0.000 A 
ATOM     19  C   UNL     1      -2.860   9.899  15.583  0.00  0.00    +0.000 A 
ATOM     20  C   UNL     1      -3.916  10.800  15.654  0.00  0.00    +0.000 A 
ATOM     21  C   UNL     1      -4.148  11.493  16.843  0.00  0.00    +0.000 A 
ATOM     22  F   UNL     1      -5.154  12.379  16.886  0.00  0.00    +0.000 F 
ENDBRANCH  15  16
ENDBRANCH  14  15
ENDBRANCH  13  14
ENDBRANCH   6   7
BRANCH   1  27
ATOM     23  CA  UNL     1       0.492   9.986  21.536  0.00  0.00    +0.000 A 
ATOM     24  C   UNL     1       0.535   9.152  20.430  0.00  0.00    +0.000 A 
ATOM     25  C   UNL     1       0.890   9.720  19.221  0.00  0.00    +0.000 A 
ATOM     26  C   UNL     1       1.086  11.099  19.153  0.00  0.00    +0.000 A 
ATOM     27  C   UNL     1       0.973  11.895  20.307  0.00  0.00    +0.000 A 
ATOM     28  N   UNL     1       0.772  11.326  21.520  0.00  0.00    +0.000 NA
BRANCH  23  30
ATOM     29  O   UNL     1       0.374   9.839  23.935  0.00  0.00    +0.000 OA
ATOM     30  C   UNL     1      -0.001   9.453  22.838  0.00  0.00    +0.000 C 
BRANCH  30  31
ATOM     31  OXT UNL     1      -0.889   8.454  22.646  0.00  0.00    +0.000 OA
ATOM     32  HXT UNL     1      -0.699   8.031  21.771  0.00  0.00    +0.000 HD
ENDBRANCH  30  31
ENDBRANCH  23  30
ENDBRANCH   1  27
TORSDOF 7
ENDMDL
MODEL 6
REMARK VINA RESULT:      -6.6      3.144      6.410
REMARK  Name = 
REMARK  7 active torsions:
REMARK  status: ('A' for Active; 'I' for Inactive)
REMARK    1  A    between atoms: C_2  and  OXT_3
REMARK    2  A    between atoms: C_2  and  CA_4
REMARK    3  A    between atoms: C_8  and  C_9
REMARK    4  A    between atoms: C_14  and  C_15
REMARK    5  A    between atoms: C_21  and  O_22
REMARK    6  A    between atoms: O_22  and  C_23
REMARK    7  A    between atoms: C_23  and  C_24
REMARK                            x       y       z     vdW  Elec       q    Type
REMARK                         _______ _______ _______ _____ _____    ______ ____
ROOT
ATOM      1  C   UNL     1       0.611  11.343  21.323  0.00  0.00    +0.000 A 
ATOM      2  C   UNL     1       1.082   9.997  21.272  0.00  0.00    +0.000 A 
ATOM      3  C   UNL     1       0.491   8.945  21.976  0.00  0.00    +0.000 A 
ATOM      4  C   UNL     1      -0.594   9.204  22.784  0.00  0.00    +0.000 A 
ATOM      5  C   UNL     1      -1.084  10.511  22.872  0.00  0.00    +0.000 A 
ATOM      6  C   UNL     1      -0.533  11.603  22.140  0.00  0.00    +0.000 A 
ENDROOT
BRANCH   6   7
ATOM      7  C   UNL     1      -1.304  12.895  22.208  0.00  0.00    +0.000 A 
ATOM      8  C   UNL     1      -1.200  13.638  23.415  0.00  0.00    +0.000 A 
ATOM      9  C   UNL     1      -1.903  14.822  23.625  0.00  0.00    +0.000 A 
ATOM     10 CL   UNL     1      -1.676  15.709  25.080  0.00  0.00    +0.000 Cl
ATOM     11  C   UNL     1      -2.785  15.279  22.665  0.00  0.00    +0.000 A 
ATOM     12  C   UNL     1      -2.895  14.593  21.456  0.00  0.00    +0.000 A 
ATOM     13  C   UNL     1      -2.124  13.442  21.191  0.00  0.00    +0.000 A 
BRANCH  13  14
ATOM     14  O   UNL     1      -2.135  12.813  19.968  0.00  0.00    +0.000 OA
BRANCH  14  15
ATOM     15  C   UNL     1      -3.317  12.079  19.620  0.00  0.00    +0.000 C 
BRANCH  15  16
ATOM     16  C   UNL     1      -3.172  11.412  18.277  0.00  0.00    +0.000 A 
ATOM     17  C   UNL     1      -4.063  11.647  17.224  0.00  0.00    +0.000 A 
ATOM     18  C   UNL     1      -3.927  10.956  16.019  0.00  0.00    +0.000 A 
ATOM     19  C   UNL     1      -2.911  10.017  15.855  0.00  0.00    +0.000 A 
ATOM     20  C   UNL     1      -2.019   9.771  16.892  0.00  0.00    +0.000 A 
ATOM     21  C   UNL     1      -2.160  10.463  18.096  0.00  0.00    +0.000 A 
ATOM     22  F   UNL     1      -1.309  10.195  19.097  0.00  0.00    +0.000 F 
ENDBRANCH  15  16
ENDBRANCH  14  15
ENDBRANCH  13  14
ENDBRANCH   6   7
BRANCH   1  27
ATOM     23  CA  UNL     1       3.002  14.016  20.505  0.00  0.00    +0.000 A 
ATOM     24  C   UNL     1       3.105  14.012  19.123  0.00  0.00    +0.000 A 
ATOM     25  C   UNL     1       2.237  13.193  18.425  0.00  0.00    +0.000 A 
ATOM     26  C   UNL     1       1.384  12.350  19.136  0.00  0.00    +0.000 A 
ATOM     27  C   UNL     1       1.371  12.367  20.542  0.00  0.00    +0.000 A 
ATOM     28  N   UNL     1       2.111  13.271  21.228  0.00  0.00    +0.000 NA
BRANCH  23  30
ATOM     29  O   UNL     1       4.836  15.537  20.844  0.00  0.00    +0.000 OA
ATOM     30  C   UNL     1       3.992  14.787  21.311  0.00  0.00    +0.000 C 
BRANCH  30  31
ATOM     31  OXT UNL     1       3.860  14.514  22.627  0.00  0.00    +0.000 OA
ATOM     32  HXT UNL     1       4.486  13.783  22.859  0.00  0.00    +0.000 HD
ENDBRANCH  30  31
ENDBRANCH  23  30
ENDBRANCH   1  27
TORSDOF 7
ENDMDL
MODEL 7
REMARK VINA RESULT:      -6.6      8.375     11.699
REMARK  Name = 
REMARK  7 active torsions:
REMARK  status: ('A' for Active; 'I' for Inactive)
REMARK    1  A    between atoms: C_2  and  OXT_3
REMARK    2  A    between atoms: C_2  and  CA_4
REMARK    3  A    between atoms: C_8  and  C_9
REMARK    4  A    between atoms: C_14  and  C_15
REMARK    5  A    between atoms: C_21  and  O_22
REMARK    6  A    between atoms: O_22  and  C_23
REMARK    7  A    between atoms: C_23  and  C_24
REMARK                            x       y       z     vdW  Elec       q    Type
REMARK                         _______ _______ _______ _____ _____    ______ ____
ROOT
ATOM      1  C   UNL     1       2.557   4.420  18.655  0.00  0.00    +0.000 A 
ATOM      2  C   UNL     1       1.472   3.576  19.033  0.00  0.00    +0.000 A 
ATOM      3  C   UNL     1       1.534   2.181  19.013  0.00  0.00    +0.000 A 
ATOM      4  C   UNL     1       2.694   1.568  18.590  0.00  0.00    +0.000 A 
ATOM      5  C   UNL     1       3.781   2.356  18.201  0.00  0.00    +0.000 A 
ATOM      6  C   UNL     1       3.768   3.781  18.244  0.00  0.00    +0.000 A 
ENDROOT
BRANCH   6   7
ATOM      7  C   UNL     1       5.086   4.458  17.974  0.00  0.00    +0.000 A 
ATOM      8  C   UNL     1       5.877   4.792  19.107  0.00  0.00    +0.000 A 
ATOM      9  C   UNL     1       7.091   5.465  18.997  0.00  0.00    +0.000 A 
ATOM     10 CL   UNL     1       8.032   5.775  20.401  0.00  0.00    +0.000 Cl
ATOM     11  C   UNL     1       7.534   5.888  17.758  0.00  0.00    +0.000 A 
ATOM     12  C   UNL     1       6.800   5.556  16.620  0.00  0.00    +0.000 A 
ATOM     13  C   UNL     1       5.615   4.797  16.705  0.00  0.00    +0.000 A 
BRANCH  13  14
ATOM     14  O   UNL     1       4.935   4.365  15.590  0.00  0.00    +0.000 OA
BRANCH  14  15
ATOM     15  C   UNL     1       5.138   5.100  14.375  0.00  0.00    +0.000 C 
BRANCH  15  16
ATOM     16  C   UNL     1       5.627   4.203  13.268  0.00  0.00    +0.000 A 
ATOM     17  C   UNL     1       4.799   3.266  12.641  0.00  0.00    +0.000 A 
ATOM     18  C   UNL     1       5.314   2.411  11.665  0.00  0.00    +0.000 A 
ATOM     19  C   UNL     1       6.661   2.472  11.314  0.00  0.00    +0.000 A 
ATOM     20  C   UNL     1       7.497   3.396  11.929  0.00  0.00    +0.000 A 
ATOM     21  C   UNL     1       6.978   4.248  12.904  0.00  0.00    +0.000 A 
ATOM     22  F   UNL     1       7.803   5.115  13.508  0.00  0.00    +0.000 F 
ENDBRANCH  15  16
ENDBRANCH  14  15
ENDBRANCH  13  14
ENDBRANCH   6   7
BRANCH   1  27
ATOM     23  CA  UNL     1       1.649   7.763  19.896  0.00  0.00    +0.000 A 
ATOM     24  C   UNL     1       2.231   8.657  19.012  0.00  0.00    +0.000 A 
ATOM     25  C   UNL     1       2.822   8.134  17.877  0.00  0.00    +0.000 A 
ATOM     26  C   UNL     1       2.892   6.749  17.729  0.00  0.00    +0.000 A 
ATOM     27  C   UNL     1       2.326   5.897  18.694  0.00  0.00    +0.000 A 
ATOM     28  N   UNL     1       1.618   6.404  19.731  0.00  0.00    +0.000 NA
BRANCH  23  30
ATOM     29  O   UNL     1      -0.084   8.344  21.461  0.00  0.00    +0.000 OA
ATOM     30  C   UNL     1       1.105   8.261  21.192  0.00  0.00    +0.000 C 
BRANCH  30  31
ATOM     31  OXT UNL     1       2.102   8.649  22.017  0.00  0.00    +0.000 OA
ATOM     32  HXT UNL     1       2.469   7.844  22.463  0.00  0.00    +0.000 HD
ENDBRANCH  30  31
ENDBRANCH  23  30
ENDBRANCH   1  27
TORSDOF 7
ENDMDL
MODEL 8
REMARK VINA RESULT:      -6.6      2.510      5.741
REMARK  Name = 
REMARK  7 active torsions:
REMARK  status: ('A' for Active; 'I' for Inactive)
REMARK    1  A    between atoms: C_2  and  OXT_3
REMARK    2  A    between atoms: C_2  and  CA_4
REMARK    3  A    between atoms: C_8  and  C_9
REMARK    4  A    between atoms: C_14  and  C_15
REMARK    5  A    between atoms: C_21  and  O_22
REMARK    6  A    between atoms: O_22  and  C_23
REMARK    7  A    between atoms: C_23  and  C_24
REMARK                            x       y       z     vdW  Elec       q    Type
REMARK                         _______ _______ _______ _____ _____    ______ ____
ROOT
ATOM      1  C   UNL     1      -0.610  11.204  22.431  0.00  0.00    +0.000 A 
ATOM      2  C   UNL     1      -0.545  10.019  23.223  0.00  0.00    +0.000 A 
ATOM      3  C   UNL     1       0.197   8.890  22.866  0.00  0.00    +0.000 A 
ATOM      4  C   UNL     1       0.896   8.896  21.678  0.00  0.00    +0.000 A 
ATOM      5  C   UNL     1       0.854  10.033  20.865  0.00  0.00    +0.000 A 
ATOM      6  C   UNL     1       0.140  11.217  21.214  0.00  0.00    +0.000 A 
ENDROOT
BRANCH   6   7
ATOM      7  C   UNL     1       0.362  12.406  20.317  0.00  0.00    +0.000 A 
ATOM      8  C   UNL     1       1.683  12.927  20.261  0.00  0.00    +0.000 A 
ATOM      9  C   UNL     1       2.009  14.053  19.511  0.00  0.00    +0.000 A 
ATOM     10 CL   UNL     1       3.641  14.588  19.430  0.00  0.00    +0.000 Cl
ATOM     11  C   UNL     1       1.020  14.742  18.836  0.00  0.00    +0.000 A 
ATOM     12  C   UNL     1      -0.283  14.247  18.844  0.00  0.00    +0.000 A 
ATOM     13  C   UNL     1      -0.614  13.058  19.525  0.00  0.00    +0.000 A 
BRANCH  13  14
ATOM     14  O   UNL     1      -1.866  12.494  19.456  0.00  0.00    +0.000 OA
BRANCH  14  15
ATOM     15  C   UNL     1      -1.937  11.094  19.146  0.00  0.00    +0.000 C 
BRANCH  15  16
ATOM     16  C   UNL     1      -2.605  10.861  17.816  0.00  0.00    +0.000 A 
ATOM     17  C   UNL     1      -1.981  10.166  16.775  0.00  0.00    +0.000 A 
ATOM     18  C   UNL     1      -2.614  10.032  15.538  0.00  0.00    +0.000 A 
ATOM     19  C   UNL     1      -3.868  10.598  15.322  0.00  0.00    +0.000 A 
ATOM     20  C   UNL     1      -4.501  11.294  16.346  0.00  0.00    +0.000 A 
ATOM     21  C   UNL     1      -3.864  11.426  17.581  0.00  0.00    +0.000 A 
ATOM     22  F   UNL     1      -4.475  12.123  18.550  0.00  0.00    +0.000 F 
ENDBRANCH  15  16
ENDBRANCH  14  15
ENDBRANCH  13  14
ENDBRANCH   6   7
BRANCH   1  27
ATOM     23  CA  UNL     1      -3.482  12.986  23.884  0.00  0.00    +0.000 A 
ATOM     24  C   UNL     1      -3.004  14.239  24.231  0.00  0.00    +0.000 A 
ATOM     25  C   UNL     1      -1.720  14.561  23.833  0.00  0.00    +0.000 A 
ATOM     26  C   UNL     1      -0.945  13.589  23.201  0.00  0.00    +0.000 A 
ATOM     27  C   UNL     1      -1.477  12.316  22.928  0.00  0.00    +0.000 A 
ATOM     28  N   UNL     1      -2.779  12.044  23.181  0.00  0.00    +0.000 NA
BRANCH  23  30
ATOM     29  O   UNL     1      -5.819  12.440  23.705  0.00  0.00    +0.000 OA
ATOM     30  C   UNL     1      -4.813  12.542  24.390  0.00  0.00    +0.000 C 
BRANCH  30  31
ATOM     31  OXT UNL     1      -4.770  12.307  25.720  0.00  0.00    +0.000 OA
ATOM     32  HXT UNL     1      -5.157  13.090  26.187  0.00  0.00    +0.000 HD
ENDBRANCH  30  31
ENDBRANCH  23  30
ENDBRANCH   1  27
TORSDOF 7
ENDMDL
MODEL 9
REMARK VINA RESULT:      -6.5      2.896      4.994
REMARK  Name = 
REMARK  7 active torsions:
REMARK  status: ('A' for Active; 'I' for Inactive)
REMARK    1  A    between atoms: C_2  and  OXT_3
REMARK    2  A    between atoms: C_2  and  CA_4
REMARK    3  A    between atoms: C_8  and  C_9
REMARK    4  A    between atoms: C_14  and  C_15
REMARK    5  A    between atoms: C_21  and  O_22
REMARK    6  A    between atoms: O_22  and  C_23
REMARK    7  A    between atoms: C_23  and  C_24
REMARK                            x       y       z     vdW  Elec       q    Type
REMARK                         _______ _______ _______ _____ _____    ______ ____
ROOT
ATOM      1  C   UNL     1       0.626  12.139  19.790  0.00  0.00    +0.000 A 
ATOM      2  C   UNL     1       1.715  12.955  20.214  0.00  0.00    +0.000 A 
ATOM      3  C   UNL     1       1.882  14.286  19.823  0.00  0.00    +0.000 A 
ATOM      4  C   UNL     1       0.964  14.852  18.965  0.00  0.00    +0.000 A 
ATOM      5  C   UNL     1      -0.115  14.085  18.515  0.00  0.00    +0.000 A 
ATOM      6  C   UNL     1      -0.339  12.738  18.922  0.00  0.00    +0.000 A 
ENDROOT
BRANCH   6   7
ATOM      7  C   UNL     1      -1.650  12.132  18.493  0.00  0.00    +0.000 A 
ATOM      8  C   UNL     1      -1.717  11.627  17.166  0.00  0.00    +0.000 A 
ATOM      9  C   UNL     1      -2.884  11.089  16.631  0.00  0.00    +0.000 A 
ATOM     10 CL   UNL     1      -2.876  10.430  15.043  0.00  0.00    +0.000 Cl
ATOM     11  C   UNL     1      -4.048  11.090  17.375  0.00  0.00    +0.000 A 
ATOM     12  C   UNL     1      -4.017  11.551  18.691  0.00  0.00    +0.000 A 
ATOM     13  C   UNL     1      -2.823  12.017  19.279  0.00  0.00    +0.000 A 
BRANCH  13  14
ATOM     14  O   UNL     1      -2.744  12.373  20.605  0.00  0.00    +0.000 OA
BRANCH  14  15
ATOM     15  C   UNL     1      -3.336  13.624  20.982  0.00  0.00    +0.000 C 
BRANCH  15  16
ATOM     16  C   UNL     1      -2.289  14.617  21.415  0.00  0.00    +0.000 A 
ATOM     17  C   UNL     1      -2.206  15.904  20.871  0.00  0.00    +0.000 A 
ATOM     18  C   UNL     1      -1.177  16.766  21.256  0.00  0.00    +0.000 A 
ATOM     19  C   UNL     1      -0.216  16.351  22.175  0.00  0.00    +0.000 A 
ATOM     20  C   UNL     1      -0.283  15.076  22.722  0.00  0.00    +0.000 A 
ATOM     21  C   UNL     1      -1.313  14.217  22.334  0.00  0.00    +0.000 A 
ATOM     22  F   UNL     1      -1.349  12.980  22.850  0.00  0.00    +0.000 F 
ENDBRANCH  15  16
ENDBRANCH  14  15
ENDBRANCH  13  14
ENDBRANCH   6   7
BRANCH   1  27
ATOM     23  CA  UNL     1       1.374   8.544  20.031  0.00  0.00    +0.000 A 
ATOM     24  C   UNL     1       0.945   8.160  21.292  0.00  0.00    +0.000 A 
ATOM     25  C   UNL     1       0.245   9.092  22.035  0.00  0.00    +0.000 A 
ATOM     26  C   UNL     1       0.095  10.383  21.531  0.00  0.00    +0.000 A 
ATOM     27  C   UNL     1       0.604  10.720  20.264  0.00  0.00    +0.000 A 
ATOM     28  N   UNL     1       1.160   9.774  19.470  0.00  0.00    +0.000 NA
BRANCH  23  30
ATOM     29  O   UNL     1       2.603   6.518  19.612  0.00  0.00    +0.000 OA
ATOM     30  C   UNL     1       2.236   7.622  19.237  0.00  0.00    +0.000 C 
BRANCH  30  31
ATOM     31  OXT UNL     1       2.593   8.185  18.063  0.00  0.00    +0.000 OA
ATOM     32  HXT UNL     1       3.484   8.602  18.175  0.00  0.00    +0.000 HD
ENDBRANCH  30  31
ENDBRANCH  23  30
ENDBRANCH   1  27
TORSDOF 7
ENDMDL
