MODEL 1
REMARK VINA RESULT:      -7.6      0.000      0.000
REMARK  Name = 
REMARK  5 active torsions:
REMARK  status: ('A' for Active; 'I' for Inactive)
REMARK    1  A    between atoms: C_1  and  N_2
REMARK    2  A    between atoms: N_4  and  C_5
REMARK    3  A    between atoms: C_5  and  C_7
REMARK    4  A    between atoms: C_7  and  O_8
REMARK    5  A    between atoms: O_8  and  C_9
REMARK                            x       y       z     vdW  Elec       q    Type
REMARK                         _______ _______ _______ _____ _____    ______ ____
ROOT
ATOM      1  C   UNL     1       4.179   6.076  17.543  0.00  0.00    +0.000 C 
ATOM      2  N   UNL     1       4.187   4.816  18.253  0.00  0.00    +0.000 N 
ATOM      3  C   UNL     1       5.260   4.281  18.959  0.00  0.00    +0.000 A 
ATOM      4  N   UNL     1       6.532   4.465  19.003  0.00  0.00    +0.000 NA
ATOM      5  S   UNL     1       4.650   2.987  20.068  0.00  0.00    +0.000 S 
ATOM      6  C   UNL     1       3.030   3.074  19.339  0.00  0.00    +0.000 A 
ATOM      7  C   UNL     1       1.932   2.272  19.615  0.00  0.00    +0.000 A 
ATOM      8  C   UNL     1       0.746   2.503  18.916  0.00  0.00    +0.000 A 
ATOM      9  C   UNL     1       0.680   3.518  17.954  0.00  0.00    +0.000 A 
ATOM     10  C   UNL     1       1.796   4.320  17.690  0.00  0.00    +0.000 A 
ATOM     11  C   UNL     1       2.980   4.109  18.393  0.00  0.00    +0.000 A 
ENDROOT
BRANCH   4  12
ATOM     12  C   UNL     1       7.153   5.255  18.065  0.00  0.00    +0.000 C 
ATOM     13  O   UNL     1       7.341   6.464  18.179  0.00  0.00    +0.000 OA
BRANCH  12  14
ATOM     14  C   UNL     1       7.524   4.544  16.763  0.00  0.00    +0.000 C 
BRANCH  14  15
ATOM     15  O   UNL     1       7.310   5.459  15.695  0.00  0.00    +0.000 OA
BRANCH  15  16
ATOM     16  C   UNL     1       7.079   4.934  14.456  0.00  0.00    +0.000 A 
ATOM     17  C   UNL     1       5.971   4.087  14.387  0.00  0.00    +0.000 A 
ATOM     18  C   UNL     1       5.597   3.498  13.178  0.00  0.00    +0.000 A 
ATOM     19  C   UNL     1       6.323   3.773  12.022  0.00  0.00    +0.000 A 
ATOM     20  C   UNL     1       7.420   4.632  12.080  0.00  0.00    +0.000 A 
ATOM     21  C   UNL     1       7.802   5.214  13.296  0.00  0.00    +0.000 A 
ENDBRANCH  15  16
ENDBRANCH  14  15
ENDBRANCH  12  14
ENDBRANCH   4  12
TORSDOF 4
ENDMDL
MODEL 2
REMARK VINA RESULT:      -7.4      0.131      1.056
REMARK  Name = 
REMARK  5 active torsions:
REMARK  status: ('A' for Active; 'I' for Inactive)
REMARK    1  A    between atoms: C_1  and  N_2
REMARK    2  A    between atoms: N_4  and  C_5
REMARK    3  A    between atoms: C_5  and  C_7
REMARK    4  A    between atoms: C_7  and  O_8
REMARK    5  A    between atoms: O_8  and  C_9
REMARK                            x       y       z     vdW  Elec       q    Type
REMARK                         _______ _______ _______ _____ _____    ______ ____
ROOT
ATOM      1  C   UNL     1       4.206   6.054  17.472  0.00  0.00    +0.000 C 
ATOM      2  N   UNL     1       4.229   4.817  18.219  0.00  0.00    +0.000 N 
ATOM      3  C   UNL     1       5.303   4.323  18.954  0.00  0.00    +0.000 A 
ATOM      4  N   UNL     1       6.570   4.532  19.007  0.00  0.00    +0.000 NA
ATOM      5  S   UNL     1       4.703   3.051  20.095  0.00  0.00    +0.000 S 
ATOM      6  C   UNL     1       3.091   3.086  19.343  0.00  0.00    +0.000 A 
ATOM      7  C   UNL     1       2.004   2.273  19.631  0.00  0.00    +0.000 A 
ATOM      8  C   UNL     1       0.823   2.460  18.911  0.00  0.00    +0.000 A 
ATOM      9  C   UNL     1       0.751   3.445  17.918  0.00  0.00    +0.000 A 
ATOM     10  C   UNL     1       1.855   4.259  17.644  0.00  0.00    +0.000 A 
ATOM     11  C   UNL     1       3.033   4.091  18.367  0.00  0.00    +0.000 A 
ENDROOT
BRANCH   4  12
ATOM     12  C   UNL     1       7.189   5.304  18.054  0.00  0.00    +0.000 C 
ATOM     13  O   UNL     1       7.381   6.514  18.148  0.00  0.00    +0.000 OA
BRANCH  12  14
ATOM     14  C   UNL     1       7.550   4.572  16.762  0.00  0.00    +0.000 C 
BRANCH  14  15
ATOM     15  O   UNL     1       7.309   5.463  15.678  0.00  0.00    +0.000 OA
BRANCH  15  16
ATOM     16  C   UNL     1       6.978   4.911  14.475  0.00  0.00    +0.000 A 
ATOM     17  C   UNL     1       7.816   5.280  13.420  0.00  0.00    +0.000 A 
ATOM     18  C   UNL     1       7.615   4.772  12.137  0.00  0.00    +0.000 A 
ATOM     19  C   UNL     1       6.579   3.871  11.905  0.00  0.00    +0.000 A 
ATOM     20  C   UNL     1       5.748   3.483  12.956  0.00  0.00    +0.000 A 
ATOM     21  C   UNL     1       5.944   4.002  14.243  0.00  0.00    +0.000 A 
ENDBRANCH  15  16
ENDBRANCH  14  15
ENDBRANCH  12  14
ENDBRANCH   4  12
TORSDOF 4
ENDMDL
MODEL 3
REMARK VINA RESULT:      -7.0      1.655      2.004
REMARK  Name = 
REMARK  5 active torsions:
REMARK  status: ('A' for Active; 'I' for Inactive)
REMARK    1  A    between atoms: C_1  and  N_2
REMARK    2  A    between atoms: N_4  and  C_5
REMARK    3  A    between atoms: C_5  and  C_7
REMARK    4  A    between atoms: C_7  and  O_8
REMARK    5  A    between atoms: O_8  and  C_9
REMARK                            x       y       z     vdW  Elec       q    Type
REMARK                         _______ _______ _______ _____ _____    ______ ____
ROOT
ATOM      1  C   UNL     1       4.561   3.723  17.193  0.00  0.00    +0.000 C 
ATOM      2  N   UNL     1       3.882   4.559  18.158  0.00  0.00    +0.000 N 
ATOM      3  C   UNL     1       3.921   5.949  18.208  0.00  0.00    +0.000 A 
ATOM      4  N   UNL     1       4.675   6.878  17.736  0.00  0.00    +0.000 NA
ATOM      5  S   UNL     1       2.549   6.542  19.231  0.00  0.00    +0.000 S 
ATOM      6  C   UNL     1       2.154   4.881  19.728  0.00  0.00    +0.000 A 
ATOM      7  C   UNL     1       1.192   4.476  20.643  0.00  0.00    +0.000 A 
ATOM      8  C   UNL     1       1.049   3.111  20.899  0.00  0.00    +0.000 A 
ATOM      9  C   UNL     1       1.868   2.182  20.247  0.00  0.00    +0.000 A 
ATOM     10  C   UNL     1       2.831   2.606  19.325  0.00  0.00    +0.000 A 
ATOM     11  C   UNL     1       2.971   3.964  19.049  0.00  0.00    +0.000 A 
ENDROOT
BRANCH   4  12
ATOM     12  C   UNL     1       5.868   6.565  17.132  0.00  0.00    +0.000 C 
ATOM     13  O   UNL     1       6.951   6.498  17.710  0.00  0.00    +0.000 OA
BRANCH  12  14
ATOM     14  C   UNL     1       5.803   6.400  15.614  0.00  0.00    +0.000 C 
BRANCH  14  15
ATOM     15  O   UNL     1       6.942   5.649  15.210  0.00  0.00    +0.000 OA
BRANCH  15  16
ATOM     16  C   UNL     1       6.842   4.930  14.055  0.00  0.00    +0.000 A 
ATOM     17  C   UNL     1       5.729   4.088  13.994  0.00  0.00    +0.000 A 
ATOM     18  C   UNL     1       5.482   3.312  12.862  0.00  0.00    +0.000 A 
ATOM     19  C   UNL     1       6.342   3.389  11.770  0.00  0.00    +0.000 A 
ATOM     20  C   UNL     1       7.446   4.241  11.815  0.00  0.00    +0.000 A 
ATOM     21  C   UNL     1       7.700   5.012  12.957  0.00  0.00    +0.000 A 
ENDBRANCH  15  16
ENDBRANCH  14  15
ENDBRANCH  12  14
ENDBRANCH   4  12
TORSDOF 4
ENDMDL
MODEL 4
REMARK VINA RESULT:      -6.9      1.436      2.090
REMARK  Name = 
REMARK  5 active torsions:
REMARK  status: ('A' for Active; 'I' for Inactive)
REMARK    1  A    between atoms: C_1  and  N_2
REMARK    2  A    between atoms: N_4  and  C_5
REMARK    3  A    between atoms: C_5  and  C_7
REMARK    4  A    between atoms: C_7  and  O_8
REMARK    5  A    between atoms: O_8  and  C_9
REMARK                            x       y       z     vdW  Elec       q    Type
REMARK                         _______ _______ _______ _____ _____    ______ ____
ROOT
ATOM      1  C   UNL     1       5.654   4.007  19.331  0.00  0.00    +0.000 C 
ATOM      2  N   UNL     1       4.286   4.292  18.959  0.00  0.00    +0.000 N 
ATOM      3  C   UNL     1       3.868   4.902  17.780  0.00  0.00    +0.000 A 
ATOM      4  N   UNL     1       4.407   5.624  16.862  0.00  0.00    +0.000 NA
ATOM      5  S   UNL     1       2.101   4.582  17.543  0.00  0.00    +0.000 S 
ATOM      6  C   UNL     1       1.979   3.857  19.163  0.00  0.00    +0.000 A 
ATOM      7  C   UNL     1       0.835   3.402  19.803  0.00  0.00    +0.000 A 
ATOM      8  C   UNL     1       0.957   2.873  21.089  0.00  0.00    +0.000 A 
ATOM      9  C   UNL     1       2.209   2.814  21.711  0.00  0.00    +0.000 A 
ATOM     10  C   UNL     1       3.354   3.273  21.050  0.00  0.00    +0.000 A 
ATOM     11  C   UNL     1       3.246   3.789  19.761  0.00  0.00    +0.000 A 
ENDROOT
BRANCH   4  12
ATOM     12  C   UNL     1       5.676   6.124  17.026  0.00  0.00    +0.000 C 
ATOM     13  O   UNL     1       5.937   7.254  17.434  0.00  0.00    +0.000 OA
BRANCH  12  14
ATOM     14  C   UNL     1       6.802   5.204  16.556  0.00  0.00    +0.000 C 
BRANCH  14  15
ATOM     15  O   UNL     1       7.320   5.739  15.343  0.00  0.00    +0.000 OA
BRANCH  15  16
ATOM     16  C   UNL     1       7.093   5.031  14.198  0.00  0.00    +0.000 A 
ATOM     17  C   UNL     1       6.041   4.116  14.284  0.00  0.00    +0.000 A 
ATOM     18  C   UNL     1       5.677   3.341  13.183  0.00  0.00    +0.000 A 
ATOM     19  C   UNL     1       6.354   3.495  11.976  0.00  0.00    +0.000 A 
ATOM     20  C   UNL     1       7.393   4.419  11.876  0.00  0.00    +0.000 A 
ATOM     21  C   UNL     1       7.766   5.189  12.986  0.00  0.00    +0.000 A 
ENDBRANCH  15  16
ENDBRANCH  14  15
ENDBRANCH  12  14
ENDBRANCH   4  12
TORSDOF 4
ENDMDL
MODEL 5
REMARK VINA RESULT:      -6.9      1.645      2.201
REMARK  Name = 
REMARK  5 active torsions:
REMARK  status: ('A' for Active; 'I' for Inactive)
REMARK    1  A    between atoms: C_1  and  N_2
REMARK    2  A    between atoms: N_4  and  C_5
REMARK    3  A    between atoms: C_5  and  C_7
REMARK    4  A    between atoms: C_7  and  O_8
REMARK    5  A    between atoms: O_8  and  C_9
REMARK                            x       y       z     vdW  Elec       q    Type
REMARK                         _______ _______ _______ _____ _____    ______ ____
ROOT
ATOM      1  C   UNL     1       5.654   5.384  19.157  0.00  0.00    +0.000 C 
ATOM      2  N   UNL     1       4.637   4.521  18.598  0.00  0.00    +0.000 N 
ATOM      3  C   UNL     1       4.813   3.615  17.556  0.00  0.00    +0.000 A 
ATOM      4  N   UNL     1       5.673   3.429  16.619  0.00  0.00    +0.000 NA
ATOM      5  S   UNL     1       3.438   2.437  17.559  0.00  0.00    +0.000 S 
ATOM      6  C   UNL     1       2.586   3.379  18.804  0.00  0.00    +0.000 A 
ATOM      7  C   UNL     1       1.319   3.148  19.323  0.00  0.00    +0.000 A 
ATOM      8  C   UNL     1       0.828   4.022  20.295  0.00  0.00    +0.000 A 
ATOM      9  C   UNL     1       1.601   5.108  20.722  0.00  0.00    +0.000 A 
ATOM     10  C   UNL     1       2.877   5.325  20.191  0.00  0.00    +0.000 A 
ATOM     11  C   UNL     1       3.384   4.450  19.233  0.00  0.00    +0.000 A 
ENDROOT
BRANCH   4  12
ATOM     12  C   UNL     1       6.640   4.371  16.365  0.00  0.00    +0.000 C 
ATOM     13  O   UNL     1       7.726   4.434  16.937  0.00  0.00    +0.000 OA
BRANCH  12  14
ATOM     14  C   UNL     1       6.242   5.455  15.363  0.00  0.00    +0.000 C 
BRANCH  14  15
ATOM     15  O   UNL     1       6.952   5.208  14.154  0.00  0.00    +0.000 OA
BRANCH  15  16
ATOM     16  C   UNL     1       6.378   4.361  13.252  0.00  0.00    +0.000 A 
ATOM     17  C   UNL     1       7.290   3.628  12.488  0.00  0.00    +0.000 A 
ATOM     18  C   UNL     1       6.848   2.701  11.543  0.00  0.00    +0.000 A 
ATOM     19  C   UNL     1       5.483   2.488  11.371  0.00  0.00    +0.000 A 
ATOM     20  C   UNL     1       4.566   3.203  12.141  0.00  0.00    +0.000 A 
ATOM     21  C   UNL     1       5.010   4.141  13.083  0.00  0.00    +0.000 A 
ENDBRANCH  15  16
ENDBRANCH  14  15
ENDBRANCH  12  14
ENDBRANCH   4  12
TORSDOF 4
ENDMDL
MODEL 6
REMARK VINA RESULT:      -6.8      1.626      2.203
REMARK  Name = 
REMARK  5 active torsions:
REMARK  status: ('A' for Active; 'I' for Inactive)
REMARK    1  A    between atoms: C_1  and  N_2
REMARK    2  A    between atoms: N_4  and  C_5
REMARK    3  A    between atoms: C_5  and  C_7
REMARK    4  A    between atoms: C_7  and  O_8
REMARK    5  A    between atoms: O_8  and  C_9
REMARK                            x       y       z     vdW  Elec       q    Type
REMARK                         _______ _______ _______ _____ _____    ______ ____
ROOT
ATOM      1  C   UNL     1       4.424   3.642  17.104  0.00  0.00    +0.000 C 
ATOM      2  N   UNL     1       3.817   4.425  18.157  0.00  0.00    +0.000 N 
ATOM      3  C   UNL     1       3.929   5.803  18.321  0.00  0.00    +0.000 A 
ATOM      4  N   UNL     1       4.715   6.730  17.903  0.00  0.00    +0.000 NA
ATOM      5  S   UNL     1       2.620   6.373  19.435  0.00  0.00    +0.000 S 
ATOM      6  C   UNL     1       2.154   4.697  19.804  0.00  0.00    +0.000 A 
ATOM      7  C   UNL     1       1.200   4.263  20.714  0.00  0.00    +0.000 A 
ATOM      8  C   UNL     1       0.994   2.890  20.861  0.00  0.00    +0.000 A 
ATOM      9  C   UNL     1       1.745   1.981  20.107  0.00  0.00    +0.000 A 
ATOM     10  C   UNL     1       2.701   2.435  19.192  0.00  0.00    +0.000 A 
ATOM     11  C   UNL     1       2.903   3.803  19.026  0.00  0.00    +0.000 A 
ENDROOT
BRANCH   4  12
ATOM     12  C   UNL     1       5.874   6.412  17.236  0.00  0.00    +0.000 C 
ATOM     13  O   UNL     1       6.962   6.218  17.773  0.00  0.00    +0.000 OA
BRANCH  12  14
ATOM     14  C   UNL     1       5.765   6.415  15.711  0.00  0.00    +0.000 C 
BRANCH  14  15
ATOM     15  O   UNL     1       6.870   5.681  15.197  0.00  0.00    +0.000 OA
BRANCH  15  16
ATOM     16  C   UNL     1       6.662   4.940  14.070  0.00  0.00    +0.000 A 
ATOM     17  C   UNL     1       7.585   5.174  13.047  0.00  0.00    +0.000 A 
ATOM     18  C   UNL     1       7.512   4.469  11.846  0.00  0.00    +0.000 A 
ATOM     19  C   UNL     1       6.523   3.506  11.669  0.00  0.00    +0.000 A 
ATOM     20  C   UNL     1       5.608   3.254  12.691  0.00  0.00    +0.000 A 
ATOM     21  C   UNL     1       5.675   3.970  13.894  0.00  0.00    +0.000 A 
ENDBRANCH  15  16
ENDBRANCH  14  15
ENDBRANCH  12  14
ENDBRANCH   4  12
TORSDOF 4
ENDMDL
MODEL 7
REMARK VINA RESULT:      -6.8      3.129      6.407
REMARK  Name = 
REMARK  5 active torsions:
REMARK  status: ('A' for Active; 'I' for Inactive)
REMARK    1  A    between atoms: C_1  and  N_2
REMARK    2  A    between atoms: N_4  and  C_5
REMARK    3  A    between atoms: C_5  and  C_7
REMARK    4  A    between atoms: C_7  and  O_8
REMARK    5  A    between atoms: O_8  and  C_9
REMARK                            x       y       z     vdW  Elec       q    Type
REMARK                         _______ _______ _______ _____ _____    ______ ____
ROOT
ATOM      1  C   UNL     1       3.533   2.692  17.769  0.00  0.00    +0.000 C 
ATOM      2  N   UNL     1       4.467   3.789  17.892  0.00  0.00    +0.000 N 
ATOM      3  C   UNL     1       4.761   4.489  19.058  0.00  0.00    +0.000 A 
ATOM      4  N   UNL     1       4.211   4.655  20.208  0.00  0.00    +0.000 NA
ATOM      5  S   UNL     1       6.313   5.392  18.830  0.00  0.00    +0.000 S 
ATOM      6  C   UNL     1       6.346   4.972  17.102  0.00  0.00    +0.000 A 
ATOM      7  C   UNL     1       7.257   5.394  16.144  0.00  0.00    +0.000 A 
ATOM      8  C   UNL     1       7.095   4.951  14.829  0.00  0.00    +0.000 A 
ATOM      9  C   UNL     1       6.029   4.108  14.496  0.00  0.00    +0.000 A 
ATOM     10  C   UNL     1       5.121   3.689  15.475  0.00  0.00    +0.000 A 
ATOM     11  C   UNL     1       5.282   4.111  16.792  0.00  0.00    +0.000 A 
ENDROOT
BRANCH   4  12
ATOM     12  C   UNL     1       2.931   4.211  20.439  0.00  0.00    +0.000 C 
ATOM     13  O   UNL     1       2.645   3.117  20.920  0.00  0.00    +0.000 OA
BRANCH  12  14
ATOM     14  C   UNL     1       1.824   5.143  19.949  0.00  0.00    +0.000 C 
BRANCH  14  15
ATOM     15  O   UNL     1       1.984   6.392  20.611  0.00  0.00    +0.000 OA
BRANCH  15  16
ATOM     16  C   UNL     1       1.885   7.522  19.852  0.00  0.00    +0.000 A 
ATOM     17  C   UNL     1       2.464   7.419  18.585  0.00  0.00    +0.000 A 
ATOM     18  C   UNL     1       2.416   8.486  17.689  0.00  0.00    +0.000 A 
ATOM     19  C   UNL     1       1.766   9.663  18.051  0.00  0.00    +0.000 A 
ATOM     20  C   UNL     1       1.169   9.768  19.307  0.00  0.00    +0.000 A 
ATOM     21  C   UNL     1       1.228   8.699  20.211  0.00  0.00    +0.000 A 
ENDBRANCH  15  16
ENDBRANCH  14  15
ENDBRANCH  12  14
ENDBRANCH   4  12
TORSDOF 4
ENDMDL
MODEL 8
REMARK VINA RESULT:      -6.8      3.096      6.329
REMARK  Name = 
REMARK  5 active torsions:
REMARK  status: ('A' for Active; 'I' for Inactive)
REMARK    1  A    between atoms: C_1  and  N_2
REMARK    2  A    between atoms: N_4  and  C_5
REMARK    3  A    between atoms: C_5  and  C_7
REMARK    4  A    between atoms: C_7  and  O_8
REMARK    5  A    between atoms: O_8  and  C_9
REMARK                            x       y       z     vdW  Elec       q    Type
REMARK                         _______ _______ _______ _____ _____    ______ ____
ROOT
ATOM      1  C   UNL     1       3.425   2.553  17.641  0.00  0.00    +0.000 C 
ATOM      2  N   UNL     1       4.355   3.643  17.832  0.00  0.00    +0.000 N 
ATOM      3  C   UNL     1       4.646   4.271  19.039  0.00  0.00    +0.000 A 
ATOM      4  N   UNL     1       4.094   4.366  20.197  0.00  0.00    +0.000 NA
ATOM      5  S   UNL     1       6.196   5.190  18.870  0.00  0.00    +0.000 S 
ATOM      6  C   UNL     1       6.233   4.877  17.119  0.00  0.00    +0.000 A 
ATOM      7  C   UNL     1       7.145   5.358  16.190  0.00  0.00    +0.000 A 
ATOM      8  C   UNL     1       6.986   4.997  14.851  0.00  0.00    +0.000 A 
ATOM      9  C   UNL     1       5.923   4.173  14.465  0.00  0.00    +0.000 A 
ATOM     10  C   UNL     1       5.014   3.693  15.414  0.00  0.00    +0.000 A 
ATOM     11  C   UNL     1       5.172   4.034  16.755  0.00  0.00    +0.000 A 
ENDROOT
BRANCH   4  12
ATOM     12  C   UNL     1       2.815   3.905  20.397  0.00  0.00    +0.000 C 
ATOM     13  O   UNL     1       2.530   2.782  20.807  0.00  0.00    +0.000 OA
BRANCH  12  14
ATOM     14  C   UNL     1       1.705   4.864  19.966  0.00  0.00    +0.000 C 
BRANCH  14  15
ATOM     15  O   UNL     1       1.997   6.141  20.522  0.00  0.00    +0.000 OA
BRANCH  15  16
ATOM     16  C   UNL     1       1.938   7.218  19.685  0.00  0.00    +0.000 A 
ATOM     17  C   UNL     1       1.322   8.344  20.237  0.00  0.00    +0.000 A 
ATOM     18  C   UNL     1       1.213   9.527  19.507  0.00  0.00    +0.000 A 
ATOM     19  C   UNL     1       1.743   9.597  18.221  0.00  0.00    +0.000 A 
ATOM     20  C   UNL     1       2.375   8.483  17.670  0.00  0.00    +0.000 A 
ATOM     21  C   UNL     1       2.474   7.291  18.399  0.00  0.00    +0.000 A 
ENDBRANCH  15  16
ENDBRANCH  14  15
ENDBRANCH  12  14
ENDBRANCH   4  12
TORSDOF 4
ENDMDL
MODEL 9
REMARK VINA RESULT:      -6.7      4.153      6.713
REMARK  Name = 
REMARK  5 active torsions:
REMARK  status: ('A' for Active; 'I' for Inactive)
REMARK    1  A    between atoms: C_1  and  N_2
REMARK    2  A    between atoms: N_4  and  C_5
REMARK    3  A    between atoms: C_5  and  C_7
REMARK    4  A    between atoms: C_7  and  O_8
REMARK    5  A    between atoms: O_8  and  C_9
REMARK                            x       y       z     vdW  Elec       q    Type
REMARK                         _______ _______ _______ _____ _____    ______ ____
ROOT
ATOM      1  C   UNL     1       1.967   6.253  20.510  0.00  0.00    +0.000 C 
ATOM      2  N   UNL     1       1.983   7.523  19.819  0.00  0.00    +0.000 N 
ATOM      3  C   UNL     1       2.460   7.750  18.531  0.00  0.00    +0.000 A 
ATOM      4  N   UNL     1       3.231   7.141  17.703  0.00  0.00    +0.000 NA
ATOM      5  S   UNL     1       1.814   9.332  17.932  0.00  0.00    +0.000 S 
ATOM      6  C   UNL     1       1.142   9.706  19.535  0.00  0.00    +0.000 A 
ATOM      7  C   UNL     1       0.511  10.875  19.938  0.00  0.00    +0.000 A 
ATOM      8  C   UNL     1       0.063  10.970  21.257  0.00  0.00    +0.000 A 
ATOM      9  C   UNL     1       0.258   9.907  22.146  0.00  0.00    +0.000 A 
ATOM     10  C   UNL     1       0.892   8.734  21.723  0.00  0.00    +0.000 A 
ATOM     11  C   UNL     1       1.329   8.622  20.405  0.00  0.00    +0.000 A 
ENDROOT
BRANCH   4  12
ATOM     12  C   UNL     1       3.961   6.049  18.106  0.00  0.00    +0.000 C 
ATOM     13  O   UNL     1       4.834   6.069  18.972  0.00  0.00    +0.000 OA
BRANCH  12  14
ATOM     14  C   UNL     1       3.699   4.766  17.316  0.00  0.00    +0.000 C 
BRANCH  14  15
ATOM     15  O   UNL     1       3.993   3.665  18.169  0.00  0.00    +0.000 OA
BRANCH  15  16
ATOM     16  C   UNL     1       3.029   3.285  19.056  0.00  0.00    +0.000 A 
ATOM     17  C   UNL     1       3.500   3.032  20.347  0.00  0.00    +0.000 A 
ATOM     18  C   UNL     1       2.624   2.660  21.367  0.00  0.00    +0.000 A 
ATOM     19  C   UNL     1       1.260   2.558  21.103  0.00  0.00    +0.000 A 
ATOM     20  C   UNL     1       0.779   2.826  19.822  0.00  0.00    +0.000 A 
ATOM     21  C   UNL     1       1.661   3.189  18.795  0.00  0.00    +0.000 A 
ENDBRANCH  15  16
ENDBRANCH  14  15
ENDBRANCH  12  14
ENDBRANCH   4  12
TORSDOF 4
ENDMDL
