MODEL 1
REMARK VINA RESULT:      -8.2      0.000      0.000
REMARK  Name = 
REMARK  4 active torsions:
REMARK  status: ('A' for Active; 'I' for Inactive)
REMARK    1  A    between atoms: S_2  and  C_4
REMARK    2  A    between atoms: S_2  and  N_12
REMARK    3  A    between atoms: C_4  and  C_5
REMARK    4  A    between atoms: C_16  and  C_17
REMARK                            x       y       z     vdW  Elec       q    Type
REMARK                         _______ _______ _______ _____ _____    ______ ____
ROOT
ATOM      1  N   UNL     1       2.262   4.087  18.955  0.00  0.00    +0.000 NA
ATOM      2  C   UNL     1       1.345   3.108  18.293  0.00  0.00    +0.000 C 
ATOM      3  C   UNL     1       1.787   1.750  18.792  0.00  0.00    +0.000 C 
ATOM      4  C   UNL     1       3.296   1.867  18.797  0.00  0.00    +0.000 C 
ATOM      5  C   UNL     1       3.617   3.373  18.997  0.00  0.00    +0.000 C 
ENDROOT
BRANCH   5   6
ATOM      6  C   UNL     1       4.546   3.864  17.905  0.00  0.00    +0.000 A 
ATOM      7  N   UNL     1       4.527   3.456  16.647  0.00  0.00    +0.000 NA
ATOM      8  N   UNL     1       5.511   4.098  15.954  0.00  0.00    +0.000 NA
ATOM      9  C   UNL     1       6.139   4.901  16.784  0.00  0.00    +0.000 A 
ATOM     10  N   UNL     1       5.617   4.725  18.047  0.00  0.00    +0.000 N 
ATOM     11  C   UNL     1       6.093   5.305  19.283  0.00  0.00    +0.000 C 
ATOM     12  C   UNL     1       7.587   5.618  19.329  0.00  0.00    +0.000 C 
ATOM     13  C   UNL     1       7.997   6.880  18.570  0.00  0.00    +0.000 C 
ATOM     14  C   UNL     1       7.290   7.100  17.235  0.00  0.00    +0.000 C 
ATOM     15  C   UNL     1       7.226   5.840  16.383  0.00  0.00    +0.000 C 
ENDBRANCH   5   6
BRANCH   1  17
ATOM     16  O   UNL     1       2.161   3.591  21.449  0.00  0.00    +0.000 OA
ATOM     17  S   UNL     1       1.761   4.626  20.521  0.00  0.00    +0.000 S 
ATOM     18  O   UNL     1       0.368   5.008  20.409  0.00  0.00    +0.000 OA
BRANCH  17  19
ATOM     19  C   UNL     1       2.757   6.109  20.826  0.00  0.00    +0.000 C 
BRANCH  19  20
ATOM     20  C   UNL     1       2.271   7.217  19.923  0.00  0.00    +0.000 A 
ATOM     21  C   UNL     1       2.611   7.245  18.561  0.00  0.00    +0.000 A 
ATOM     22  C   UNL     1       2.144   8.270  17.726  0.00  0.00    +0.000 A 
ATOM     23  C   UNL     1       1.329   9.279  18.242  0.00  0.00    +0.000 A 
ATOM     24  C   UNL     1       0.986   9.262  19.591  0.00  0.00    +0.000 A 
ATOM     25  C   UNL     1       1.458   8.241  20.417  0.00  0.00    +0.000 A 
ATOM     26  F   UNL     1       1.134   8.260  21.717  0.00  0.00    +0.000 F 
ENDBRANCH  19  20
ENDBRANCH  17  19
ENDBRANCH   1  17
TORSDOF 4
ENDMDL
MODEL 2
REMARK VINA RESULT:      -8.0      0.949      1.334
REMARK  Name = 
REMARK  4 active torsions:
REMARK  status: ('A' for Active; 'I' for Inactive)
REMARK    1  A    between atoms: S_2  and  C_4
REMARK    2  A    between atoms: S_2  and  N_12
REMARK    3  A    between atoms: C_4  and  C_5
REMARK    4  A    between atoms: C_16  and  C_17
REMARK                            x       y       z     vdW  Elec       q    Type
REMARK                         _______ _______ _______ _____ _____    ______ ____
ROOT
ATOM      1  N   UNL     1       2.229   4.339  18.929  0.00  0.00    +0.000 NA
ATOM      2  C   UNL     1       1.191   3.515  18.236  0.00  0.00    +0.000 C 
ATOM      3  C   UNL     1       1.424   2.099  18.716  0.00  0.00    +0.000 C 
ATOM      4  C   UNL     1       2.934   1.996  18.744  0.00  0.00    +0.000 C 
ATOM      5  C   UNL     1       3.466   3.436  18.976  0.00  0.00    +0.000 C 
ENDROOT
BRANCH   5   6
ATOM      6  C   UNL     1       4.474   3.805  17.906  0.00  0.00    +0.000 A 
ATOM      7  N   UNL     1       4.525   3.281  16.693  0.00  0.00    +0.000 NA
ATOM      8  N   UNL     1       5.565   3.836  16.009  0.00  0.00    +0.000 NA
ATOM      9  C   UNL     1       6.159   4.703  16.799  0.00  0.00    +0.000 A 
ATOM     10  N   UNL     1       5.554   4.656  18.037  0.00  0.00    +0.000 N 
ATOM     11  C   UNL     1       5.964   5.342  19.242  0.00  0.00    +0.000 C 
ATOM     12  C   UNL     1       7.460   5.632  19.356  0.00  0.00    +0.000 C 
ATOM     13  C   UNL     1       7.947   6.808  18.511  0.00  0.00    +0.000 C 
ATOM     14  C   UNL     1       7.332   6.914  17.118  0.00  0.00    +0.000 C 
ATOM     15  C   UNL     1       7.291   5.580  16.385  0.00  0.00    +0.000 C 
ENDBRANCH   5   6
BRANCH   1  17
ATOM     16  O   UNL     1       2.251   3.926  21.440  0.00  0.00    +0.000 OA
ATOM     17  S   UNL     1       1.787   4.920  20.498  0.00  0.00    +0.000 S 
ATOM     18  O   UNL     1       0.381   5.267  20.436  0.00  0.00    +0.000 OA
BRANCH  17  19
ATOM     19  C   UNL     1       2.760   6.434  20.709  0.00  0.00    +0.000 C 
BRANCH  19  20
ATOM     20  C   UNL     1       2.086   7.555  19.957  0.00  0.00    +0.000 A 
ATOM     21  C   UNL     1       1.181   8.417  20.597  0.00  0.00    +0.000 A 
ATOM     22  C   UNL     1       0.569   9.465  19.894  0.00  0.00    +0.000 A 
ATOM     23  C   UNL     1       0.855   9.666  18.543  0.00  0.00    +0.000 A 
ATOM     24  C   UNL     1       1.750   8.817  17.897  0.00  0.00    +0.000 A 
ATOM     25  C   UNL     1       2.352   7.773  18.602  0.00  0.00    +0.000 A 
ATOM     26  F   UNL     1       3.191   6.955  17.952  0.00  0.00    +0.000 F 
ENDBRANCH  19  20
ENDBRANCH  17  19
ENDBRANCH   1  17
TORSDOF 4
ENDMDL
MODEL 3
REMARK VINA RESULT:      -7.9      3.645      5.674
REMARK  Name = 
REMARK  4 active torsions:
REMARK  status: ('A' for Active; 'I' for Inactive)
REMARK    1  A    between atoms: S_2  and  C_4
REMARK    2  A    between atoms: S_2  and  N_12
REMARK    3  A    between atoms: C_4  and  C_5
REMARK    4  A    between atoms: C_16  and  C_17
REMARK                            x       y       z     vdW  Elec       q    Type
REMARK                         _______ _______ _______ _____ _____    ______ ____
ROOT
ATOM      1  N   UNL     1       6.150   4.378  16.863  0.00  0.00    +0.000 NA
ATOM      2  C   UNL     1       7.255   4.528  17.860  0.00  0.00    +0.000 C 
ATOM      3  C   UNL     1       7.328   6.011  18.152  0.00  0.00    +0.000 C 
ATOM      4  C   UNL     1       7.114   6.634  16.789  0.00  0.00    +0.000 C 
ATOM      5  C   UNL     1       6.268   5.620  15.973  0.00  0.00    +0.000 C 
ENDROOT
BRANCH   5   6
ATOM      6  C   UNL     1       6.947   5.306  14.655  0.00  0.00    +0.000 A 
ATOM      7  N   UNL     1       8.069   5.859  14.225  0.00  0.00    +0.000 NA
ATOM      8  N   UNL     1       8.376   5.350  12.998  0.00  0.00    +0.000 NA
ATOM      9  C   UNL     1       7.443   4.484  12.668  0.00  0.00    +0.000 A 
ATOM     10  N   UNL     1       6.476   4.485  13.649  0.00  0.00    +0.000 N 
ATOM     11  C   UNL     1       5.210   3.785  13.636  0.00  0.00    +0.000 C 
ATOM     12  C   UNL     1       4.611   3.539  12.253  0.00  0.00    +0.000 C 
ATOM     13  C   UNL     1       5.259   2.397  11.472  0.00  0.00    +0.000 C 
ATOM     14  C   UNL     1       6.779   2.304  11.588  0.00  0.00    +0.000 C 
ATOM     15  C   UNL     1       7.469   3.651  11.432  0.00  0.00    +0.000 C 
ENDBRANCH   5   6
BRANCH   1  17
ATOM     16  O   UNL     1       4.133   2.866  17.213  0.00  0.00    +0.000 OA
ATOM     17  S   UNL     1       4.565   4.208  17.537  0.00  0.00    +0.000 S 
ATOM     18  O   UNL     1       3.794   5.351  17.091  0.00  0.00    +0.000 OA
BRANCH  17  19
ATOM     19  C   UNL     1       4.821   4.331  19.327  0.00  0.00    +0.000 C 
BRANCH  19  20
ATOM     20  C   UNL     1       3.556   3.904  20.030  0.00  0.00    +0.000 A 
ATOM     21  C   UNL     1       2.397   4.696  19.985  0.00  0.00    +0.000 A 
ATOM     22  C   UNL     1       1.222   4.285  20.630  0.00  0.00    +0.000 A 
ATOM     23  C   UNL     1       1.190   3.077  21.328  0.00  0.00    +0.000 A 
ATOM     24  C   UNL     1       2.333   2.283  21.381  0.00  0.00    +0.000 A 
ATOM     25  C   UNL     1       3.500   2.700  20.740  0.00  0.00    +0.000 A 
ATOM     26  F   UNL     1       4.595   1.931  20.826  0.00  0.00    +0.000 F 
ENDBRANCH  19  20
ENDBRANCH  17  19
ENDBRANCH   1  17
TORSDOF 4
ENDMDL
MODEL 4
REMARK VINA RESULT:      -7.8      4.442      7.422
REMARK  Name = 
REMARK  4 active torsions:
REMARK  status: ('A' for Active; 'I' for Inactive)
REMARK    1  A    between atoms: S_2  and  C_4
REMARK    2  A    between atoms: S_2  and  N_12
REMARK    3  A    between atoms: C_4  and  C_5
REMARK    4  A    between atoms: C_16  and  C_17
REMARK                            x       y       z     vdW  Elec       q    Type
REMARK                         _______ _______ _______ _____ _____    ______ ____
ROOT
ATOM      1  N   UNL     1       5.785   5.611  16.875  0.00  0.00    +0.000 NA
ATOM      2  C   UNL     1       6.691   6.759  17.190  0.00  0.00    +0.000 C 
ATOM      3  C   UNL     1       7.603   6.255  18.286  0.00  0.00    +0.000 C 
ATOM      4  C   UNL     1       6.668   5.445  19.159  0.00  0.00    +0.000 C 
ATOM      5  C   UNL     1       5.531   4.942  18.230  0.00  0.00    +0.000 C 
ENDROOT
BRANCH   5   6
ATOM      6  C   UNL     1       4.178   5.322  18.800  0.00  0.00    +0.000 A 
ATOM      7  N   UNL     1       3.629   6.523  18.726  0.00  0.00    +0.000 NA
ATOM      8  N   UNL     1       2.421   6.502  19.357  0.00  0.00    +0.000 NA
ATOM      9  C   UNL     1       2.223   5.288  19.823  0.00  0.00    +0.000 A 
ATOM     10  N   UNL     1       3.345   4.530  19.566  0.00  0.00    +0.000 N 
ATOM     11  C   UNL     1       3.616   3.182  20.013  0.00  0.00    +0.000 C 
ATOM     12  C   UNL     1       2.956   2.783  21.332  0.00  0.00    +0.000 C 
ATOM     13  C   UNL     1       1.466   2.456  21.226  0.00  0.00    +0.000 C 
ATOM     14  C   UNL     1       0.661   3.367  20.302  0.00  0.00    +0.000 C 
ATOM     15  C   UNL     1       0.974   4.842  20.503  0.00  0.00    +0.000 C 
ENDBRANCH   5   6
BRANCH   1  17
ATOM     16  O   UNL     1       5.799   3.212  16.024  0.00  0.00    +0.000 OA
ATOM     17  S   UNL     1       6.390   4.492  15.700  0.00  0.00    +0.000 S 
ATOM     18  O   UNL     1       7.830   4.647  15.675  0.00  0.00    +0.000 OA
BRANCH  17  19
ATOM     19  C   UNL     1       5.705   5.078  14.128  0.00  0.00    +0.000 C 
BRANCH  19  20
ATOM     20  C   UNL     1       6.047   4.082  13.047  0.00  0.00    +0.000 A 
ATOM     21  C   UNL     1       5.159   3.049  12.704  0.00  0.00    +0.000 A 
ATOM     22  C   UNL     1       5.479   2.137  11.689  0.00  0.00    +0.000 A 
ATOM     23  C   UNL     1       6.689   2.245  11.003  0.00  0.00    +0.000 A 
ATOM     24  C   UNL     1       7.578   3.263  11.335  0.00  0.00    +0.000 A 
ATOM     25  C   UNL     1       7.255   4.166  12.349  0.00  0.00    +0.000 A 
ATOM     26  F   UNL     1       8.138   5.123  12.666  0.00  0.00    +0.000 F 
ENDBRANCH  19  20
ENDBRANCH  17  19
ENDBRANCH   1  17
TORSDOF 4
ENDMDL
MODEL 5
REMARK VINA RESULT:      -7.7      3.303      5.288
REMARK  Name = 
REMARK  4 active torsions:
REMARK  status: ('A' for Active; 'I' for Inactive)
REMARK    1  A    between atoms: S_2  and  C_4
REMARK    2  A    between atoms: S_2  and  N_12
REMARK    3  A    between atoms: C_4  and  C_5
REMARK    4  A    between atoms: C_16  and  C_17
REMARK                            x       y       z     vdW  Elec       q    Type
REMARK                         _______ _______ _______ _____ _____    ______ ____
ROOT
ATOM      1  N   UNL     1       6.580   4.296  17.103  0.00  0.00    +0.000 NA
ATOM      2  C   UNL     1       7.630   4.881  17.993  0.00  0.00    +0.000 C 
ATOM      3  C   UNL     1       7.227   6.327  18.183  0.00  0.00    +0.000 C 
ATOM      4  C   UNL     1       6.742   6.727  16.807  0.00  0.00    +0.000 C 
ATOM      5  C   UNL     1       6.231   5.427  16.130  0.00  0.00    +0.000 C 
ENDROOT
BRANCH   5   6
ATOM      6  C   UNL     1       6.898   5.236  14.782  0.00  0.00    +0.000 A 
ATOM      7  N   UNL     1       7.982   5.873  14.371  0.00  0.00    +0.000 NA
ATOM      8  N   UNL     1       8.290   5.464  13.107  0.00  0.00    +0.000 NA
ATOM      9  C   UNL     1       7.395   4.575  12.736  0.00  0.00    +0.000 A 
ATOM     10  N   UNL     1       6.449   4.460  13.731  0.00  0.00    +0.000 N 
ATOM     11  C   UNL     1       5.220   3.698  13.693  0.00  0.00    +0.000 C 
ATOM     12  C   UNL     1       4.606   3.513  12.306  0.00  0.00    +0.000 C 
ATOM     13  C   UNL     1       5.296   2.461  11.439  0.00  0.00    +0.000 C 
ATOM     14  C   UNL     1       6.820   2.439  11.523  0.00  0.00    +0.000 C 
ATOM     15  C   UNL     1       7.438   3.828  11.446  0.00  0.00    +0.000 C 
ENDBRANCH   5   6
BRANCH   1  17
ATOM     16  O   UNL     1       5.502   3.682  19.325  0.00  0.00    +0.000 OA
ATOM     17  S   UNL     1       5.181   3.680  17.915  0.00  0.00    +0.000 S 
ATOM     18  O   UNL     1       4.819   2.445  17.250  0.00  0.00    +0.000 OA
BRANCH  17  19
ATOM     19  C   UNL     1       3.897   4.919  17.599  0.00  0.00    +0.000 C 
BRANCH  19  20
ATOM     20  C   UNL     1       2.783   4.733  18.601  0.00  0.00    +0.000 A 
ATOM     21  C   UNL     1       1.905   3.640  18.516  0.00  0.00    +0.000 A 
ATOM     22  C   UNL     1       0.882   3.468  19.459  0.00  0.00    +0.000 A 
ATOM     23  C   UNL     1       0.724   4.383  20.499  0.00  0.00    +0.000 A 
ATOM     24  C   UNL     1       1.588   5.471  20.594  0.00  0.00    +0.000 A 
ATOM     25  C   UNL     1       2.602   5.639  19.650  0.00  0.00    +0.000 A 
ATOM     26  F   UNL     1       3.406   6.707  19.748  0.00  0.00    +0.000 F 
ENDBRANCH  19  20
ENDBRANCH  17  19
ENDBRANCH   1  17
TORSDOF 4
ENDMDL
MODEL 6
REMARK VINA RESULT:      -7.6      3.865      6.885
REMARK  Name = 
REMARK  4 active torsions:
REMARK  status: ('A' for Active; 'I' for Inactive)
REMARK    1  A    between atoms: S_2  and  C_4
REMARK    2  A    between atoms: S_2  and  N_12
REMARK    3  A    between atoms: C_4  and  C_5
REMARK    4  A    between atoms: C_16  and  C_17
REMARK                            x       y       z     vdW  Elec       q    Type
REMARK                         _______ _______ _______ _____ _____    ______ ____
ROOT
ATOM      1  N   UNL     1       5.102   5.751  17.868  0.00  0.00    +0.000 NA
ATOM      2  C   UNL     1       5.359   4.320  18.223  0.00  0.00    +0.000 C 
ATOM      3  C   UNL     1       4.416   3.520  17.351  0.00  0.00    +0.000 C 
ATOM      4  C   UNL     1       3.149   4.348  17.374  0.00  0.00    +0.000 C 
ATOM      5  C   UNL     1       3.592   5.817  17.616  0.00  0.00    +0.000 C 
ENDROOT
BRANCH   5   6
ATOM      6  C   UNL     1       2.849   6.403  18.799  0.00  0.00    +0.000 A 
ATOM      7  N   UNL     1       2.621   5.779  19.942  0.00  0.00    +0.000 NA
ATOM      8  N   UNL     1       1.914   6.602  20.769  0.00  0.00    +0.000 NA
ATOM      9  C   UNL     1       1.703   7.734  20.136  0.00  0.00    +0.000 A 
ATOM     10  N   UNL     1       2.205   7.624  18.857  0.00  0.00    +0.000 N 
ATOM     11  C   UNL     1       2.077   8.578  17.777  0.00  0.00    +0.000 C 
ATOM     12  C   UNL     1       0.825   9.453  17.819  0.00  0.00    +0.000 C 
ATOM     13  C   UNL     1       0.880  10.595  18.832  0.00  0.00    +0.000 C 
ATOM     14  C   UNL     1       1.521  10.250  20.174  0.00  0.00    +0.000 C 
ATOM     15  C   UNL     1       1.036   8.923  20.740  0.00  0.00    +0.000 C 
ENDBRANCH   5   6
BRANCH   1  17
ATOM     16  O   UNL     1       6.803   7.452  17.038  0.00  0.00    +0.000 OA
ATOM     17  S   UNL     1       6.013   6.355  16.526  0.00  0.00    +0.000 S 
ATOM     18  O   UNL     1       5.074   6.573  15.445  0.00  0.00    +0.000 OA
BRANCH  17  19
ATOM     19  C   UNL     1       7.118   4.989  16.081  0.00  0.00    +0.000 C 
BRANCH  19  20
ATOM     20  C   UNL     1       6.873   4.613  14.640  0.00  0.00    +0.000 A 
ATOM     21  C   UNL     1       5.821   3.755  14.283  0.00  0.00    +0.000 A 
ATOM     22  C   UNL     1       5.592   3.422  12.940  0.00  0.00    +0.000 A 
ATOM     23  C   UNL     1       6.411   3.943  11.938  0.00  0.00    +0.000 A 
ATOM     24  C   UNL     1       7.458   4.794  12.280  0.00  0.00    +0.000 A 
ATOM     25  C   UNL     1       7.683   5.118  13.619  0.00  0.00    +0.000 A 
ATOM     26  F   UNL     1       8.713   5.920  13.926  0.00  0.00    +0.000 F 
ENDBRANCH  19  20
ENDBRANCH  17  19
ENDBRANCH   1  17
TORSDOF 4
ENDMDL
MODEL 7
REMARK VINA RESULT:      -7.6      3.653      6.811
REMARK  Name = 
REMARK  4 active torsions:
REMARK  status: ('A' for Active; 'I' for Inactive)
REMARK    1  A    between atoms: S_2  and  C_4
REMARK    2  A    between atoms: S_2  and  N_12
REMARK    3  A    between atoms: C_4  and  C_5
REMARK    4  A    between atoms: C_16  and  C_17
REMARK                            x       y       z     vdW  Elec       q    Type
REMARK                         _______ _______ _______ _____ _____    ______ ____
ROOT
ATOM      1  N   UNL     1       5.066   5.846  18.028  0.00  0.00    +0.000 NA
ATOM      2  C   UNL     1       5.353   4.443  18.459  0.00  0.00    +0.000 C 
ATOM      3  C   UNL     1       4.438   3.576  17.622  0.00  0.00    +0.000 C 
ATOM      4  C   UNL     1       3.152   4.373  17.591  0.00  0.00    +0.000 C 
ATOM      5  C   UNL     1       3.557   5.862  17.760  0.00  0.00    +0.000 C 
ENDROOT
BRANCH   5   6
ATOM      6  C   UNL     1       2.789   6.491  18.905  0.00  0.00    +0.000 A 
ATOM      7  N   UNL     1       2.531   5.906  20.063  0.00  0.00    +0.000 NA
ATOM      8  N   UNL     1       1.809   6.759  20.845  0.00  0.00    +0.000 NA
ATOM      9  C   UNL     1       1.619   7.871  20.169  0.00  0.00    +0.000 A 
ATOM     10  N   UNL     1       2.150   7.716  18.907  0.00  0.00    +0.000 N 
ATOM     11  C   UNL     1       2.053   8.634  17.794  0.00  0.00    +0.000 C 
ATOM     12  C   UNL     1       0.805   9.515  17.776  0.00  0.00    +0.000 C 
ATOM     13  C   UNL     1       0.841  10.690  18.753  0.00  0.00    +0.000 C 
ATOM     14  C   UNL     1       1.448  10.387  20.120  0.00  0.00    +0.000 C 
ATOM     15  C   UNL     1       0.943   9.082  20.718  0.00  0.00    +0.000 C 
ENDBRANCH   5   6
BRANCH   1  17
ATOM     16  O   UNL     1       6.763   7.519  17.134  0.00  0.00    +0.000 OA
ATOM     17  S   UNL     1       5.975   6.402  16.664  0.00  0.00    +0.000 S 
ATOM     18  O   UNL     1       5.034   6.578  15.576  0.00  0.00    +0.000 OA
BRANCH  17  19
ATOM     19  C   UNL     1       7.082   5.022  16.269  0.00  0.00    +0.000 C 
BRANCH  19  20
ATOM     20  C   UNL     1       7.066   4.796  14.777  0.00  0.00    +0.000 A 
ATOM     21  C   UNL     1       7.872   5.561  13.918  0.00  0.00    +0.000 A 
ATOM     22  C   UNL     1       7.862   5.336  12.535  0.00  0.00    +0.000 A 
ATOM     23  C   UNL     1       7.047   4.342  11.992  0.00  0.00    +0.000 A 
ATOM     24  C   UNL     1       6.242   3.578  12.832  0.00  0.00    +0.000 A 
ATOM     25  C   UNL     1       6.254   3.811  14.209  0.00  0.00    +0.000 A 
ATOM     26  F   UNL     1       5.452   3.079  14.994  0.00  0.00    +0.000 F 
ENDBRANCH  19  20
ENDBRANCH  17  19
ENDBRANCH   1  17
TORSDOF 4
ENDMDL
MODEL 8
REMARK VINA RESULT:      -7.5      3.397      5.502
REMARK  Name = 
REMARK  4 active torsions:
REMARK  status: ('A' for Active; 'I' for Inactive)
REMARK    1  A    between atoms: S_2  and  C_4
REMARK    2  A    between atoms: S_2  and  N_12
REMARK    3  A    between atoms: C_4  and  C_5
REMARK    4  A    between atoms: C_16  and  C_17
REMARK                            x       y       z     vdW  Elec       q    Type
REMARK                         _______ _______ _______ _____ _____    ______ ____
ROOT
ATOM      1  N   UNL     1       6.105   4.462  16.864  0.00  0.00    +0.000 NA
ATOM      2  C   UNL     1       7.203   4.558  17.875  0.00  0.00    +0.000 C 
ATOM      3  C   UNL     1       7.346   6.036  18.166  0.00  0.00    +0.000 C 
ATOM      4  C   UNL     1       7.182   6.667  16.800  0.00  0.00    +0.000 C 
ATOM      5  C   UNL     1       6.296   5.695  15.974  0.00  0.00    +0.000 C 
ENDROOT
BRANCH   5   6
ATOM      6  C   UNL     1       6.977   5.345  14.666  0.00  0.00    +0.000 A 
ATOM      7  N   UNL     1       8.117   5.860  14.237  0.00  0.00    +0.000 NA
ATOM      8  N   UNL     1       8.419   5.327  13.019  0.00  0.00    +0.000 NA
ATOM      9  C   UNL     1       7.465   4.483  12.694  0.00  0.00    +0.000 A 
ATOM     10  N   UNL     1       6.491   4.523  13.667  0.00  0.00    +0.000 N 
ATOM     11  C   UNL     1       5.206   3.858  13.653  0.00  0.00    +0.000 C 
ATOM     12  C   UNL     1       4.610   3.610  12.269  0.00  0.00    +0.000 C 
ATOM     13  C   UNL     1       5.233   2.441  11.507  0.00  0.00    +0.000 C 
ATOM     14  C   UNL     1       6.749   2.308  11.636  0.00  0.00    +0.000 C 
ATOM     15  C   UNL     1       7.477   3.634  11.468  0.00  0.00    +0.000 C 
ENDBRANCH   5   6
BRANCH   1  17
ATOM     16  O   UNL     1       4.017   3.047  17.205  0.00  0.00    +0.000 OA
ATOM     17  S   UNL     1       4.504   4.372  17.516  0.00  0.00    +0.000 S 
ATOM     18  O   UNL     1       3.792   5.542  17.044  0.00  0.00    +0.000 OA
BRANCH  17  19
ATOM     19  C   UNL     1       4.741   4.509  19.308  0.00  0.00    +0.000 C 
BRANCH  19  20
ATOM     20  C   UNL     1       3.519   3.958  20.004  0.00  0.00    +0.000 A 
ATOM     21  C   UNL     1       3.529   2.680  20.584  0.00  0.00    +0.000 A 
ATOM     22  C   UNL     1       2.395   2.182  21.240  0.00  0.00    +0.000 A 
ATOM     23  C   UNL     1       1.237   2.955  21.326  0.00  0.00    +0.000 A 
ATOM     24  C   UNL     1       1.215   4.224  20.754  0.00  0.00    +0.000 A 
ATOM     25  C   UNL     1       2.346   4.713  20.098  0.00  0.00    +0.000 A 
ATOM     26  F   UNL     1       2.292   5.927  19.534  0.00  0.00    +0.000 F 
ENDBRANCH  19  20
ENDBRANCH  17  19
ENDBRANCH   1  17
TORSDOF 4
ENDMDL
MODEL 9
REMARK VINA RESULT:      -7.5      3.399      5.644
REMARK  Name = 
REMARK  4 active torsions:
REMARK  status: ('A' for Active; 'I' for Inactive)
REMARK    1  A    between atoms: S_2  and  C_4
REMARK    2  A    between atoms: S_2  and  N_12
REMARK    3  A    between atoms: C_4  and  C_5
REMARK    4  A    between atoms: C_16  and  C_17
REMARK                            x       y       z     vdW  Elec       q    Type
REMARK                         _______ _______ _______ _____ _____    ______ ____
ROOT
ATOM      1  N   UNL     1       6.198   4.727  17.207  0.00  0.00    +0.000 NA
ATOM      2  C   UNL     1       7.335   4.672  18.177  0.00  0.00    +0.000 C 
ATOM      3  C   UNL     1       7.656   6.117  18.492  0.00  0.00    +0.000 C 
ATOM      4  C   UNL     1       7.517   6.796  17.147  0.00  0.00    +0.000 C 
ATOM      5  C   UNL     1       6.497   5.951  16.336  0.00  0.00    +0.000 C 
ENDROOT
BRANCH   5   6
ATOM      6  C   UNL     1       7.086   5.559  14.995  0.00  0.00    +0.000 A 
ATOM      7  N   UNL     1       8.242   5.987  14.516  0.00  0.00    +0.000 NA
ATOM      8  N   UNL     1       8.444   5.441  13.282  0.00  0.00    +0.000 NA
ATOM      9  C   UNL     1       7.413   4.677  12.999  0.00  0.00    +0.000 A 
ATOM     10  N   UNL     1       6.491   4.786  14.018  0.00  0.00    +0.000 N 
ATOM     11  C   UNL     1       5.160   4.223  14.062  0.00  0.00    +0.000 C 
ATOM     12  C   UNL     1       4.482   4.032  12.706  0.00  0.00    +0.000 C 
ATOM     13  C   UNL     1       4.975   2.823  11.912  0.00  0.00    +0.000 C 
ATOM     14  C   UNL     1       6.480   2.572  11.969  0.00  0.00    +0.000 C 
ATOM     15  C   UNL     1       7.301   3.838  11.772  0.00  0.00    +0.000 C 
ENDBRANCH   5   6
BRANCH   1  17
ATOM     16  O   UNL     1       3.771   5.447  16.941  0.00  0.00    +0.000 OA
ATOM     17  S   UNL     1       4.622   4.803  17.918  0.00  0.00    +0.000 S 
ATOM     18  O   UNL     1       4.784   5.378  19.237  0.00  0.00    +0.000 OA
BRANCH  17  19
ATOM     19  C   UNL     1       4.120   3.069  18.086  0.00  0.00    +0.000 C 
BRANCH  19  20
ATOM     20  C   UNL     1       3.120   2.959  19.211  0.00  0.00    +0.000 A 
ATOM     21  C   UNL     1       3.516   2.562  20.499  0.00  0.00    +0.000 A 
ATOM     22  C   UNL     1       2.583   2.476  21.541  0.00  0.00    +0.000 A 
ATOM     23  C   UNL     1       1.242   2.785  21.310  0.00  0.00    +0.000 A 
ATOM     24  C   UNL     1       0.837   3.178  20.037  0.00  0.00    +0.000 A 
ATOM     25  C   UNL     1       1.771   3.258  19.003  0.00  0.00    +0.000 A 
ATOM     26  F   UNL     1       1.352   3.616  17.781  0.00  0.00    +0.000 F 
ENDBRANCH  19  20
ENDBRANCH  17  19
ENDBRANCH   1  17
TORSDOF 4
ENDMDL
