MODEL 1
REMARK VINA RESULT:      -8.0      0.000      0.000
REMARK  Name = 
REMARK  6 active torsions:
REMARK  status: ('A' for Active; 'I' for Inactive)
REMARK    1  A    between atoms: C_2  and  C_20
REMARK    2  A    between atoms: N_3  and  C_4
REMARK    3  A    between atoms: C_4  and  C_5
REMARK    4  A    between atoms: C_8  and  N_9
REMARK    5  A    between atoms: N_9  and  C_10
REMARK    6  A    between atoms: C_18  and  O_19
REMARK                            x       y       z     vdW  Elec       q    Type
REMARK                         _______ _______ _______ _____ _____    ______ ____
ROOT
ATOM      1  C   UNL     1       2.183   2.728  19.203  0.00  0.00    +0.000 C 
ATOM      2  O   UNL     1       1.871   3.461  17.999  0.00  0.00    +0.000 OA
ATOM      3  C   UNL     1       2.866   3.142  17.020  0.00  0.00    +0.000 C 
ATOM      4  C   UNL     1       4.163   2.812  17.771  0.00  0.00    +0.000 C 
ATOM      5  C   UNL     1       3.584   2.130  19.027  0.00  0.00    +0.000 C 
ENDROOT
BRANCH   4   6
ATOM      6  N   UNL     1       5.047   3.982  18.031  0.00  0.00    +0.000 NA
ATOM      7  H   UNL     1       4.475   4.752  18.371  0.00  0.00    +0.000 HD
BRANCH   6   8
ATOM      8  C   UNL     1       5.832   4.412  16.854  0.00  0.00    +0.000 C 
ATOM      9  C   UNL     1       7.347   4.486  17.136  0.00  0.00    +0.000 C 
ATOM     10  C   UNL     1       7.703   5.631  18.079  0.00  0.00    +0.000 C 
ATOM     11  C   UNL     1       7.266   6.950  17.472  0.00  0.00    +0.000 C 
ATOM     12  F   UNL     1       7.974   7.161  16.328  0.00  0.00    +0.000 F 
ATOM     13  F   UNL     1       7.580   7.971  18.306  0.00  0.00    +0.000 F 
ATOM     14  C   UNL     1       5.783   6.984  17.150  0.00  0.00    +0.000 C 
ATOM     15  C   UNL     1       5.349   5.779  16.313  0.00  0.00    +0.000 C 
ENDBRANCH   6   8
ENDBRANCH   4   6
BRANCH   5  16
ATOM     16  O   UNL     1       3.459   0.711  18.758  0.00  0.00    +0.000 OA
ATOM     17  H   UNL     1       2.515   0.480  18.711  0.00  0.00    +0.000 HD
ENDBRANCH   5  16
BRANCH   1  18
ATOM     18  C   UNL     1       1.996   3.640  20.415  0.00  0.00    +0.000 C 
BRANCH  18  21
ATOM     19  O   UNL     1       3.764   5.738  19.796  0.00  0.00    +0.000 OA
ATOM     20  C   UNL     1       2.561   5.970  19.842  0.00  0.00    +0.000 C 
ATOM     21  N   UNL     1       1.613   4.996  20.074  0.00  0.00    +0.000 N 
ATOM     22  H   UNL     1       0.627   5.215  20.101  0.00  0.00    +0.000 HD
BRANCH  20  23
ATOM     23  C   UNL     1       2.064   7.351  19.612  0.00  0.00    +0.000 A 
ATOM     24  C   UNL     1       2.303   7.937  18.363  0.00  0.00    +0.000 A 
ATOM     25  C   UNL     1       1.873   9.237  18.104  0.00  0.00    +0.000 A 
ATOM     26  C   UNL     1       1.208   9.962  19.091  0.00  0.00    +0.000 A 
ATOM     27  C   UNL     1       0.979   9.389  20.342  0.00  0.00    +0.000 A 
ATOM     28  C   UNL     1       1.407   8.085  20.608  0.00  0.00    +0.000 A 
ENDBRANCH  20  23
ENDBRANCH  18  21
ENDBRANCH   1  18
TORSDOF 6
ENDMDL
MODEL 2
REMARK VINA RESULT:      -8.0      4.447      7.553
REMARK  Name = 
REMARK  6 active torsions:
REMARK  status: ('A' for Active; 'I' for Inactive)
REMARK    1  A    between atoms: C_2  and  C_20
REMARK    2  A    between atoms: N_3  and  C_4
REMARK    3  A    between atoms: C_4  and  C_5
REMARK    4  A    between atoms: C_8  and  N_9
REMARK    5  A    between atoms: N_9  and  C_10
REMARK    6  A    between atoms: C_18  and  O_19
REMARK                            x       y       z     vdW  Elec       q    Type
REMARK                         _______ _______ _______ _____ _____    ______ ____
ROOT
ATOM      1  C   UNL     1       6.685   5.822  16.705  0.00  0.00    +0.000 C 
ATOM      2  O   UNL     1       6.136   6.532  17.835  0.00  0.00    +0.000 OA
ATOM      3  C   UNL     1       6.193   5.661  18.970  0.00  0.00    +0.000 C 
ATOM      4  C   UNL     1       6.086   4.220  18.452  0.00  0.00    +0.000 C 
ATOM      5  C   UNL     1       6.847   4.355  17.118  0.00  0.00    +0.000 C 
ENDROOT
BRANCH   4   6
ATOM      6  N   UNL     1       4.694   3.700  18.342  0.00  0.00    +0.000 NA
ATOM      7  H   UNL     1       4.386   3.797  17.377  0.00  0.00    +0.000 HD
BRANCH   6   8
ATOM      8  C   UNL     1       3.734   4.362  19.252  0.00  0.00    +0.000 C 
ATOM      9  C   UNL     1       3.178   3.412  20.333  0.00  0.00    +0.000 C 
ATOM     10  C   UNL     1       2.246   2.355  19.748  0.00  0.00    +0.000 C 
ATOM     11  C   UNL     1       1.077   3.029  19.056  0.00  0.00    +0.000 C 
ATOM     12  F   UNL     1       0.350   3.707  19.986  0.00  0.00    +0.000 F 
ATOM     13  F   UNL     1       0.246   2.094  18.534  0.00  0.00    +0.000 F 
ATOM     14  C   UNL     1       1.515   3.994  17.970  0.00  0.00    +0.000 C 
ATOM     15  C   UNL     1       2.555   4.996  18.477  0.00  0.00    +0.000 C 
ENDBRANCH   6   8
ENDBRANCH   4   6
BRANCH   5  16
ATOM     16  O   UNL     1       8.251   4.089  17.366  0.00  0.00    +0.000 OA
ATOM     17  H   UNL     1       8.783   4.551  16.696  0.00  0.00    +0.000 HD
ENDBRANCH   5  16
BRANCH   1  18
ATOM     18  C   UNL     1       5.812   6.075  15.476  0.00  0.00    +0.000 C 
BRANCH  18  21
ATOM     19  O   UNL     1       7.638   5.487  13.419  0.00  0.00    +0.000 OA
ATOM     20  C   UNL     1       6.649   4.775  13.555  0.00  0.00    +0.000 C 
ATOM     21  N   UNL     1       5.731   4.945  14.571  0.00  0.00    +0.000 N 
ATOM     22  H   UNL     1       4.927   4.341  14.663  0.00  0.00    +0.000 HD
BRANCH  20  23
ATOM     23  C   UNL     1       6.410   3.649  12.616  0.00  0.00    +0.000 A 
ATOM     24  C   UNL     1       7.524   3.037  12.028  0.00  0.00    +0.000 A 
ATOM     25  C   UNL     1       7.352   1.987  11.126  0.00  0.00    +0.000 A 
ATOM     26  C   UNL     1       6.070   1.550  10.801  0.00  0.00    +0.000 A 
ATOM     27  C   UNL     1       4.956   2.165  11.373  0.00  0.00    +0.000 A 
ATOM     28  C   UNL     1       5.122   3.216  12.279  0.00  0.00    +0.000 A 
ENDBRANCH  20  23
ENDBRANCH  18  21
ENDBRANCH   1  18
TORSDOF 6
ENDMDL
MODEL 3
REMARK VINA RESULT:      -7.8      3.145      4.934
REMARK  Name = 
REMARK  6 active torsions:
REMARK  status: ('A' for Active; 'I' for Inactive)
REMARK    1  A    between atoms: C_2  and  C_20
REMARK    2  A    between atoms: N_3  and  C_4
REMARK    3  A    between atoms: C_4  and  C_5
REMARK    4  A    between atoms: C_8  and  N_9
REMARK    5  A    between atoms: N_9  and  C_10
REMARK    6  A    between atoms: C_18  and  O_19
REMARK                            x       y       z     vdW  Elec       q    Type
REMARK                         _______ _______ _______ _____ _____    ______ ____
ROOT
ATOM      1  C   UNL     1       5.978   6.027  16.880  0.00  0.00    +0.000 C 
ATOM      2  O   UNL     1       6.367   6.607  18.144  0.00  0.00    +0.000 OA
ATOM      3  C   UNL     1       6.670   5.535  19.044  0.00  0.00    +0.000 C 
ATOM      4  C   UNL     1       5.811   4.331  18.634  0.00  0.00    +0.000 C 
ATOM      5  C   UNL     1       5.790   4.522  17.104  0.00  0.00    +0.000 C 
ENDROOT
BRANCH   4   6
ATOM      6  N   UNL     1       4.474   4.268  19.286  0.00  0.00    +0.000 NA
ATOM      7  H   UNL     1       4.464   4.917  20.071  0.00  0.00    +0.000 HD
BRANCH   6   8
ATOM      8  C   UNL     1       4.093   2.913  19.741  0.00  0.00    +0.000 C 
ATOM      9  C   UNL     1       3.695   1.979  18.580  0.00  0.00    +0.000 C 
ATOM     10  C   UNL     1       2.370   2.386  17.942  0.00  0.00    +0.000 C 
ATOM     11  C   UNL     1       1.267   2.351  18.983  0.00  0.00    +0.000 C 
ATOM     12  F   UNL     1       1.109   1.069  19.410  0.00  0.00    +0.000 F 
ATOM     13  F   UNL     1       0.088   2.712  18.421  0.00  0.00    +0.000 F 
ATOM     14  C   UNL     1       1.563   3.239  20.179  0.00  0.00    +0.000 C 
ATOM     15  C   UNL     1       2.944   2.959  20.775  0.00  0.00    +0.000 C 
ENDBRANCH   6   8
ENDBRANCH   4   6
BRANCH   5  16
ATOM     16  O   UNL     1       6.926   3.818  16.541  0.00  0.00    +0.000 OA
ATOM     17  H   UNL     1       6.984   4.020  15.591  0.00  0.00    +0.000 HD
ENDBRANCH   5  16
BRANCH   1  18
ATOM     18  C   UNL     1       4.764   6.776  16.331  0.00  0.00    +0.000 C 
BRANCH  18  21
ATOM     19  O   UNL     1       2.550   5.812  17.774  0.00  0.00    +0.000 OA
ATOM     20  C   UNL     1       2.914   6.970  17.950  0.00  0.00    +0.000 C 
ATOM     21  N   UNL     1       4.025   7.513  17.338  0.00  0.00    +0.000 N 
ATOM     22  H   UNL     1       4.306   8.468  17.505  0.00  0.00    +0.000 HD
BRANCH  20  23
ATOM     23  C   UNL     1       2.165   7.850  18.883  0.00  0.00    +0.000 A 
ATOM     24  C   UNL     1       1.968   7.401  20.195  0.00  0.00    +0.000 A 
ATOM     25  C   UNL     1       1.255   8.182  21.104  0.00  0.00    +0.000 A 
ATOM     26  C   UNL     1       0.728   9.408  20.707  0.00  0.00    +0.000 A 
ATOM     27  C   UNL     1       0.909   9.855  19.397  0.00  0.00    +0.000 A 
ATOM     28  C   UNL     1       1.624   9.078  18.482  0.00  0.00    +0.000 A 
ENDBRANCH  20  23
ENDBRANCH  18  21
ENDBRANCH   1  18
TORSDOF 6
ENDMDL
MODEL 4
REMARK VINA RESULT:      -7.7      4.364      7.546
REMARK  Name = 
REMARK  6 active torsions:
REMARK  status: ('A' for Active; 'I' for Inactive)
REMARK    1  A    between atoms: C_2  and  C_20
REMARK    2  A    between atoms: N_3  and  C_4
REMARK    3  A    between atoms: C_4  and  C_5
REMARK    4  A    between atoms: C_8  and  N_9
REMARK    5  A    between atoms: N_9  and  C_10
REMARK    6  A    between atoms: C_18  and  O_19
REMARK                            x       y       z     vdW  Elec       q    Type
REMARK                         _______ _______ _______ _____ _____    ______ ____
ROOT
ATOM      1  C   UNL     1       7.104   5.762  16.447  0.00  0.00    +0.000 C 
ATOM      2  O   UNL     1       7.211   6.998  17.185  0.00  0.00    +0.000 OA
ATOM      3  C   UNL     1       7.437   6.670  18.560  0.00  0.00    +0.000 C 
ATOM      4  C   UNL     1       6.769   5.314  18.828  0.00  0.00    +0.000 C 
ATOM      5  C   UNL     1       7.006   4.623  17.469  0.00  0.00    +0.000 C 
ENDROOT
BRANCH   4   6
ATOM      6  N   UNL     1       5.347   5.395  19.262  0.00  0.00    +0.000 NA
ATOM      7  H   UNL     1       5.307   5.266  20.271  0.00  0.00    +0.000 HD
BRANCH   6   8
ATOM      8  C   UNL     1       4.459   4.422  18.589  0.00  0.00    +0.000 C 
ATOM      9  C   UNL     1       3.249   5.088  17.901  0.00  0.00    +0.000 C 
ATOM     10  C   UNL     1       2.250   5.648  18.909  0.00  0.00    +0.000 C 
ATOM     11  C   UNL     1       1.739   4.533  19.800  0.00  0.00    +0.000 C 
ATOM     12  F   UNL     1       1.052   3.642  19.034  0.00  0.00    +0.000 F 
ATOM     13  F   UNL     1       0.851   5.026  20.697  0.00  0.00    +0.000 F 
ATOM     14  C   UNL     1       2.856   3.804  20.525  0.00  0.00    +0.000 C 
ATOM     15  C   UNL     1       3.954   3.336  19.568  0.00  0.00    +0.000 C 
ENDBRANCH   6   8
ENDBRANCH   4   6
BRANCH   5  16
ATOM     16  O   UNL     1       8.278   3.931  17.526  0.00  0.00    +0.000 OA
ATOM     17  H   UNL     1       8.856   4.384  18.163  0.00  0.00    +0.000 HD
ENDBRANCH   5  16
BRANCH   1  18
ATOM     18  C   UNL     1       5.949   5.864  15.451  0.00  0.00    +0.000 C 
BRANCH  18  21
ATOM     19  O   UNL     1       7.655   5.457  13.252  0.00  0.00    +0.000 OA
ATOM     20  C   UNL     1       6.728   4.676  13.436  0.00  0.00    +0.000 C 
ATOM     21  N   UNL     1       5.878   4.755  14.520  0.00  0.00    +0.000 N 
ATOM     22  H   UNL     1       5.125   4.095  14.651  0.00  0.00    +0.000 HD
BRANCH  20  23
ATOM     23  C   UNL     1       6.497   3.560  12.482  0.00  0.00    +0.000 A 
ATOM     24  C   UNL     1       5.173   3.210  12.188  0.00  0.00    +0.000 A 
ATOM     25  C   UNL     1       4.903   2.158  11.314  0.00  0.00    +0.000 A 
ATOM     26  C   UNL     1       5.951   1.446  10.735  0.00  0.00    +0.000 A 
ATOM     27  C   UNL     1       7.272   1.781  11.035  0.00  0.00    +0.000 A 
ATOM     28  C   UNL     1       7.549   2.835  11.910  0.00  0.00    +0.000 A 
ENDBRANCH  20  23
ENDBRANCH  18  21
ENDBRANCH   1  18
TORSDOF 6
ENDMDL
MODEL 5
REMARK VINA RESULT:      -7.7      4.620      7.122
REMARK  Name = 
REMARK  6 active torsions:
REMARK  status: ('A' for Active; 'I' for Inactive)
REMARK    1  A    between atoms: C_2  and  C_20
REMARK    2  A    between atoms: N_3  and  C_4
REMARK    3  A    between atoms: C_4  and  C_5
REMARK    4  A    between atoms: C_8  and  N_9
REMARK    5  A    between atoms: N_9  and  C_10
REMARK    6  A    between atoms: C_18  and  O_19
REMARK                            x       y       z     vdW  Elec       q    Type
REMARK                         _______ _______ _______ _____ _____    ______ ____
ROOT
ATOM      1  C   UNL     1       7.759   6.462  17.914  0.00  0.00    +0.000 C 
ATOM      2  O   UNL     1       7.498   6.137  19.296  0.00  0.00    +0.000 OA
ATOM      3  C   UNL     1       6.748   4.918  19.327  0.00  0.00    +0.000 C 
ATOM      4  C   UNL     1       5.925   4.849  18.034  0.00  0.00    +0.000 C 
ATOM      5  C   UNL     1       6.904   5.525  17.053  0.00  0.00    +0.000 C 
ENDROOT
BRANCH   4   6
ATOM      6  N   UNL     1       4.576   5.475  18.120  0.00  0.00    +0.000 NA
ATOM      7  H   UNL     1       4.328   5.579  19.102  0.00  0.00    +0.000 HD
BRANCH   6   8
ATOM      8  C   UNL     1       3.521   4.725  17.405  0.00  0.00    +0.000 C 
ATOM      9  C   UNL     1       2.105   5.019  17.941  0.00  0.00    +0.000 C 
ATOM     10  C   UNL     1       1.887   4.444  19.338  0.00  0.00    +0.000 C 
ATOM     11  C   UNL     1       2.084   2.941  19.310  0.00  0.00    +0.000 C 
ATOM     12  F   UNL     1       1.128   2.389  18.515  0.00  0.00    +0.000 F 
ATOM     13  F   UNL     1       1.891   2.425  20.548  0.00  0.00    +0.000 F 
ATOM     14  C   UNL     1       3.453   2.540  18.791  0.00  0.00    +0.000 C 
ATOM     15  C   UNL     1       3.775   3.200  17.449  0.00  0.00    +0.000 C 
ENDBRANCH   6   8
ENDBRANCH   4   6
BRANCH   5  16
ATOM     16  O   UNL     1       7.757   4.501  16.483  0.00  0.00    +0.000 OA
ATOM     17  H   UNL     1       7.546   4.403  15.539  0.00  0.00    +0.000 HD
ENDBRANCH   5  16
BRANCH   1  18
ATOM     18  C   UNL     1       7.536   7.957  17.694  0.00  0.00    +0.000 C 
BRANCH  18  21
ATOM     19  O   UNL     1       7.753  10.749  17.421  0.00  0.00    +0.000 OA
ATOM     20  C   UNL     1       8.569  10.156  18.118  0.00  0.00    +0.000 C 
ATOM     21  N   UNL     1       8.508   8.800  18.364  0.00  0.00    +0.000 N 
ATOM     22  H   UNL     1       9.190   8.337  18.947  0.00  0.00    +0.000 HD
BRANCH  20  23
ATOM     23  C   UNL     1       9.672  10.907  18.770  0.00  0.00    +0.000 A 
ATOM     24  C   UNL     1      10.757  11.301  17.978  0.00  0.00    +0.000 A 
ATOM     25  C   UNL     1      11.827  11.993  18.546  0.00  0.00    +0.000 A 
ATOM     26  C   UNL     1      11.822  12.286  19.908  0.00  0.00    +0.000 A 
ATOM     27  C   UNL     1      10.750  11.884  20.706  0.00  0.00    +0.000 A 
ATOM     28  C   UNL     1       9.675  11.193  20.142  0.00  0.00    +0.000 A 
ENDBRANCH  20  23
ENDBRANCH  18  21
ENDBRANCH   1  18
TORSDOF 6
ENDMDL
MODEL 6
REMARK VINA RESULT:      -7.7      4.807      7.501
REMARK  Name = 
REMARK  6 active torsions:
REMARK  status: ('A' for Active; 'I' for Inactive)
REMARK    1  A    between atoms: C_2  and  C_20
REMARK    2  A    between atoms: N_3  and  C_4
REMARK    3  A    between atoms: C_4  and  C_5
REMARK    4  A    between atoms: C_8  and  N_9
REMARK    5  A    between atoms: N_9  and  C_10
REMARK    6  A    between atoms: C_18  and  O_19
REMARK                            x       y       z     vdW  Elec       q    Type
REMARK                         _______ _______ _______ _____ _____    ______ ____
ROOT
ATOM      1  C   UNL     1       7.758   7.170  17.486  0.00  0.00    +0.000 C 
ATOM      2  O   UNL     1       7.988   6.522  18.756  0.00  0.00    +0.000 OA
ATOM      3  C   UNL     1       7.287   5.274  18.746  0.00  0.00    +0.000 C 
ATOM      4  C   UNL     1       6.067   5.437  17.829  0.00  0.00    +0.000 C 
ATOM      5  C   UNL     1       6.652   6.389  16.767  0.00  0.00    +0.000 C 
ENDROOT
BRANCH   4   6
ATOM      6  N   UNL     1       4.835   5.923  18.512  0.00  0.00    +0.000 NA
ATOM      7  H   UNL     1       4.933   5.763  19.512  0.00  0.00    +0.000 HD
BRANCH   6   8
ATOM      8  C   UNL     1       3.590   5.297  18.016  0.00  0.00    +0.000 C 
ATOM      9  C   UNL     1       2.318   5.948  18.595  0.00  0.00    +0.000 C 
ATOM     10  C   UNL     1       2.145   5.652  20.082  0.00  0.00    +0.000 C 
ATOM     11  C   UNL     1       2.056   4.154  20.300  0.00  0.00    +0.000 C 
ATOM     12  F   UNL     1       0.936   3.688  19.684  0.00  0.00    +0.000 F 
ATOM     13  F   UNL     1       1.903   3.886  21.620  0.00  0.00    +0.000 F 
ATOM     14  C   UNL     1       3.265   3.411  19.759  0.00  0.00    +0.000 C 
ATOM     15  C   UNL     1       3.560   3.777  18.304  0.00  0.00    +0.000 C 
ENDBRANCH   6   8
ENDBRANCH   4   6
BRANCH   5  16
ATOM     16  O   UNL     1       7.249   5.588  15.716  0.00  0.00    +0.000 OA
ATOM     17  H   UNL     1       7.224   6.090  14.884  0.00  0.00    +0.000 HD
ENDBRANCH   5  16
BRANCH   1  18
ATOM     18  C   UNL     1       7.483   8.655  17.717  0.00  0.00    +0.000 C 
BRANCH  18  21
ATOM     19  O   UNL     1       7.952  11.413  17.428  0.00  0.00    +0.000 OA
ATOM     20  C   UNL     1       8.783  10.729  18.015  0.00  0.00    +0.000 C 
ATOM     21  N   UNL     1       8.613   9.383  18.263  0.00  0.00    +0.000 N 
ATOM     22  H   UNL     1       9.311   8.843  18.754  0.00  0.00    +0.000 HD
BRANCH  20  23
ATOM     23  C   UNL     1      10.030  11.353  18.526  0.00  0.00    +0.000 A 
ATOM     24  C   UNL     1      10.223  11.398  19.912  0.00  0.00    +0.000 A 
ATOM     25  C   UNL     1      11.369  11.990  20.442  0.00  0.00    +0.000 A 
ATOM     26  C   UNL     1      12.323  12.545  19.593  0.00  0.00    +0.000 A 
ATOM     27  C   UNL     1      12.131  12.516  18.211  0.00  0.00    +0.000 A 
ATOM     28  C   UNL     1      10.985  11.923  17.674  0.00  0.00    +0.000 A 
ENDBRANCH  20  23
ENDBRANCH  18  21
ENDBRANCH   1  18
TORSDOF 6
ENDMDL
MODEL 7
REMARK VINA RESULT:      -7.7      0.952      1.358
REMARK  Name = 
REMARK  6 active torsions:
REMARK  status: ('A' for Active; 'I' for Inactive)
REMARK    1  A    between atoms: C_2  and  C_20
REMARK    2  A    between atoms: N_3  and  C_4
REMARK    3  A    between atoms: C_4  and  C_5
REMARK    4  A    between atoms: C_8  and  N_9
REMARK    5  A    between atoms: N_9  and  C_10
REMARK    6  A    between atoms: C_18  and  O_19
REMARK                            x       y       z     vdW  Elec       q    Type
REMARK                         _______ _______ _______ _____ _____    ______ ____
ROOT
ATOM      1  C   UNL     1       2.584   2.314  19.531  0.00  0.00    +0.000 C 
ATOM      2  O   UNL     1       2.224   1.986  18.172  0.00  0.00    +0.000 OA
ATOM      3  C   UNL     1       3.411   2.050  17.375  0.00  0.00    +0.000 C 
ATOM      4  C   UNL     1       4.344   3.085  18.019  0.00  0.00    +0.000 C 
ATOM      5  C   UNL     1       4.019   2.854  19.508  0.00  0.00    +0.000 C 
ENDROOT
BRANCH   4   6
ATOM      6  N   UNL     1       4.155   4.480  17.534  0.00  0.00    +0.000 NA
ATOM      7  H   UNL     1       3.187   4.594  17.240  0.00  0.00    +0.000 HD
BRANCH   6   8
ATOM      8  C   UNL     1       5.069   4.862  16.435  0.00  0.00    +0.000 C 
ATOM      9  C   UNL     1       6.513   4.365  16.656  0.00  0.00    +0.000 C 
ATOM     10  C   UNL     1       7.208   5.102  17.797  0.00  0.00    +0.000 C 
ATOM     11  C   UNL     1       7.254   6.587  17.496  0.00  0.00    +0.000 C 
ATOM     12  F   UNL     1       8.021   6.786  16.389  0.00  0.00    +0.000 F 
ATOM     13  F   UNL     1       7.871   7.246  18.507  0.00  0.00    +0.000 F 
ATOM     14  C   UNL     1       5.877   7.180  17.257  0.00  0.00    +0.000 C 
ATOM     15  C   UNL     1       5.086   6.392  16.211  0.00  0.00    +0.000 C 
ENDBRANCH   6   8
ENDBRANCH   4   6
BRANCH   5  16
ATOM     16  O   UNL     1       4.913   1.833  20.017  0.00  0.00    +0.000 OA
ATOM     17  H   UNL     1       4.907   1.075  19.408  0.00  0.00    +0.000 HD
ENDBRANCH   5  16
BRANCH   1  18
ATOM     18  C   UNL     1       1.530   3.249  20.123  0.00  0.00    +0.000 C 
BRANCH  18  21
ATOM     19  O   UNL     1       2.507   5.543  21.424  0.00  0.00    +0.000 OA
ATOM     20  C   UNL     1       2.005   5.661  20.312  0.00  0.00    +0.000 C 
ATOM     21  N   UNL     1       1.557   4.589  19.569  0.00  0.00    +0.000 N 
ATOM     22  H   UNL     1       1.152   4.714  18.652  0.00  0.00    +0.000 HD
BRANCH  20  23
ATOM     23  C   UNL     1       1.886   7.005  19.690  0.00  0.00    +0.000 A 
ATOM     24  C   UNL     1       1.318   8.034  20.452  0.00  0.00    +0.000 A 
ATOM     25  C   UNL     1       1.166   9.309  19.908  0.00  0.00    +0.000 A 
ATOM     26  C   UNL     1       1.573   9.561  18.600  0.00  0.00    +0.000 A 
ATOM     27  C   UNL     1       2.127   8.537  17.831  0.00  0.00    +0.000 A 
ATOM     28  C   UNL     1       2.283   7.258  18.371  0.00  0.00    +0.000 A 
ENDBRANCH  20  23
ENDBRANCH  18  21
ENDBRANCH   1  18
TORSDOF 6
ENDMDL
MODEL 8
REMARK VINA RESULT:      -7.6      4.355      7.506
REMARK  Name = 
REMARK  6 active torsions:
REMARK  status: ('A' for Active; 'I' for Inactive)
REMARK    1  A    between atoms: C_2  and  C_20
REMARK    2  A    between atoms: N_3  and  C_4
REMARK    3  A    between atoms: C_4  and  C_5
REMARK    4  A    between atoms: C_8  and  N_9
REMARK    5  A    between atoms: N_9  and  C_10
REMARK    6  A    between atoms: C_18  and  O_19
REMARK                            x       y       z     vdW  Elec       q    Type
REMARK                         _______ _______ _______ _____ _____    ______ ____
ROOT
ATOM      1  C   UNL     1       6.922   5.811  16.506  0.00  0.00    +0.000 C 
ATOM      2  O   UNL     1       6.911   6.971  17.365  0.00  0.00    +0.000 OA
ATOM      3  C   UNL     1       7.164   6.530  18.703  0.00  0.00    +0.000 C 
ATOM      4  C   UNL     1       6.627   5.098  18.826  0.00  0.00    +0.000 C 
ATOM      5  C   UNL     1       6.930   4.572  17.409  0.00  0.00    +0.000 C 
ENDROOT
BRANCH   4   6
ATOM      6  N   UNL     1       5.203   5.001  19.252  0.00  0.00    +0.000 NA
ATOM      7  H   UNL     1       5.172   4.881  20.262  0.00  0.00    +0.000 HD
BRANCH   6   8
ATOM      8  C   UNL     1       4.452   3.914  18.586  0.00  0.00    +0.000 C 
ATOM      9  C   UNL     1       3.249   4.427  17.769  0.00  0.00    +0.000 C 
ATOM     10  C   UNL     1       2.133   4.963  18.661  0.00  0.00    +0.000 C 
ATOM     11  C   UNL     1       1.647   3.866  19.588  0.00  0.00    +0.000 C 
ATOM     12  F   UNL     1       1.096   2.872  18.840  0.00  0.00    +0.000 F 
ATOM     13  F   UNL     1       0.655   4.336  20.383  0.00  0.00    +0.000 F 
ATOM     14  C   UNL     1       2.760   3.284  20.441  0.00  0.00    +0.000 C 
ATOM     15  C   UNL     1       3.963   2.853  19.600  0.00  0.00    +0.000 C 
ENDBRANCH   6   8
ENDBRANCH   4   6
BRANCH   5  16
ATOM     16  O   UNL     1       8.262   3.999  17.410  0.00  0.00    +0.000 OA
ATOM     17  H   UNL     1       8.857   4.584  16.910  0.00  0.00    +0.000 HD
ENDBRANCH   5  16
BRANCH   1  18
ATOM     18  C   UNL     1       5.764   5.904  15.513  0.00  0.00    +0.000 C 
BRANCH  18  21
ATOM     19  O   UNL     1       7.587   5.413  13.427  0.00  0.00    +0.000 OA
ATOM     20  C   UNL     1       6.615   4.676  13.551  0.00  0.00    +0.000 C 
ATOM     21  N   UNL     1       5.702   4.797  14.579  0.00  0.00    +0.000 N 
ATOM     22  H   UNL     1       4.913   4.172  14.661  0.00  0.00    +0.000 HD
BRANCH  20  23
ATOM     23  C   UNL     1       6.395   3.570  12.585  0.00  0.00    +0.000 A 
ATOM     24  C   UNL     1       7.520   2.967  12.008  0.00  0.00    +0.000 A 
ATOM     25  C   UNL     1       7.366   1.937  11.081  0.00  0.00    +0.000 A 
ATOM     26  C   UNL     1       6.091   1.509  10.720  0.00  0.00    +0.000 A 
ATOM     27  C   UNL     1       4.966   2.115  11.280  0.00  0.00    +0.000 A 
ATOM     28  C   UNL     1       5.113   3.147  12.211  0.00  0.00    +0.000 A 
ENDBRANCH  20  23
ENDBRANCH  18  21
ENDBRANCH   1  18
TORSDOF 6
ENDMDL
MODEL 9
REMARK VINA RESULT:      -7.6      3.210      4.933
REMARK  Name = 
REMARK  6 active torsions:
REMARK  status: ('A' for Active; 'I' for Inactive)
REMARK    1  A    between atoms: C_2  and  C_20
REMARK    2  A    between atoms: N_3  and  C_4
REMARK    3  A    between atoms: C_4  and  C_5
REMARK    4  A    between atoms: C_8  and  N_9
REMARK    5  A    between atoms: N_9  and  C_10
REMARK    6  A    between atoms: C_18  and  O_19
REMARK                            x       y       z     vdW  Elec       q    Type
REMARK                         _______ _______ _______ _____ _____    ______ ____
ROOT
ATOM      1  C   UNL     1       5.787   6.123  16.874  0.00  0.00    +0.000 C 
ATOM      2  O   UNL     1       6.417   6.633  18.068  0.00  0.00    +0.000 OA
ATOM      3  C   UNL     1       6.842   5.514  18.853  0.00  0.00    +0.000 C 
ATOM      4  C   UNL     1       5.884   4.352  18.557  0.00  0.00    +0.000 C 
ATOM      5  C   UNL     1       5.592   4.614  17.066  0.00  0.00    +0.000 C 
ENDROOT
BRANCH   4   6
ATOM      6  N   UNL     1       4.686   4.292  19.440  0.00  0.00    +0.000 NA
ATOM      7  H   UNL     1       4.990   4.381  20.407  0.00  0.00    +0.000 HD
BRANCH   6   8
ATOM      8  C   UNL     1       3.878   3.065  19.270  0.00  0.00    +0.000 C 
ATOM      9  C   UNL     1       2.757   3.223  18.223  0.00  0.00    +0.000 C 
ATOM     10  C   UNL     1       1.651   4.161  18.698  0.00  0.00    +0.000 C 
ATOM     11  C   UNL     1       1.037   3.622  19.976  0.00  0.00    +0.000 C 
ATOM     12  F   UNL     1       0.439   2.430  19.706  0.00  0.00    +0.000 F 
ATOM     13  F   UNL     1       0.054   4.452  20.403  0.00  0.00    +0.000 F 
ATOM     14  C   UNL     1       2.061   3.424  21.079  0.00  0.00    +0.000 C 
ATOM     15  C   UNL     1       3.260   2.598  20.609  0.00  0.00    +0.000 C 
ENDBRANCH   6   8
ENDBRANCH   4   6
BRANCH   5  16
ATOM     16  O   UNL     1       6.582   3.908  16.277  0.00  0.00    +0.000 OA
ATOM     17  H   UNL     1       7.248   3.525  16.874  0.00  0.00    +0.000 HD
ENDBRANCH   5  16
BRANCH   1  18
ATOM     18  C   UNL     1       4.519   6.927  16.587  0.00  0.00    +0.000 C 
BRANCH  18  21
ATOM     19  O   UNL     1       2.615   8.965  16.951  0.00  0.00    +0.000 OA
ATOM     20  C   UNL     1       2.782   8.143  17.845  0.00  0.00    +0.000 C 
ATOM     21  N   UNL     1       3.644   7.072  17.735  0.00  0.00    +0.000 N 
ATOM     22  H   UNL     1       3.759   6.406  18.485  0.00  0.00    +0.000 HD
BRANCH  20  23
ATOM     23  C   UNL     1       2.012   8.257  19.111  0.00  0.00    +0.000 A 
ATOM     24  C   UNL     1       2.140   7.229  20.053  0.00  0.00    +0.000 A 
ATOM     25  C   UNL     1       1.424   7.280  21.249  0.00  0.00    +0.000 A 
ATOM     26  C   UNL     1       0.573   8.352  21.506  0.00  0.00    +0.000 A 
ATOM     27  C   UNL     1       0.431   9.373  20.566  0.00  0.00    +0.000 A 
ATOM     28  C   UNL     1       1.146   9.328  19.366  0.00  0.00    +0.000 A 
ENDBRANCH  20  23
ENDBRANCH  18  21
ENDBRANCH   1  18
TORSDOF 6
ENDMDL
