MODEL 1
REMARK VINA RESULT:      -7.2      0.000      0.000
REMARK  Name = 
REMARK  4 active torsions:
REMARK  status: ('A' for Active; 'I' for Inactive)
REMARK    1  A    between atoms: C_1  and  C_2
REMARK    2  A    between atoms: N_7  and  C_8
REMARK    3  A    between atoms: C_12  and  C_13
REMARK    4  A    between atoms: N_18  and  C_19
REMARK                            x       y       z     vdW  Elec       q    Type
REMARK                         _______ _______ _______ _____ _____    ______ ____
ROOT
ATOM      1  C   UNL     1       4.798   4.748  17.398  0.00  0.00    +0.000 C 
ATOM      2  O   UNL     1       4.806   3.560  17.710  0.00  0.00    +0.000 OA
ATOM      3  N   UNL     1       3.841   5.617  17.919  0.00  0.00    +0.000 N 
ATOM      4  C   UNL     1       2.948   5.128  18.982  0.00  0.00    +0.000 C 
ATOM      5  C   UNL     1       2.704   6.221  20.047  0.00  0.00    +0.000 C 
ATOM      6  N   UNL     1       2.196   7.430  19.375  0.00  0.00    +0.000 N 
ATOM      7  C   UNL     1       3.087   7.953  18.320  0.00  0.00    +0.000 C 
ATOM      8  C   UNL     1       3.354   6.846  17.277  0.00  0.00    +0.000 C 
ENDROOT
BRANCH   1  20
ATOM      9  C   UNL     1       7.372   6.729  18.213  0.00  0.00    +0.000 C 
ATOM     10  C   UNL     1       6.935   6.093  16.952  0.00  0.00    +0.000 A 
ATOM     11  O   UNL     1       7.800   6.282  15.921  0.00  0.00    +0.000 OA
ATOM     12  C   UNL     1       7.362   5.552  14.869  0.00  0.00    +0.000 A 
ATOM     13  N   UNL     1       8.053   5.456  13.710  0.00  0.00    +0.000 NA
ATOM     14  C   UNL     1       7.511   4.644  12.863  0.00  0.00    +0.000 A 
ATOM     15  N   UNL     1       6.329   3.949  13.049  0.00  0.00    +0.000 N 
ATOM     16  C   UNL     1       5.823   3.100  11.988  0.00  0.00    +0.000 C 
ATOM     17  C   UNL     1       5.551   4.099  14.207  0.00  0.00    +0.000 A 
ATOM     18  O   UNL     1       4.436   3.606  14.332  0.00  0.00    +0.000 OA
ATOM     19  C   UNL     1       6.175   4.937  15.205  0.00  0.00    +0.000 A 
ATOM     20  C   UNL     1       5.871   5.285  16.562  0.00  0.00    +0.000 A 
ENDBRANCH   1  20
BRANCH   6  21
ATOM     21  C   UNL     1       1.402   8.350  20.042  0.00  0.00    +0.000 A 
ATOM     22  C   UNL     1       0.926   8.171  21.346  0.00  0.00    +0.000 A 
ATOM     23  C   UNL     1       0.077   9.113  21.944  0.00  0.00    +0.000 A 
ATOM     24  C   UNL     1      -0.315  10.251  21.241  0.00  0.00    +0.000 A 
ATOM     25  C   UNL     1       0.145  10.450  19.947  0.00  0.00    +0.000 A 
ATOM     26  C   UNL     1       0.993   9.509  19.362  0.00  0.00    +0.000 A 
ENDBRANCH   6  21
TORSDOF 2
ENDMDL
MODEL 2
REMARK VINA RESULT:      -6.9      0.976      1.372
REMARK  Name = 
REMARK  4 active torsions:
REMARK  status: ('A' for Active; 'I' for Inactive)
REMARK    1  A    between atoms: C_1  and  C_2
REMARK    2  A    between atoms: N_7  and  C_8
REMARK    3  A    between atoms: C_12  and  C_13
REMARK    4  A    between atoms: N_18  and  C_19
REMARK                            x       y       z     vdW  Elec       q    Type
REMARK                         _______ _______ _______ _____ _____    ______ ____
ROOT
ATOM      1  C   UNL     1       4.653   4.587  18.545  0.00  0.00    +0.000 C 
ATOM      2  O   UNL     1       4.663   3.466  19.048  0.00  0.00    +0.000 OA
ATOM      3  N   UNL     1       3.647   5.501  18.855  0.00  0.00    +0.000 N 
ATOM      4  C   UNL     1       2.695   5.165  19.927  0.00  0.00    +0.000 C 
ATOM      5  C   UNL     1       2.361   6.409  20.780  0.00  0.00    +0.000 C 
ATOM      6  N   UNL     1       1.875   7.477  19.888  0.00  0.00    +0.000 N 
ATOM      7  C   UNL     1       2.824   7.847  18.818  0.00  0.00    +0.000 C 
ATOM      8  C   UNL     1       3.181   6.593  17.990  0.00  0.00    +0.000 C 
ENDROOT
BRANCH   1  20
ATOM      9  C   UNL     1       7.625   5.875  19.395  0.00  0.00    +0.000 C 
ATOM     10  C   UNL     1       6.997   5.526  18.102  0.00  0.00    +0.000 A 
ATOM     11  O   UNL     1       7.826   5.683  17.037  0.00  0.00    +0.000 OA
ATOM     12  C   UNL     1       7.189   5.213  15.939  0.00  0.00    +0.000 A 
ATOM     13  N   UNL     1       7.782   5.147  14.725  0.00  0.00    +0.000 NA
ATOM     14  C   UNL     1       7.037   4.590  13.827  0.00  0.00    +0.000 A 
ATOM     15  N   UNL     1       5.747   4.126  14.019  0.00  0.00    +0.000 N 
ATOM     16  C   UNL     1       5.019   3.556  12.902  0.00  0.00    +0.000 C 
ATOM     17  C   UNL     1       5.081   4.262  15.246  0.00  0.00    +0.000 A 
ATOM     18  O   UNL     1       3.896   3.990  15.397  0.00  0.00    +0.000 OA
ATOM     19  C   UNL     1       5.920   4.807  16.289  0.00  0.00    +0.000 A 
ATOM     20  C   UNL     1       5.768   5.012  17.699  0.00  0.00    +0.000 A 
ENDBRANCH   1  20
BRANCH   6  21
ATOM     21  C   UNL     1       1.021   8.469  20.344  0.00  0.00    +0.000 A 
ATOM     22  C   UNL     1       0.627   9.573  19.580  0.00  0.00    +0.000 A 
ATOM     23  C   UNL     1      -0.192  10.574  20.119  0.00  0.00    +0.000 A 
ATOM     24  C   UNL     1      -0.629  10.488  21.440  0.00  0.00    +0.000 A 
ATOM     25  C   UNL     1      -0.253   9.401  22.216  0.00  0.00    +0.000 A 
ATOM     26  C   UNL     1       0.560   8.408  21.669  0.00  0.00    +0.000 A 
ENDBRANCH   6  21
TORSDOF 2
ENDMDL
MODEL 3
REMARK VINA RESULT:      -6.9      4.396      9.218
REMARK  Name = 
REMARK  4 active torsions:
REMARK  status: ('A' for Active; 'I' for Inactive)
REMARK    1  A    between atoms: C_1  and  C_2
REMARK    2  A    between atoms: N_7  and  C_8
REMARK    3  A    between atoms: C_12  and  C_13
REMARK    4  A    between atoms: N_18  and  C_19
REMARK                            x       y       z     vdW  Elec       q    Type
REMARK                         _______ _______ _______ _____ _____    ______ ____
ROOT
ATOM      1  C   UNL     1       0.557   9.908  20.157  0.00  0.00    +0.000 C 
ATOM      2  O   UNL     1       0.108   9.695  21.280  0.00  0.00    +0.000 OA
ATOM      3  N   UNL     1       1.470   9.032  19.574  0.00  0.00    +0.000 N 
ATOM      4  C   UNL     1       1.757   7.757  20.252  0.00  0.00    +0.000 C 
ATOM      5  C   UNL     1       1.903   6.607  19.231  0.00  0.00    +0.000 C 
ATOM      6  N   UNL     1       2.932   6.981  18.244  0.00  0.00    +0.000 N 
ATOM      7  C   UNL     1       2.654   8.246  17.533  0.00  0.00    +0.000 C 
ATOM      8  C   UNL     1       2.475   9.384  18.561  0.00  0.00    +0.000 C 
ENDROOT
BRANCH   1  20
ATOM      9  C   UNL     1      -1.848   9.982  17.828  0.00  0.00    +0.000 C 
ATOM     10  C   UNL     1      -0.976  11.016  18.425  0.00  0.00    +0.000 A 
ATOM     11  O   UNL     1      -1.260  12.276  18.003  0.00  0.00    +0.000 OA
ATOM     12  C   UNL     1      -0.491  13.137  18.710  0.00  0.00    +0.000 A 
ATOM     13  N   UNL     1      -0.599  14.480  18.587  0.00  0.00    +0.000 NA
ATOM     14  C   UNL     1       0.161  15.126  19.409  0.00  0.00    +0.000 A 
ATOM     15  N   UNL     1       1.041  14.560  20.315  0.00  0.00    +0.000 N 
ATOM     16  C   UNL     1       1.860  15.418  21.149  0.00  0.00    +0.000 C 
ATOM     17  C   UNL     1       1.233  13.173  20.399  0.00  0.00    +0.000 A 
ATOM     18  O   UNL     1       2.106  12.660  21.089  0.00  0.00    +0.000 OA
ATOM     19  C   UNL     1       0.336  12.424  19.549  0.00  0.00    +0.000 A 
ATOM     20  C   UNL     1       0.044  11.031  19.373  0.00  0.00    +0.000 A 
ENDBRANCH   1  20
BRANCH   6  21
ATOM     21  C   UNL     1       3.663   6.021  17.560  0.00  0.00    +0.000 A 
ATOM     22  C   UNL     1       3.467   4.643  17.701  0.00  0.00    +0.000 A 
ATOM     23  C   UNL     1       4.279   3.722  17.026  0.00  0.00    +0.000 A 
ATOM     24  C   UNL     1       5.309   4.167  16.199  0.00  0.00    +0.000 A 
ATOM     25  C   UNL     1       5.521   5.530  16.043  0.00  0.00    +0.000 A 
ATOM     26  C   UNL     1       4.704   6.439  16.716  0.00  0.00    +0.000 A 
ENDBRANCH   6  21
TORSDOF 2
ENDMDL
MODEL 4
REMARK VINA RESULT:      -6.8      1.058      1.149
REMARK  Name = 
REMARK  4 active torsions:
REMARK  status: ('A' for Active; 'I' for Inactive)
REMARK    1  A    between atoms: C_1  and  C_2
REMARK    2  A    between atoms: N_7  and  C_8
REMARK    3  A    between atoms: C_12  and  C_13
REMARK    4  A    between atoms: N_18  and  C_19
REMARK                            x       y       z     vdW  Elec       q    Type
REMARK                         _______ _______ _______ _____ _____    ______ ____
ROOT
ATOM      1  C   UNL     1       4.662   4.878  18.592  0.00  0.00    +0.000 C 
ATOM      2  O   UNL     1       4.657   3.834  19.240  0.00  0.00    +0.000 OA
ATOM      3  N   UNL     1       3.650   5.822  18.750  0.00  0.00    +0.000 N 
ATOM      4  C   UNL     1       2.667   5.630  19.829  0.00  0.00    +0.000 C 
ATOM      5  C   UNL     1       2.310   6.976  20.499  0.00  0.00    +0.000 C 
ATOM      6  N   UNL     1       1.851   7.914  19.459  0.00  0.00    +0.000 N 
ATOM      7  C   UNL     1       2.830   8.141  18.377  0.00  0.00    +0.000 C 
ATOM      8  C   UNL     1       3.209   6.788  17.734  0.00  0.00    +0.000 C 
ENDROOT
BRANCH   1  20
ATOM      9  C   UNL     1       7.713   6.011  19.385  0.00  0.00    +0.000 C 
ATOM     10  C   UNL     1       7.062   5.642  18.110  0.00  0.00    +0.000 A 
ATOM     11  O   UNL     1       7.898   5.694  17.039  0.00  0.00    +0.000 OA
ATOM     12  C   UNL     1       7.230   5.215  15.964  0.00  0.00    +0.000 A 
ATOM     13  N   UNL     1       7.816   5.053  14.755  0.00  0.00    +0.000 NA
ATOM     14  C   UNL     1       7.036   4.503  13.884  0.00  0.00    +0.000 A 
ATOM     15  N   UNL     1       5.718   4.133  14.095  0.00  0.00    +0.000 N 
ATOM     16  C   UNL     1       4.953   3.559  13.005  0.00  0.00    +0.000 C 
ATOM     17  C   UNL     1       5.064   4.370  15.313  0.00  0.00    +0.000 A 
ATOM     18  O   UNL     1       3.864   4.183  15.475  0.00  0.00    +0.000 OA
ATOM     19  C   UNL     1       5.938   4.908  16.330  0.00  0.00    +0.000 A 
ATOM     20  C   UNL     1       5.802   5.190  17.729  0.00  0.00    +0.000 A 
ENDBRANCH   1  20
BRANCH   6  21
ATOM     21  C   UNL     1       0.986   8.956  19.755  0.00  0.00    +0.000 A 
ATOM     22  C   UNL     1       0.471   9.206  21.032  0.00  0.00    +0.000 A 
ATOM     23  C   UNL     1      -0.448  10.240  21.254  0.00  0.00    +0.000 A 
ATOM     24  C   UNL     1      -0.872  11.042  20.196  0.00  0.00    +0.000 A 
ATOM     25  C   UNL     1      -0.374  10.814  18.921  0.00  0.00    +0.000 A 
ATOM     26  C   UNL     1       0.544   9.784  18.710  0.00  0.00    +0.000 A 
ENDBRANCH   6  21
TORSDOF 2
ENDMDL
MODEL 5
REMARK VINA RESULT:      -6.8      4.563      9.305
REMARK  Name = 
REMARK  4 active torsions:
REMARK  status: ('A' for Active; 'I' for Inactive)
REMARK    1  A    between atoms: C_1  and  C_2
REMARK    2  A    between atoms: N_7  and  C_8
REMARK    3  A    between atoms: C_12  and  C_13
REMARK    4  A    between atoms: N_18  and  C_19
REMARK                            x       y       z     vdW  Elec       q    Type
REMARK                         _______ _______ _______ _____ _____    ______ ____
ROOT
ATOM      1  C   UNL     1       0.548  10.277  20.470  0.00  0.00    +0.000 C 
ATOM      2  O   UNL     1       0.194  10.236  21.646  0.00  0.00    +0.000 OA
ATOM      3  N   UNL     1       1.323   9.257  19.921  0.00  0.00    +0.000 N 
ATOM      4  C   UNL     1       1.564   8.045  20.722  0.00  0.00    +0.000 C 
ATOM      5  C   UNL     1       1.513   6.778  19.839  0.00  0.00    +0.000 C 
ATOM      6  N   UNL     1       2.469   6.938  18.729  0.00  0.00    +0.000 N 
ATOM      7  C   UNL     1       2.232   8.135  17.897  0.00  0.00    +0.000 C 
ATOM      8  C   UNL     1       2.251   9.394  18.790  0.00  0.00    +0.000 C 
ENDROOT
BRANCH   1  20
ATOM      9  C   UNL     1      -1.908  10.246  18.194  0.00  0.00    +0.000 C 
ATOM     10  C   UNL     1      -0.983  11.291  18.681  0.00  0.00    +0.000 A 
ATOM     11  O   UNL     1      -1.230  12.521  18.157  0.00  0.00    +0.000 OA
ATOM     12  C   UNL     1      -0.413  13.408  18.771  0.00  0.00    +0.000 A 
ATOM     13  N   UNL     1      -0.473  14.739  18.534  0.00  0.00    +0.000 NA
ATOM     14  C   UNL     1       0.330  15.423  19.281  0.00  0.00    +0.000 A 
ATOM     15  N   UNL     1       1.210  14.902  20.214  0.00  0.00    +0.000 N 
ATOM     16  C   UNL     1       2.080  15.796  20.954  0.00  0.00    +0.000 C 
ATOM     17  C   UNL     1       1.352  13.521  20.415  0.00  0.00    +0.000 A 
ATOM     18  O   UNL     1       2.222  13.035  21.128  0.00  0.00    +0.000 OA
ATOM     19  C   UNL     1       0.407  12.738  19.652  0.00  0.00    +0.000 A 
ATOM     20  C   UNL     1       0.059  11.348  19.602  0.00  0.00    +0.000 A 
ENDBRANCH   1  20
BRANCH   6  21
ATOM     21  C   UNL     1       3.046   5.841  18.107  0.00  0.00    +0.000 A 
ATOM     22  C   UNL     1       4.316   5.855  17.520  0.00  0.00    +0.000 A 
ATOM     23  C   UNL     1       4.820   4.729  16.854  0.00  0.00    +0.000 A 
ATOM     24  C   UNL     1       4.054   3.568  16.759  0.00  0.00    +0.000 A 
ATOM     25  C   UNL     1       2.792   3.532  17.334  0.00  0.00    +0.000 A 
ATOM     26  C   UNL     1       2.301   4.656  18.000  0.00  0.00    +0.000 A 
ENDBRANCH   6  21
TORSDOF 2
ENDMDL
MODEL 6
REMARK VINA RESULT:      -6.7      2.984      4.278
REMARK  Name = 
REMARK  4 active torsions:
REMARK  status: ('A' for Active; 'I' for Inactive)
REMARK    1  A    between atoms: C_1  and  C_2
REMARK    2  A    between atoms: N_7  and  C_8
REMARK    3  A    between atoms: C_12  and  C_13
REMARK    4  A    between atoms: N_18  and  C_19
REMARK                            x       y       z     vdW  Elec       q    Type
REMARK                         _______ _______ _______ _____ _____    ______ ____
ROOT
ATOM      1  C   UNL     1       4.178   6.459  17.229  0.00  0.00    +0.000 C 
ATOM      2  O   UNL     1       4.481   6.853  16.106  0.00  0.00    +0.000 OA
ATOM      3  N   UNL     1       3.440   7.264  18.094  0.00  0.00    +0.000 N 
ATOM      4  C   UNL     1       2.881   8.525  17.581  0.00  0.00    +0.000 C 
ATOM      5  C   UNL     1       1.466   8.775  18.149  0.00  0.00    +0.000 C 
ATOM      6  N   UNL     1       1.534   8.730  19.621  0.00  0.00    +0.000 N 
ATOM      7  C   UNL     1       2.070   7.464  20.160  0.00  0.00    +0.000 C 
ATOM      8  C   UNL     1       3.470   7.202  19.562  0.00  0.00    +0.000 C 
ENDROOT
BRANCH   1  20
ATOM      9  C   UNL     1       7.142   5.031  17.853  0.00  0.00    +0.000 C 
ATOM     10  C   UNL     1       5.747   4.543  17.894  0.00  0.00    +0.000 A 
ATOM     11  O   UNL     1       5.630   3.271  18.359  0.00  0.00    +0.000 OA
ATOM     12  C   UNL     1       4.312   2.987  18.472  0.00  0.00    +0.000 A 
ATOM     13  N   UNL     1       3.859   1.823  18.993  0.00  0.00    +0.000 NA
ATOM     14  C   UNL     1       2.572   1.780  19.093  0.00  0.00    +0.000 A 
ATOM     15  N   UNL     1       1.694   2.772  18.690  0.00  0.00    +0.000 N 
ATOM     16  C   UNL     1       0.266   2.564  18.831  0.00  0.00    +0.000 C 
ATOM     17  C   UNL     1       2.135   3.950  18.069  0.00  0.00    +0.000 A 
ATOM     18  O   UNL     1       1.372   4.772  17.577  0.00  0.00    +0.000 OA
ATOM     19  C   UNL     1       3.575   4.059  18.019  0.00  0.00    +0.000 A 
ATOM     20  C   UNL     1       4.494   5.087  17.625  0.00  0.00    +0.000 A 
ENDBRANCH   1  20
BRANCH   6  21
ATOM     21  C   UNL     1       0.622   9.415  20.409  0.00  0.00    +0.000 A 
ATOM     22  C   UNL     1      -0.047  10.574  20.001  0.00  0.00    +0.000 A 
ATOM     23  C   UNL     1      -0.913  11.255  20.868  0.00  0.00    +0.000 A 
ATOM     24  C   UNL     1      -1.120  10.788  22.164  0.00  0.00    +0.000 A 
ATOM     25  C   UNL     1      -0.467   9.639  22.591  0.00  0.00    +0.000 A 
ATOM     26  C   UNL     1       0.389   8.966  21.719  0.00  0.00    +0.000 A 
ENDBRANCH   6  21
TORSDOF 2
ENDMDL
MODEL 7
REMARK VINA RESULT:      -6.7      5.916     11.342
REMARK  Name = 
REMARK  4 active torsions:
REMARK  status: ('A' for Active; 'I' for Inactive)
REMARK    1  A    between atoms: C_1  and  C_2
REMARK    2  A    between atoms: N_7  and  C_8
REMARK    3  A    between atoms: C_12  and  C_13
REMARK    4  A    between atoms: N_18  and  C_19
REMARK                            x       y       z     vdW  Elec       q    Type
REMARK                         _______ _______ _______ _____ _____    ______ ____
ROOT
ATOM      1  C   UNL     1      -1.556  12.184  20.244  0.00  0.00    +0.000 C 
ATOM      2  O   UNL     1      -2.321  12.624  19.390  0.00  0.00    +0.000 OA
ATOM      3  N   UNL     1      -0.787  11.048  19.997  0.00  0.00    +0.000 N 
ATOM      4  C   UNL     1      -0.776  10.485  18.637  0.00  0.00    +0.000 C 
ATOM      5  C   UNL     1       0.639   9.996  18.252  0.00  0.00    +0.000 C 
ATOM      6  N   UNL     1       1.104   9.044  19.276  0.00  0.00    +0.000 N 
ATOM      7  C   UNL     1       1.123   9.594  20.646  0.00  0.00    +0.000 C 
ATOM      8  C   UNL     1      -0.285  10.112  21.013  0.00  0.00    +0.000 C 
ENDROOT
BRANCH   1  20
ATOM      9  C   UNL     1       1.170  13.731  21.423  0.00  0.00    +0.000 C 
ATOM     10  C   UNL     1      -0.208  13.566  21.931  0.00  0.00    +0.000 A 
ATOM     11  O   UNL     1      -0.448  14.253  23.079  0.00  0.00    +0.000 OA
ATOM     12  C   UNL     1      -1.764  14.131  23.371  0.00  0.00    +0.000 A 
ATOM     13  N   UNL     1      -2.343  14.774  24.412  0.00  0.00    +0.000 NA
ATOM     14  C   UNL     1      -3.621  14.596  24.469  0.00  0.00    +0.000 A 
ATOM     15  N   UNL     1      -4.370  13.810  23.610  0.00  0.00    +0.000 N 
ATOM     16  C   UNL     1      -5.797  13.675  23.825  0.00  0.00    +0.000 C 
ATOM     17  C   UNL     1      -3.780  13.066  22.578  0.00  0.00    +0.000 A 
ATOM     18  O   UNL     1      -4.401  12.256  21.899  0.00  0.00    +0.000 OA
ATOM     19  C   UNL     1      -2.363  13.312  22.439  0.00  0.00    +0.000 A 
ATOM     20  C   UNL     1      -1.361  12.921  21.492  0.00  0.00    +0.000 A 
ENDBRANCH   1  20
BRANCH   6  21
ATOM     21  C   UNL     1       2.032   8.057  18.979  0.00  0.00    +0.000 A 
ATOM     22  C   UNL     1       2.823   8.051  17.825  0.00  0.00    +0.000 A 
ATOM     23  C   UNL     1       3.701   6.993  17.553  0.00  0.00    +0.000 A 
ATOM     24  C   UNL     1       3.799   5.917  18.434  0.00  0.00    +0.000 A 
ATOM     25  C   UNL     1       3.024   5.903  19.586  0.00  0.00    +0.000 A 
ATOM     26  C   UNL     1       2.156   6.963  19.849  0.00  0.00    +0.000 A 
ENDBRANCH   6  21
TORSDOF 2
ENDMDL
MODEL 8
REMARK VINA RESULT:      -6.7      6.109     11.324
REMARK  Name = 
REMARK  4 active torsions:
REMARK  status: ('A' for Active; 'I' for Inactive)
REMARK    1  A    between atoms: C_1  and  C_2
REMARK    2  A    between atoms: N_7  and  C_8
REMARK    3  A    between atoms: C_12  and  C_13
REMARK    4  A    between atoms: N_18  and  C_19
REMARK                            x       y       z     vdW  Elec       q    Type
REMARK                         _______ _______ _______ _____ _____    ______ ____
ROOT
ATOM      1  C   UNL     1      -1.506  13.101  20.108  0.00  0.00    +0.000 C 
ATOM      2  O   UNL     1      -1.226  14.224  19.698  0.00  0.00    +0.000 OA
ATOM      3  N   UNL     1      -0.794  11.984  19.676  0.00  0.00    +0.000 N 
ATOM      4  C   UNL     1       0.410  12.189  18.854  0.00  0.00    +0.000 C 
ATOM      5  C   UNL     1       1.524  11.192  19.245  0.00  0.00    +0.000 C 
ATOM      6  N   UNL     1       0.986   9.823  19.151  0.00  0.00    +0.000 N 
ATOM      7  C   UNL     1      -0.210   9.587  19.986  0.00  0.00    +0.000 C 
ATOM      8  C   UNL     1      -1.307  10.608  19.614  0.00  0.00    +0.000 C 
ENDROOT
BRANCH   1  20
ATOM      9  C   UNL     1      -1.324  13.696  23.399  0.00  0.00    +0.000 C 
ATOM     10  C   UNL     1      -2.403  13.222  22.507  0.00  0.00    +0.000 A 
ATOM     11  O   UNL     1      -3.600  13.072  23.136  0.00  0.00    +0.000 OA
ATOM     12  C   UNL     1      -4.528  12.764  22.200  0.00  0.00    +0.000 A 
ATOM     13  N   UNL     1      -5.842  12.635  22.492  0.00  0.00    +0.000 NA
ATOM     14  C   UNL     1      -6.574  12.425  21.448  0.00  0.00    +0.000 A 
ATOM     15  N   UNL     1      -6.115  12.296  20.148  0.00  0.00    +0.000 N 
ATOM     16  C   UNL     1      -7.058  12.022  19.081  0.00  0.00    +0.000 C 
ATOM     17  C   UNL     1      -4.749  12.340  19.833  0.00  0.00    +0.000 A 
ATOM     18  O   UNL     1      -4.312  12.086  18.717  0.00  0.00    +0.000 OA
ATOM     19  C   UNL     1      -3.915  12.656  20.970  0.00  0.00    +0.000 A 
ATOM     20  C   UNL     1      -2.522  12.942  21.149  0.00  0.00    +0.000 A 
ENDBRANCH   1  20
BRANCH   6  21
ATOM     21  C   UNL     1       1.811   8.735  18.910  0.00  0.00    +0.000 A 
ATOM     22  C   UNL     1       2.558   8.566  17.739  0.00  0.00    +0.000 A 
ATOM     23  C   UNL     1       3.328   7.414  17.530  0.00  0.00    +0.000 A 
ATOM     24  C   UNL     1       3.360   6.406  18.491  0.00  0.00    +0.000 A 
ATOM     25  C   UNL     1       2.628   6.552  19.661  0.00  0.00    +0.000 A 
ATOM     26  C   UNL     1       1.867   7.705  19.862  0.00  0.00    +0.000 A 
ENDBRANCH   6  21
TORSDOF 2
ENDMDL
MODEL 9
REMARK VINA RESULT:      -6.6      4.472      9.890
REMARK  Name = 
REMARK  4 active torsions:
REMARK  status: ('A' for Active; 'I' for Inactive)
REMARK    1  A    between atoms: C_1  and  C_2
REMARK    2  A    between atoms: N_7  and  C_8
REMARK    3  A    between atoms: C_12  and  C_13
REMARK    4  A    between atoms: N_18  and  C_19
REMARK                            x       y       z     vdW  Elec       q    Type
REMARK                         _______ _______ _______ _____ _____    ______ ____
ROOT
ATOM      1  C   UNL     1      -0.003   9.396  20.880  0.00  0.00    +0.000 C 
ATOM      2  O   UNL     1      -0.389   8.965  21.964  0.00  0.00    +0.000 OA
ATOM      3  N   UNL     1       1.021   8.759  20.182  0.00  0.00    +0.000 N 
ATOM      4  C   UNL     1       1.515   7.464  20.679  0.00  0.00    +0.000 C 
ATOM      5  C   UNL     1       1.815   6.501  19.508  0.00  0.00    +0.000 C 
ATOM      6  N   UNL     1       2.753   7.161  18.582  0.00  0.00    +0.000 N 
ATOM      7  C   UNL     1       2.268   8.451  18.053  0.00  0.00    +0.000 C 
ATOM      8  C   UNL     1       1.938   9.398  19.227  0.00  0.00    +0.000 C 
ENDROOT
BRANCH   1  20
ATOM      9  C   UNL     1      -1.303   9.685  17.807  0.00  0.00    +0.000 C 
ATOM     10  C   UNL     1      -1.241  10.587  18.977  0.00  0.00    +0.000 A 
ATOM     11  O   UNL     1      -1.925  11.749  18.803  0.00  0.00    +0.000 OA
ATOM     12  C   UNL     1      -1.905  12.426  19.975  0.00  0.00    +0.000 A 
ATOM     13  N   UNL     1      -2.574  13.587  20.158  0.00  0.00    +0.000 NA
ATOM     14  C   UNL     1      -2.499  14.029  21.369  0.00  0.00    +0.000 A 
ATOM     15  N   UNL     1      -1.791  13.442  22.405  0.00  0.00    +0.000 N 
ATOM     16  C   UNL     1      -1.769  14.079  23.707  0.00  0.00    +0.000 C 
ATOM     17  C   UNL     1      -1.020  12.285  22.217  0.00  0.00    +0.000 A 
ATOM     18  O   UNL     1      -0.276  11.832  23.078  0.00  0.00    +0.000 OA
ATOM     19  C   UNL     1      -1.153  11.724  20.892  0.00  0.00    +0.000 A 
ATOM     20  C   UNL     1      -0.699  10.521  20.258  0.00  0.00    +0.000 A 
ENDBRANCH   1  20
BRANCH   6  21
ATOM     21  C   UNL     1       3.608   6.428  17.773  0.00  0.00    +0.000 A 
ATOM     22  C   UNL     1       4.579   6.999  16.944  0.00  0.00    +0.000 A 
ATOM     23  C   UNL     1       5.373   6.207  16.104  0.00  0.00    +0.000 A 
ATOM     24  C   UNL     1       5.204   4.823  16.078  0.00  0.00    +0.000 A 
ATOM     25  C   UNL     1       4.248   4.235  16.893  0.00  0.00    +0.000 A 
ATOM     26  C   UNL     1       3.465   5.032  17.729  0.00  0.00    +0.000 A 
ENDBRANCH   6  21
TORSDOF 2
ENDMDL
