MODEL 1
REMARK VINA RESULT:      -8.2      0.000      0.000
REMARK  Name = 
REMARK  6 active torsions:
REMARK  status: ('A' for Active; 'I' for Inactive)
REMARK    1  A    between atoms: C_1  and  C_2
REMARK    2  A    between atoms: C_2  and  O_3
REMARK    3  A    between atoms: O_3  and  C_4
REMARK    4  A    between atoms: C_4  and  C_6
REMARK    5  A    between atoms: C_6  and  C_7
REMARK    6  A    between atoms: C_21  and  C_22
REMARK                            x       y       z     vdW  Elec       q    Type
REMARK                         _______ _______ _______ _____ _____    ______ ____
ROOT
ATOM      1  C   UNL     1       4.971   6.212  17.145  0.00  0.00    +0.000 C 
ATOM      2  C   UNL     1       3.787   7.130  16.811  0.00  0.00    +0.000 C 
ATOM      3  C   UNL     1       2.946   7.362  18.027  0.00  0.00    +0.000 C 
ATOM      4  C   UNL     1       2.922   6.451  19.009  0.00  0.00    +0.000 C 
ATOM      5  C   UNL     1       2.246   6.736  20.300  0.00  0.00    +0.000 C 
ATOM      6  O   UNL     1       2.306   5.952  21.240  0.00  0.00    +0.000 OA
ATOM      7  C   UNL     1       1.560   8.036  20.446  0.00  0.00    +0.000 A 
ATOM      8  C   UNL     1       0.956   8.370  21.666  0.00  0.00    +0.000 A 
ATOM      9  C   UNL     1       0.341   9.612  21.827  0.00  0.00    +0.000 A 
ATOM     10  C   UNL     1       0.322  10.525  20.774  0.00  0.00    +0.000 A 
ATOM     11  C   UNL     1       0.912  10.193  19.555  0.00  0.00    +0.000 A 
ATOM     12  C   UNL     1       1.534   8.949  19.391  0.00  0.00    +0.000 A 
ATOM     13  C   UNL     1       2.181   8.625  18.110  0.00  0.00    +0.000 C 
ATOM     14  O   UNL     1       2.087   9.372  17.146  0.00  0.00    +0.000 OA
ATOM     15  C   UNL     1       3.633   5.118  18.890  0.00  0.00    +0.000 C 
ATOM     16  O   UNL     1       4.454   4.990  17.701  0.00  0.00    +0.000 OA
ENDROOT
BRANCH  15  17
ATOM     17  C   UNL     1       2.705   3.923  18.836  0.00  0.00    +0.000 A 
ATOM     18  C   UNL     1       1.443   3.846  18.275  0.00  0.00    +0.000 A 
ATOM     19  C   UNL     1       0.845   2.566  18.451  0.00  0.00    +0.000 A 
ATOM     20  C   UNL     1       1.676   1.696  19.119  0.00  0.00    +0.000 A 
ATOM     21  S   UNL     1       3.175   2.412  19.511  0.00  0.00    +0.000 S 
ENDBRANCH  15  17
BRANCH   1  22
ATOM     22  C   UNL     1       6.052   6.767  18.077  0.00  0.00    +0.000 C 
BRANCH  22  23
ATOM     23  C   UNL     1       7.416   7.029  17.498  0.00  0.00    +0.000 C 
ATOM     24  O   UNL     1       7.724   6.648  16.373  0.00  0.00    +0.000 OA
BRANCH  23  25
ATOM     25  O   UNL     1       8.203   7.786  18.299  0.00  0.00    +0.000 OA
BRANCH  25  27
ATOM     26  C   UNL     1       9.083   9.962  18.976  0.00  0.00    +0.000 C 
ATOM     27  C   UNL     1       8.208   9.194  17.999  0.00  0.00    +0.000 C 
ENDBRANCH  25  27
ENDBRANCH  23  25
ENDBRANCH  22  23
ENDBRANCH   1  22
TORSDOF 5
ENDMDL
MODEL 2
REMARK VINA RESULT:      -7.8      2.662      6.734
REMARK  Name = 
REMARK  6 active torsions:
REMARK  status: ('A' for Active; 'I' for Inactive)
REMARK    1  A    between atoms: C_1  and  C_2
REMARK    2  A    between atoms: C_2  and  O_3
REMARK    3  A    between atoms: O_3  and  C_4
REMARK    4  A    between atoms: C_4  and  C_6
REMARK    5  A    between atoms: C_6  and  C_7
REMARK    6  A    between atoms: C_21  and  C_22
REMARK                            x       y       z     vdW  Elec       q    Type
REMARK                         _______ _______ _______ _____ _____    ______ ____
ROOT
ATOM      1  C   UNL     1       1.387   4.672  20.402  0.00  0.00    +0.000 C 
ATOM      2  C   UNL     1       1.365   4.154  18.957  0.00  0.00    +0.000 C 
ATOM      3  C   UNL     1       2.531   4.697  18.190  0.00  0.00    +0.000 C 
ATOM      4  C   UNL     1       3.087   5.861  18.552  0.00  0.00    +0.000 C 
ATOM      5  C   UNL     1       4.350   6.331  17.929  0.00  0.00    +0.000 C 
ATOM      6  O   UNL     1       4.921   7.341  18.323  0.00  0.00    +0.000 OA
ATOM      7  C   UNL     1       4.945   5.497  16.864  0.00  0.00    +0.000 A 
ATOM      8  C   UNL     1       6.166   5.873  16.287  0.00  0.00    +0.000 A 
ATOM      9  C   UNL     1       6.756   5.071  15.309  0.00  0.00    +0.000 A 
ATOM     10  C   UNL     1       6.132   3.893  14.901  0.00  0.00    +0.000 A 
ATOM     11  C   UNL     1       4.913   3.520  15.465  0.00  0.00    +0.000 A 
ATOM     12  C   UNL     1       4.319   4.320  16.448  0.00  0.00    +0.000 A 
ATOM     13  C   UNL     1       3.048   3.898  17.058  0.00  0.00    +0.000 C 
ATOM     14  O   UNL     1       2.440   2.923  16.642  0.00  0.00    +0.000 OA
ATOM     15  C   UNL     1       2.506   6.725  19.653  0.00  0.00    +0.000 C 
ATOM     16  O   UNL     1       1.405   6.110  20.368  0.00  0.00    +0.000 OA
ENDROOT
BRANCH  15  17
ATOM     17  C   UNL     1       1.949   8.049  19.174  0.00  0.00    +0.000 A 
ATOM     18  C   UNL     1       1.957   8.564  17.890  0.00  0.00    +0.000 A 
ATOM     19  C   UNL     1       1.378   9.864  17.822  0.00  0.00    +0.000 A 
ATOM     20  C   UNL     1       0.923  10.292  19.048  0.00  0.00    +0.000 A 
ATOM     21  S   UNL     1       1.173   9.125  20.269  0.00  0.00    +0.000 S 
ENDBRANCH  15  17
BRANCH   1  22
ATOM     22  C   UNL     1       2.517   4.178  21.310  0.00  0.00    +0.000 C 
BRANCH  22  23
ATOM     23  C   UNL     1       2.521   2.727  21.707  0.00  0.00    +0.000 C 
ATOM     24  O   UNL     1       1.498   2.155  22.072  0.00  0.00    +0.000 OA
BRANCH  23  25
ATOM     25  O   UNL     1       3.722   2.126  21.534  0.00  0.00    +0.000 OA
BRANCH  25  27
ATOM     26  C   UNL     1       3.850   1.342  19.224  0.00  0.00    +0.000 C 
ATOM     27  C   UNL     1       4.339   2.349  20.252  0.00  0.00    +0.000 C 
ENDBRANCH  25  27
ENDBRANCH  23  25
ENDBRANCH  22  23
ENDBRANCH   1  22
TORSDOF 5
ENDMDL
MODEL 3
REMARK VINA RESULT:      -7.7      1.089      1.855
REMARK  Name = 
REMARK  6 active torsions:
REMARK  status: ('A' for Active; 'I' for Inactive)
REMARK    1  A    between atoms: C_1  and  C_2
REMARK    2  A    between atoms: C_2  and  O_3
REMARK    3  A    between atoms: O_3  and  C_4
REMARK    4  A    between atoms: C_4  and  C_6
REMARK    5  A    between atoms: C_6  and  C_7
REMARK    6  A    between atoms: C_21  and  C_22
REMARK                            x       y       z     vdW  Elec       q    Type
REMARK                         _______ _______ _______ _____ _____    ______ ____
ROOT
ATOM      1  C   UNL     1       4.697   6.456  16.968  0.00  0.00    +0.000 C 
ATOM      2  C   UNL     1       3.470   7.351  16.752  0.00  0.00    +0.000 C 
ATOM      3  C   UNL     1       2.721   7.531  18.036  0.00  0.00    +0.000 C 
ATOM      4  C   UNL     1       2.796   6.595  18.992  0.00  0.00    +0.000 C 
ATOM      5  C   UNL     1       2.217   6.829  20.338  0.00  0.00    +0.000 C 
ATOM      6  O   UNL     1       2.368   6.024  21.249  0.00  0.00    +0.000 OA
ATOM      7  C   UNL     1       1.514   8.107  20.573  0.00  0.00    +0.000 A 
ATOM      8  C   UNL     1       1.000   8.395  21.845  0.00  0.00    +0.000 A 
ATOM      9  C   UNL     1       0.371   9.616  22.088  0.00  0.00    +0.000 A 
ATOM     10  C   UNL     1       0.248  10.555  21.064  0.00  0.00    +0.000 A 
ATOM     11  C   UNL     1       0.748  10.269  19.794  0.00  0.00    +0.000 A 
ATOM     12  C   UNL     1       1.384   9.047  19.548  0.00  0.00    +0.000 A 
ATOM     13  C   UNL     1       1.936   8.772  18.212  0.00  0.00    +0.000 C 
ATOM     14  O   UNL     1       1.749   9.540  17.280  0.00  0.00    +0.000 OA
ATOM     15  C   UNL     1       3.527   5.283  18.781  0.00  0.00    +0.000 C 
ATOM     16  O   UNL     1       4.254   5.207  17.529  0.00  0.00    +0.000 OA
ENDROOT
BRANCH  15  17
ATOM     17  C   UNL     1       2.625   4.067  18.766  0.00  0.00    +0.000 A 
ATOM     18  C   UNL     1       1.357   3.950  18.225  0.00  0.00    +0.000 A 
ATOM     19  C   UNL     1       0.791   2.661  18.438  0.00  0.00    +0.000 A 
ATOM     20  C   UNL     1       1.651   1.824  19.113  0.00  0.00    +0.000 A 
ATOM     21  S   UNL     1       3.139   2.582  19.466  0.00  0.00    +0.000 S 
ENDBRANCH  15  17
BRANCH   1  22
ATOM     22  C   UNL     1       5.835   7.014  17.827  0.00  0.00    +0.000 C 
BRANCH  22  23
ATOM     23  C   UNL     1       7.201   6.403  17.675  0.00  0.00    +0.000 C 
ATOM     24  O   UNL     1       7.912   6.160  18.646  0.00  0.00    +0.000 OA
BRANCH  23  25
ATOM     25  O   UNL     1       7.505   6.078  16.396  0.00  0.00    +0.000 OA
BRANCH  25  27
ATOM     26  C   UNL     1       6.749   4.465  14.723  0.00  0.00    +0.000 C 
ATOM     27  C   UNL     1       7.403   4.677  16.079  0.00  0.00    +0.000 C 
ENDBRANCH  25  27
ENDBRANCH  23  25
ENDBRANCH  22  23
ENDBRANCH   1  22
TORSDOF 5
ENDMDL
MODEL 4
REMARK VINA RESULT:      -7.5      0.977      1.360
REMARK  Name = 
REMARK  6 active torsions:
REMARK  status: ('A' for Active; 'I' for Inactive)
REMARK    1  A    between atoms: C_1  and  C_2
REMARK    2  A    between atoms: C_2  and  O_3
REMARK    3  A    between atoms: O_3  and  C_4
REMARK    4  A    between atoms: C_4  and  C_6
REMARK    5  A    between atoms: C_6  and  C_7
REMARK    6  A    between atoms: C_21  and  C_22
REMARK                            x       y       z     vdW  Elec       q    Type
REMARK                         _______ _______ _______ _____ _____    ______ ____
ROOT
ATOM      1  C   UNL     1       4.671   6.495  16.987  0.00  0.00    +0.000 C 
ATOM      2  C   UNL     1       3.435   7.377  16.766  0.00  0.00    +0.000 C 
ATOM      3  C   UNL     1       2.683   7.554  18.049  0.00  0.00    +0.000 C 
ATOM      4  C   UNL     1       2.766   6.621  19.008  0.00  0.00    +0.000 C 
ATOM      5  C   UNL     1       2.182   6.854  20.353  0.00  0.00    +0.000 C 
ATOM      6  O   UNL     1       2.341   6.053  21.266  0.00  0.00    +0.000 OA
ATOM      7  C   UNL     1       1.466   8.125  20.582  0.00  0.00    +0.000 A 
ATOM      8  C   UNL     1       0.947   8.412  21.853  0.00  0.00    +0.000 A 
ATOM      9  C   UNL     1       0.305   9.628  22.090  0.00  0.00    +0.000 A 
ATOM     10  C   UNL     1       0.174  10.561  21.063  0.00  0.00    +0.000 A 
ATOM     11  C   UNL     1       0.679  10.277  19.795  0.00  0.00    +0.000 A 
ATOM     12  C   UNL     1       1.328   9.060  19.554  0.00  0.00    +0.000 A 
ATOM     13  C   UNL     1       1.885   8.786  18.220  0.00  0.00    +0.000 C 
ATOM     14  O   UNL     1       1.691   9.550  17.285  0.00  0.00    +0.000 OA
ATOM     15  C   UNL     1       3.510   5.317  18.802  0.00  0.00    +0.000 C 
ATOM     16  O   UNL     1       4.241   5.244  17.551  0.00  0.00    +0.000 OA
ENDROOT
BRANCH  15  17
ATOM     17  C   UNL     1       2.622   4.091  18.790  0.00  0.00    +0.000 A 
ATOM     18  C   UNL     1       1.369   3.950  18.221  0.00  0.00    +0.000 A 
ATOM     19  C   UNL     1       0.810   2.660  18.446  0.00  0.00    +0.000 A 
ATOM     20  C   UNL     1       1.661   1.846  19.159  0.00  0.00    +0.000 A 
ATOM     21  S   UNL     1       3.132   2.626  19.534  0.00  0.00    +0.000 S 
ENDBRANCH  15  17
BRANCH   1  22
ATOM     22  C   UNL     1       5.802   7.068  17.846  0.00  0.00    +0.000 C 
BRANCH  22  23
ATOM     23  C   UNL     1       7.197   7.043  17.285  0.00  0.00    +0.000 C 
ATOM     24  O   UNL     1       7.862   8.068  17.160  0.00  0.00    +0.000 OA
BRANCH  23  25
ATOM     25  O   UNL     1       7.651   5.793  17.029  0.00  0.00    +0.000 OA
BRANCH  25  27
ATOM     26  C   UNL     1       8.155   5.552  19.407  0.00  0.00    +0.000 C 
ATOM     27  C   UNL     1       7.620   4.889  18.150  0.00  0.00    +0.000 C 
ENDBRANCH  25  27
ENDBRANCH  23  25
ENDBRANCH  22  23
ENDBRANCH   1  22
TORSDOF 5
ENDMDL
MODEL 5
REMARK VINA RESULT:      -7.3      3.508      6.467
REMARK  Name = 
REMARK  6 active torsions:
REMARK  status: ('A' for Active; 'I' for Inactive)
REMARK    1  A    between atoms: C_1  and  C_2
REMARK    2  A    between atoms: C_2  and  O_3
REMARK    3  A    between atoms: O_3  and  C_4
REMARK    4  A    between atoms: C_4  and  C_6
REMARK    5  A    between atoms: C_6  and  C_7
REMARK    6  A    between atoms: C_21  and  C_22
REMARK                            x       y       z     vdW  Elec       q    Type
REMARK                         _______ _______ _______ _____ _____    ______ ____
ROOT
ATOM      1  C   UNL     1       6.132   3.940  14.866  0.00  0.00    +0.000 C 
ATOM      2  C   UNL     1       5.810   2.994  16.031  0.00  0.00    +0.000 C 
ATOM      3  C   UNL     1       4.873   3.654  16.995  0.00  0.00    +0.000 C 
ATOM      4  C   UNL     1       4.847   4.989  17.097  0.00  0.00    +0.000 C 
ATOM      5  C   UNL     1       3.808   5.675  17.906  0.00  0.00    +0.000 C 
ATOM      6  O   UNL     1       3.712   6.896  17.923  0.00  0.00    +0.000 OA
ATOM      7  C   UNL     1       2.835   4.833  18.632  0.00  0.00    +0.000 A 
ATOM      8  C   UNL     1       1.802   5.437  19.363  0.00  0.00    +0.000 A 
ATOM      9  C   UNL     1       0.855   4.651  20.020  0.00  0.00    +0.000 A 
ATOM     10  C   UNL     1       0.933   3.261  19.954  0.00  0.00    +0.000 A 
ATOM     11  C   UNL     1       1.964   2.655  19.236  0.00  0.00    +0.000 A 
ATOM     12  C   UNL     1       2.914   3.440  18.573  0.00  0.00    +0.000 A 
ATOM     13  C   UNL     1       3.978   2.788  17.793  0.00  0.00    +0.000 C 
ATOM     14  O   UNL     1       4.119   1.574  17.807  0.00  0.00    +0.000 OA
ATOM     15  C   UNL     1       5.823   5.875  16.347  0.00  0.00    +0.000 C 
ATOM     16  O   UNL     1       6.667   5.161  15.408  0.00  0.00    +0.000 OA
ENDROOT
BRANCH  15  17
ATOM     17  C   UNL     1       6.796   6.617  17.237  0.00  0.00    +0.000 A 
ATOM     18  C   UNL     1       7.215   7.931  17.136  0.00  0.00    +0.000 A 
ATOM     19  C   UNL     1       8.177   8.275  18.128  0.00  0.00    +0.000 A 
ATOM     20  C   UNL     1       8.446   7.223  18.973  0.00  0.00    +0.000 A 
ATOM     21  S   UNL     1       7.528   5.837  18.585  0.00  0.00    +0.000 S 
ENDBRANCH  15  17
BRANCH   1  22
ATOM     22  C   UNL     1       4.996   4.278  13.897  0.00  0.00    +0.000 C 
BRANCH  22  23
ATOM     23  C   UNL     1       5.034   3.666  12.524  0.00  0.00    +0.000 C 
ATOM     24  O   UNL     1       6.084   3.281  12.017  0.00  0.00    +0.000 OA
BRANCH  23  25
ATOM     25  O   UNL     1       3.808   3.512  11.970  0.00  0.00    +0.000 OA
BRANCH  25  27
ATOM     26  C   UNL     1       3.034   4.104   9.730  0.00  0.00    +0.000 C 
ATOM     27  C   UNL     1       3.807   3.115  10.586  0.00  0.00    +0.000 C 
ENDBRANCH  25  27
ENDBRANCH  23  25
ENDBRANCH  22  23
ENDBRANCH   1  22
TORSDOF 5
ENDMDL
MODEL 6
REMARK VINA RESULT:      -7.3      1.369      1.649
REMARK  Name = 
REMARK  6 active torsions:
REMARK  status: ('A' for Active; 'I' for Inactive)
REMARK    1  A    between atoms: C_1  and  C_2
REMARK    2  A    between atoms: C_2  and  O_3
REMARK    3  A    between atoms: O_3  and  C_4
REMARK    4  A    between atoms: C_4  and  C_6
REMARK    5  A    between atoms: C_6  and  C_7
REMARK    6  A    between atoms: C_21  and  C_22
REMARK                            x       y       z     vdW  Elec       q    Type
REMARK                         _______ _______ _______ _____ _____    ______ ____
ROOT
ATOM      1  C   UNL     1       5.378   4.862  18.222  0.00  0.00    +0.000 C 
ATOM      2  C   UNL     1       4.570   5.770  17.285  0.00  0.00    +0.000 C 
ATOM      3  C   UNL     1       3.531   6.524  18.055  0.00  0.00    +0.000 C 
ATOM      4  C   UNL     1       3.045   6.018  19.197  0.00  0.00    +0.000 C 
ATOM      5  C   UNL     1       2.154   6.822  20.071  0.00  0.00    +0.000 C 
ATOM      6  O   UNL     1       1.788   6.408  21.165  0.00  0.00    +0.000 OA
ATOM      7  C   UNL     1       1.784   8.177  19.617  0.00  0.00    +0.000 A 
ATOM      8  C   UNL     1       0.991   8.993  20.436  0.00  0.00    +0.000 A 
ATOM      9  C   UNL     1       0.669  10.290  20.034  0.00  0.00    +0.000 A 
ATOM     10  C   UNL     1       1.133  10.778  18.814  0.00  0.00    +0.000 A 
ATOM     11  C   UNL     1       1.914   9.968  17.991  0.00  0.00    +0.000 A 
ATOM     12  C   UNL     1       2.242   8.668  18.392  0.00  0.00    +0.000 A 
ATOM     13  C   UNL     1       3.093   7.834  17.529  0.00  0.00    +0.000 C 
ATOM     14  O   UNL     1       3.424   8.211  16.414  0.00  0.00    +0.000 OA
ATOM     15  C   UNL     1       3.424   4.636  19.693  0.00  0.00    +0.000 C 
ATOM     16  O   UNL     1       4.462   3.992  18.912  0.00  0.00    +0.000 OA
ENDROOT
BRANCH  15  17
ATOM     17  C   UNL     1       2.283   3.642  19.693  0.00  0.00    +0.000 A 
ATOM     18  C   UNL     1       1.570   3.159  20.775  0.00  0.00    +0.000 A 
ATOM     19  C   UNL     1       0.590   2.198  20.397  0.00  0.00    +0.000 A 
ATOM     20  C   UNL     1       0.565   1.993  19.037  0.00  0.00    +0.000 A 
ATOM     21  S   UNL     1       1.702   2.970  18.220  0.00  0.00    +0.000 S 
ENDBRANCH  15  17
BRANCH   1  22
ATOM     22  C   UNL     1       6.291   5.541  19.247  0.00  0.00    +0.000 C 
BRANCH  22  23
ATOM     23  C   UNL     1       7.759   5.630  18.934  0.00  0.00    +0.000 C 
ATOM     24  O   UNL     1       8.429   4.631  18.687  0.00  0.00    +0.000 OA
BRANCH  23  25
ATOM     25  O   UNL     1       8.219   6.902  18.869  0.00  0.00    +0.000 OA
BRANCH  25  27
ATOM     26  C   UNL     1       8.082   9.132  17.881  0.00  0.00    +0.000 C 
ATOM     27  C   UNL     1       7.788   7.651  17.717  0.00  0.00    +0.000 C 
ENDBRANCH  25  27
ENDBRANCH  23  25
ENDBRANCH  22  23
ENDBRANCH   1  22
TORSDOF 5
ENDMDL
MODEL 7
REMARK VINA RESULT:      -6.8      5.606      8.338
REMARK  Name = 
REMARK  6 active torsions:
REMARK  status: ('A' for Active; 'I' for Inactive)
REMARK    1  A    between atoms: C_1  and  C_2
REMARK    2  A    between atoms: C_2  and  O_3
REMARK    3  A    between atoms: O_3  and  C_4
REMARK    4  A    between atoms: C_4  and  C_6
REMARK    5  A    between atoms: C_6  and  C_7
REMARK    6  A    between atoms: C_21  and  C_22
REMARK                            x       y       z     vdW  Elec       q    Type
REMARK                         _______ _______ _______ _____ _____    ______ ____
ROOT
ATOM      1  C   UNL     1       0.376   9.763  19.902  0.00  0.00    +0.000 C 
ATOM      2  C   UNL     1       1.231  10.435  18.819  0.00  0.00    +0.000 C 
ATOM      3  C   UNL     1       0.962  11.907  18.779  0.00  0.00    +0.000 C 
ATOM      4  C   UNL     1      -0.221  12.383  19.190  0.00  0.00    +0.000 C 
ATOM      5  C   UNL     1      -0.450  13.843  19.334  0.00  0.00    +0.000 C 
ATOM      6  O   UNL     1      -1.491  14.284  19.806  0.00  0.00    +0.000 OA
ATOM      7  C   UNL     1       0.653  14.753  18.963  0.00  0.00    +0.000 A 
ATOM      8  C   UNL     1       0.503  16.136  19.135  0.00  0.00    +0.000 A 
ATOM      9  C   UNL     1       1.553  17.000  18.825  0.00  0.00    +0.000 A 
ATOM     10  C   UNL     1       2.757  16.491  18.340  0.00  0.00    +0.000 A 
ATOM     11  C   UNL     1       2.909  15.117  18.158  0.00  0.00    +0.000 A 
ATOM     12  C   UNL     1       1.858  14.247  18.471  0.00  0.00    +0.000 A 
ATOM     13  C   UNL     1       2.043  12.797  18.304  0.00  0.00    +0.000 C 
ATOM     14  O   UNL     1       3.054  12.343  17.787  0.00  0.00    +0.000 OA
ATOM     15  C   UNL     1      -1.362  11.470  19.594  0.00  0.00    +0.000 C 
ATOM     16  O   UNL     1      -1.006  10.065  19.641  0.00  0.00    +0.000 OA
ENDROOT
BRANCH  15  17
ATOM     17  C   UNL     1      -2.557  11.523  18.666  0.00  0.00    +0.000 A 
ATOM     18  C   UNL     1      -3.855  11.896  18.964  0.00  0.00    +0.000 A 
ATOM     19  C   UNL     1      -4.726  11.781  17.844  0.00  0.00    +0.000 A 
ATOM     20  C   UNL     1      -4.065  11.347  16.718  0.00  0.00    +0.000 A 
ATOM     21  S   UNL     1      -2.400  11.102  17.005  0.00  0.00    +0.000 S 
ENDBRANCH  15  17
BRANCH   1  22
ATOM     22  C   UNL     1       0.695  10.100  21.362  0.00  0.00    +0.000 C 
BRANCH  22  23
ATOM     23  C   UNL     1      -0.259   9.622  22.421  0.00  0.00    +0.000 C 
ATOM     24  O   UNL     1      -0.708   8.480  22.418  0.00  0.00    +0.000 OA
BRANCH  23  25
ATOM     25  O   UNL     1      -0.483  10.537  23.394  0.00  0.00    +0.000 OA
BRANCH  25  27
ATOM     26  C   UNL     1      -1.229  12.837  23.045  0.00  0.00    +0.000 C 
ATOM     27  C   UNL     1      -1.633  11.380  23.189  0.00  0.00    +0.000 C 
ENDBRANCH  25  27
ENDBRANCH  23  25
ENDBRANCH  22  23
ENDBRANCH   1  22
TORSDOF 5
ENDMDL
MODEL 8
REMARK VINA RESULT:      -6.7      3.514      6.372
REMARK  Name = 
REMARK  6 active torsions:
REMARK  status: ('A' for Active; 'I' for Inactive)
REMARK    1  A    between atoms: C_1  and  C_2
REMARK    2  A    between atoms: C_2  and  O_3
REMARK    3  A    between atoms: O_3  and  C_4
REMARK    4  A    between atoms: C_4  and  C_6
REMARK    5  A    between atoms: C_6  and  C_7
REMARK    6  A    between atoms: C_21  and  C_22
REMARK                            x       y       z     vdW  Elec       q    Type
REMARK                         _______ _______ _______ _____ _____    ______ ____
ROOT
ATOM      1  C   UNL     1       6.272   4.072  14.985  0.00  0.00    +0.000 C 
ATOM      2  C   UNL     1       5.944   3.161  16.177  0.00  0.00    +0.000 C 
ATOM      3  C   UNL     1       4.982   3.838  17.103  0.00  0.00    +0.000 C 
ATOM      4  C   UNL     1       4.934   5.176  17.158  0.00  0.00    +0.000 C 
ATOM      5  C   UNL     1       3.871   5.872  17.926  0.00  0.00    +0.000 C 
ATOM      6  O   UNL     1       3.756   7.091  17.900  0.00  0.00    +0.000 OA
ATOM      7  C   UNL     1       2.900   5.040  18.666  0.00  0.00    +0.000 A 
ATOM      8  C   UNL     1       1.846   5.652  19.360  0.00  0.00    +0.000 A 
ATOM      9  C   UNL     1       0.900   4.874  20.028  0.00  0.00    +0.000 A 
ATOM     10  C   UNL     1       1.001   3.483  20.011  0.00  0.00    +0.000 A 
ATOM     11  C   UNL     1       2.053   2.870  19.331  0.00  0.00    +0.000 A 
ATOM     12  C   UNL     1       3.002   3.648  18.656  0.00  0.00    +0.000 A 
ATOM     13  C   UNL     1       4.088   2.986  17.916  0.00  0.00    +0.000 C 
ATOM     14  O   UNL     1       4.247   1.776  17.974  0.00  0.00    +0.000 OA
ATOM     15  C   UNL     1       5.908   6.051  16.394  0.00  0.00    +0.000 C 
ATOM     16  O   UNL     1       6.778   5.319  15.493  0.00  0.00    +0.000 OA
ENDROOT
BRANCH  15  17
ATOM     17  C   UNL     1       6.855   6.839  17.273  0.00  0.00    +0.000 A 
ATOM     18  C   UNL     1       7.216   8.170  17.163  0.00  0.00    +0.000 A 
ATOM     19  C   UNL     1       8.169   8.559  18.146  0.00  0.00    +0.000 A 
ATOM     20  C   UNL     1       8.490   7.523  18.993  0.00  0.00    +0.000 A 
ATOM     21  S   UNL     1       7.630   6.097  18.618  0.00  0.00    +0.000 S 
ENDBRANCH  15  17
BRANCH   1  22
ATOM     22  C   UNL     1       5.146   4.359  13.987  0.00  0.00    +0.000 C 
BRANCH  22  23
ATOM     23  C   UNL     1       5.118   3.567  12.709  0.00  0.00    +0.000 C 
ATOM     24  O   UNL     1       4.194   3.668  11.907  0.00  0.00    +0.000 OA
BRANCH  23  25
ATOM     25  O   UNL     1       6.235   2.827  12.510  0.00  0.00    +0.000 OA
BRANCH  25  27
ATOM     26  C   UNL     1       6.177   0.795  11.156  0.00  0.00    +0.000 C 
ATOM     27  C   UNL     1       6.390   2.299  11.180  0.00  0.00    +0.000 C 
ENDBRANCH  25  27
ENDBRANCH  23  25
ENDBRANCH  22  23
ENDBRANCH   1  22
TORSDOF 5
ENDMDL
MODEL 9
REMARK VINA RESULT:      -6.6      3.207      5.936
REMARK  Name = 
REMARK  6 active torsions:
REMARK  status: ('A' for Active; 'I' for Inactive)
REMARK    1  A    between atoms: C_1  and  C_2
REMARK    2  A    between atoms: C_2  and  O_3
REMARK    3  A    between atoms: O_3  and  C_4
REMARK    4  A    between atoms: C_4  and  C_6
REMARK    5  A    between atoms: C_6  and  C_7
REMARK    6  A    between atoms: C_21  and  C_22
REMARK                            x       y       z     vdW  Elec       q    Type
REMARK                         _______ _______ _______ _____ _____    ______ ____
ROOT
ATOM      1  C   UNL     1       6.157   3.896  15.134  0.00  0.00    +0.000 C 
ATOM      2  C   UNL     1       5.817   3.047  16.366  0.00  0.00    +0.000 C 
ATOM      3  C   UNL     1       4.878   3.787  17.268  0.00  0.00    +0.000 C 
ATOM      4  C   UNL     1       4.862   5.127  17.263  0.00  0.00    +0.000 C 
ATOM      5  C   UNL     1       3.822   5.881  18.007  0.00  0.00    +0.000 C 
ATOM      6  O   UNL     1       3.737   7.101  17.927  0.00  0.00    +0.000 OA
ATOM      7  C   UNL     1       2.837   5.107  18.789  0.00  0.00    +0.000 A 
ATOM      8  C   UNL     1       1.803   5.775  19.462  0.00  0.00    +0.000 A 
ATOM      9  C   UNL     1       0.844   5.050  20.170  0.00  0.00    +0.000 A 
ATOM     10  C   UNL     1       0.911   3.658  20.214  0.00  0.00    +0.000 A 
ATOM     11  C   UNL     1       1.943   2.990  19.555  0.00  0.00    +0.000 A 
ATOM     12  C   UNL     1       2.905   3.714  18.840  0.00  0.00    +0.000 A 
ATOM     13  C   UNL     1       3.969   2.994  18.123  0.00  0.00    +0.000 C 
ATOM     14  O   UNL     1       4.100   1.784  18.234  0.00  0.00    +0.000 OA
ATOM     15  C   UNL     1       5.851   5.943  16.455  0.00  0.00    +0.000 C 
ATOM     16  O   UNL     1       6.697   5.151  15.582  0.00  0.00    +0.000 OA
ENDROOT
BRANCH  15  17
ATOM     17  C   UNL     1       6.824   6.746  17.292  0.00  0.00    +0.000 A 
ATOM     18  C   UNL     1       7.201   8.067  17.132  0.00  0.00    +0.000 A 
ATOM     19  C   UNL     1       8.176   8.475  18.087  0.00  0.00    +0.000 A 
ATOM     20  C   UNL     1       8.496   7.463  18.962  0.00  0.00    +0.000 A 
ATOM     21  S   UNL     1       7.611   6.037  18.648  0.00  0.00    +0.000 S 
ENDBRANCH  15  17
BRANCH   1  22
ATOM     22  C   UNL     1       5.031   4.165  14.131  0.00  0.00    +0.000 C 
BRANCH  22  23
ATOM     23  C   UNL     1       5.209   3.674  12.721  0.00  0.00    +0.000 C 
ATOM     24  O   UNL     1       4.269   3.615  11.934  0.00  0.00    +0.000 OA
BRANCH  23  25
ATOM     25  O   UNL     1       6.498   3.402  12.405  0.00  0.00    +0.000 OA
BRANCH  25  27
ATOM     26  C   UNL     1       7.965   5.354  12.415  0.00  0.00    +0.000 C 
ATOM     27  C   UNL     1       7.147   4.386  11.578  0.00  0.00    +0.000 C 
ENDBRANCH  25  27
ENDBRANCH  23  25
ENDBRANCH  22  23
ENDBRANCH   1  22
TORSDOF 5
ENDMDL
