MODEL 1
REMARK VINA RESULT:      -7.7      0.000      0.000
REMARK  Name = 
REMARK  14 active torsions:
REMARK  status: ('A' for Active; 'I' for Inactive)
REMARK    1  A    between atoms: C_2  and  C_3
REMARK    2  A    between atoms: C_3  and  C_4
REMARK    3  A    between atoms: C_6  and  C_7
REMARK    4  A    between atoms: N_9  and  C_10
REMARK    5  A    between atoms: C_10  and  C_11
REMARK    6  A    between atoms: C_10  and  C_12
REMARK    7  A    between atoms: C_12  and  C_13
REMARK    8  A    between atoms: C_13  and  C_14
REMARK    9  A    between atoms: C_14  and  C_15
REMARK   10  A    between atoms: C_23  and  C_24
REMARK   11  A    between atoms: C_27  and  O_28
REMARK   12  A    between atoms: O_28  and  C_29
REMARK   13  A    between atoms: C_30  and  O_31
REMARK   14  A    between atoms: O_31  and  C_32
REMARK                            x       y       z     vdW  Elec       q    Type
REMARK                         _______ _______ _______ _____ _____    ______ ____
ROOT
ATOM      1  C   UNL     1       1.193   8.432  20.267  0.00  0.00    +0.000 A 
ATOM      2  C   UNL     1       2.120   7.406  19.918  0.00  0.00    +0.000 A 
ATOM      3  C   UNL     1       2.825   7.405  18.702  0.00  0.00    +0.000 A 
ATOM      4  C   UNL     1       2.555   8.431  17.803  0.00  0.00    +0.000 A 
ATOM      5  C   UNL     1       1.711   9.486  18.169  0.00  0.00    +0.000 A 
ATOM      6  C   UNL     1       1.016   9.540  19.403  0.00  0.00    +0.000 A 
ENDROOT
BRANCH   6   7
ATOM      7  C   UNL     1       0.184  10.753  19.674  0.00  0.00    +0.000 A 
ATOM      8  C   UNL     1       0.707  11.955  20.165  0.00  0.00    +0.000 A 
ATOM      9  C   UNL     1      -0.086  13.097  20.309  0.00  0.00    +0.000 A 
ATOM     10  C   UNL     1      -1.420  13.112  19.895  0.00  0.00    +0.000 A 
ATOM     11  C   UNL     1      -1.979  11.934  19.380  0.00  0.00    +0.000 A 
ATOM     12  C   UNL     1      -1.186  10.773  19.332  0.00  0.00    +0.000 A 
BRANCH  10  13
ATOM     13  O   UNL     1      -2.000  14.343  20.053  0.00  0.00    +0.000 OA
ATOM     14  C   UNL     1      -2.715  14.612  21.245  0.00  0.00    +0.000 C 
ENDBRANCH  10  13
BRANCH  11  15
ATOM     15  O   UNL     1      -3.271  11.962  18.928  0.00  0.00    +0.000 OA
ATOM     16  C   UNL     1      -3.547  11.446  17.632  0.00  0.00    +0.000 C 
ENDBRANCH  11  15
ENDBRANCH   6   7
BRANCH   3  17
ATOM     17  C   UNL     1       3.851   6.329  18.438  0.00  0.00    +0.000 C 
ATOM     18  O   UNL     1       4.340   5.707  19.380  0.00  0.00    +0.000 OA
ATOM     19  N   UNL     1       4.223   6.114  17.126  0.00  0.00    +0.000 N 
ATOM     20  H   UNL     1       3.770   6.637  16.393  0.00  0.00    +0.000 HD
BRANCH  19  21
ATOM     21  C   UNL     1       5.217   5.143  16.660  0.00  0.00    +0.000 C 
ATOM     22  C   UNL     1       6.235   5.775  15.712  0.00  0.00    +0.000 C 
BRANCH  21  23
ATOM     23  C   UNL     1       4.592   3.846  16.099  0.00  0.00    +0.000 C 
BRANCH  23  24
ATOM     24  C   UNL     1       4.211   2.861  17.220  0.00  0.00    +0.000 C 
BRANCH  24  25
ATOM     25  C   UNL     1       2.702   2.789  17.475  0.00  0.00    +0.000 C 
BRANCH  25  26
ATOM     26  C   UNL     1       2.362   3.015  18.924  0.00  0.00    +0.000 A 
ATOM     27  C   UNL     1       1.258   3.787  19.303  0.00  0.00    +0.000 A 
ATOM     28  C   UNL     1       0.971   3.983  20.652  0.00  0.00    +0.000 A 
ATOM     29  C   UNL     1       1.796   3.388  21.592  0.00  0.00    +0.000 A 
ATOM     30  N   UNL     1       2.862   2.621  21.272  0.00  0.00    +0.000 NA
ATOM     31  C   UNL     1       3.117   2.453  19.953  0.00  0.00    +0.000 A 
ENDBRANCH  25  26
ENDBRANCH  24  25
ENDBRANCH  23  24
ENDBRANCH  21  23
ENDBRANCH  19  21
ENDBRANCH   3  17
BRANCH   1  32
ATOM     32  C   UNL     1       0.407   8.234  21.557  0.00  0.00    +0.000 C 
BRANCH  32  34
ATOM     33  C   UNL     1      -0.423   9.977  23.241  0.00  0.00    +0.000 C 
ATOM     34  C   UNL     1       0.548   9.281  22.633  0.00  0.00    +0.000 C 
ENDBRANCH  32  34
ENDBRANCH   1  32
TORSDOF 11
ENDMDL
MODEL 2
REMARK VINA RESULT:      -7.7      0.747      1.712
REMARK  Name = 
REMARK  14 active torsions:
REMARK  status: ('A' for Active; 'I' for Inactive)
REMARK    1  A    between atoms: C_2  and  C_3
REMARK    2  A    between atoms: C_3  and  C_4
REMARK    3  A    between atoms: C_6  and  C_7
REMARK    4  A    between atoms: N_9  and  C_10
REMARK    5  A    between atoms: C_10  and  C_11
REMARK    6  A    between atoms: C_10  and  C_12
REMARK    7  A    between atoms: C_12  and  C_13
REMARK    8  A    between atoms: C_13  and  C_14
REMARK    9  A    between atoms: C_14  and  C_15
REMARK   10  A    between atoms: C_23  and  C_24
REMARK   11  A    between atoms: C_27  and  O_28
REMARK   12  A    between atoms: O_28  and  C_29
REMARK   13  A    between atoms: C_30  and  O_31
REMARK   14  A    between atoms: O_31  and  C_32
REMARK                            x       y       z     vdW  Elec       q    Type
REMARK                         _______ _______ _______ _____ _____    ______ ____
ROOT
ATOM      1  C   UNL     1       1.090   8.542  20.193  0.00  0.00    +0.000 A 
ATOM      2  C   UNL     1       2.028   7.501  19.929  0.00  0.00    +0.000 A 
ATOM      3  C   UNL     1       2.790   7.451  18.749  0.00  0.00    +0.000 A 
ATOM      4  C   UNL     1       2.568   8.441  17.798  0.00  0.00    +0.000 A 
ATOM      5  C   UNL     1       1.712   9.512  18.082  0.00  0.00    +0.000 A 
ATOM      6  C   UNL     1       0.959   9.616  19.279  0.00  0.00    +0.000 A 
ENDROOT
BRANCH   6   7
ATOM      7  C   UNL     1       0.119  10.840  19.462  0.00  0.00    +0.000 A 
ATOM      8  C   UNL     1      -1.280  10.823  19.475  0.00  0.00    +0.000 A 
ATOM      9  C   UNL     1      -2.026  11.973  19.749  0.00  0.00    +0.000 A 
ATOM     10  C   UNL     1      -1.406  13.175  20.102  0.00  0.00    +0.000 A 
ATOM     11  C   UNL     1      -0.006  13.231  20.119  0.00  0.00    +0.000 A 
ATOM     12  C   UNL     1       0.723  12.085  19.748  0.00  0.00    +0.000 A 
BRANCH  10  13
ATOM     13  O   UNL     1      -2.312  14.158  20.403  0.00  0.00    +0.000 OA
ATOM     14  C   UNL     1      -3.639  13.786  20.727  0.00  0.00    +0.000 C 
ENDBRANCH  10  13
BRANCH  11  15
ATOM     15  O   UNL     1       0.601  14.393  20.512  0.00  0.00    +0.000 OA
ATOM     16  C   UNL     1       0.874  14.582  21.895  0.00  0.00    +0.000 C 
ENDBRANCH  11  15
ENDBRANCH   6   7
BRANCH   3  17
ATOM     17  C   UNL     1       3.823   6.363  18.576  0.00  0.00    +0.000 C 
ATOM     18  O   UNL     1       4.227   5.743  19.559  0.00  0.00    +0.000 OA
ATOM     19  N   UNL     1       4.300   6.136  17.301  0.00  0.00    +0.000 N 
ATOM     20  H   UNL     1       3.914   6.658  16.530  0.00  0.00    +0.000 HD
BRANCH  19  21
ATOM     21  C   UNL     1       5.319   5.153  16.924  0.00  0.00    +0.000 C 
ATOM     22  C   UNL     1       6.497   5.798  16.197  0.00  0.00    +0.000 C 
BRANCH  21  23
ATOM     23  C   UNL     1       4.744   3.929  16.176  0.00  0.00    +0.000 C 
BRANCH  23  24
ATOM     24  C   UNL     1       4.218   2.857  17.150  0.00  0.00    +0.000 C 
BRANCH  24  25
ATOM     25  C   UNL     1       2.704   2.932  17.371  0.00  0.00    +0.000 C 
BRANCH  25  26
ATOM     26  C   UNL     1       2.351   3.090  18.826  0.00  0.00    +0.000 A 
ATOM     27  C   UNL     1       1.236   3.832  19.230  0.00  0.00    +0.000 A 
ATOM     28  C   UNL     1       0.938   3.965  20.584  0.00  0.00    +0.000 A 
ATOM     29  C   UNL     1       1.763   3.339  21.503  0.00  0.00    +0.000 A 
ATOM     30  N   UNL     1       2.840   2.599  21.158  0.00  0.00    +0.000 NA
ATOM     31  C   UNL     1       3.105   2.491  19.835  0.00  0.00    +0.000 A 
ENDBRANCH  25  26
ENDBRANCH  24  25
ENDBRANCH  23  24
ENDBRANCH  21  23
ENDBRANCH  19  21
ENDBRANCH   3  17
BRANCH   1  32
ATOM     32  C   UNL     1       0.242   8.396  21.450  0.00  0.00    +0.000 C 
BRANCH  32  34
ATOM     33  C   UNL     1      -0.488  10.143  23.176  0.00  0.00    +0.000 C 
ATOM     34  C   UNL     1       0.441   9.406  22.552  0.00  0.00    +0.000 C 
ENDBRANCH  32  34
ENDBRANCH   1  32
TORSDOF 11
ENDMDL
MODEL 3
REMARK VINA RESULT:      -7.3      3.525      9.817
REMARK  Name = 
REMARK  14 active torsions:
REMARK  status: ('A' for Active; 'I' for Inactive)
REMARK    1  A    between atoms: C_2  and  C_3
REMARK    2  A    between atoms: C_3  and  C_4
REMARK    3  A    between atoms: C_6  and  C_7
REMARK    4  A    between atoms: N_9  and  C_10
REMARK    5  A    between atoms: C_10  and  C_11
REMARK    6  A    between atoms: C_10  and  C_12
REMARK    7  A    between atoms: C_12  and  C_13
REMARK    8  A    between atoms: C_13  and  C_14
REMARK    9  A    between atoms: C_14  and  C_15
REMARK   10  A    between atoms: C_23  and  C_24
REMARK   11  A    between atoms: C_27  and  O_28
REMARK   12  A    between atoms: O_28  and  C_29
REMARK   13  A    between atoms: C_30  and  O_31
REMARK   14  A    between atoms: O_31  and  C_32
REMARK                            x       y       z     vdW  Elec       q    Type
REMARK                         _______ _______ _______ _____ _____    ______ ____
ROOT
ATOM      1  C   UNL     1       2.257   6.448  20.020  0.00  0.00    +0.000 A 
ATOM      2  C   UNL     1       1.307   7.342  20.595  0.00  0.00    +0.000 A 
ATOM      3  C   UNL     1       1.010   8.595  20.033  0.00  0.00    +0.000 A 
ATOM      4  C   UNL     1       1.717   8.972  18.897  0.00  0.00    +0.000 A 
ATOM      5  C   UNL     1       2.590   8.070  18.277  0.00  0.00    +0.000 A 
ATOM      6  C   UNL     1       2.882   6.783  18.795  0.00  0.00    +0.000 A 
ENDROOT
BRANCH   6   7
ATOM      7  C   UNL     1       3.801   5.911  17.999  0.00  0.00    +0.000 A 
ATOM      8  C   UNL     1       3.400   4.715  17.394  0.00  0.00    +0.000 A 
ATOM      9  C   UNL     1       4.262   3.980  16.575  0.00  0.00    +0.000 A 
ATOM     10  C   UNL     1       5.540   4.450  16.259  0.00  0.00    +0.000 A 
ATOM     11  C   UNL     1       5.975   5.654  16.829  0.00  0.00    +0.000 A 
ATOM     12  C   UNL     1       5.122   6.327  17.724  0.00  0.00    +0.000 A 
BRANCH  10  13
ATOM     13  O   UNL     1       6.196   3.623  15.386  0.00  0.00    +0.000 OA
ATOM     14  C   UNL     1       6.161   3.926  14.003  0.00  0.00    +0.000 C 
ENDBRANCH  10  13
BRANCH  11  15
ATOM     15  O   UNL     1       7.207   6.140  16.480  0.00  0.00    +0.000 OA
ATOM     16  C   UNL     1       7.711   7.272  17.176  0.00  0.00    +0.000 C 
ENDBRANCH  11  15
ENDBRANCH   6   7
BRANCH   3  17
ATOM     17  C   UNL     1      -0.068   9.452  20.652  0.00  0.00    +0.000 C 
ATOM     18  O   UNL     1      -0.613   9.090  21.693  0.00  0.00    +0.000 OA
ATOM     19  N   UNL     1      -0.420  10.610  19.988  0.00  0.00    +0.000 N 
ATOM     20  H   UNL     1       0.079  10.869  19.151  0.00  0.00    +0.000 HD
BRANCH  19  21
ATOM     21  C   UNL     1      -1.455  11.562  20.401  0.00  0.00    +0.000 C 
ATOM     22  C   UNL     1      -2.338  11.992  19.232  0.00  0.00    +0.000 C 
BRANCH  21  23
ATOM     23  C   UNL     1      -0.902  12.754  21.214  0.00  0.00    +0.000 C 
BRANCH  23  24
ATOM     24  C   UNL     1      -0.989  12.503  22.731  0.00  0.00    +0.000 C 
BRANCH  24  25
ATOM     25  C   UNL     1      -2.321  11.887  23.168  0.00  0.00    +0.000 C 
BRANCH  25  26
ATOM     26  C   UNL     1      -3.433  12.902  23.189  0.00  0.00    +0.000 A 
ATOM     27  C   UNL     1      -4.517  12.817  22.308  0.00  0.00    +0.000 A 
ATOM     28  C   UNL     1      -5.528  13.774  22.348  0.00  0.00    +0.000 A 
ATOM     29  C   UNL     1      -5.433  14.791  23.282  0.00  0.00    +0.000 A 
ATOM     30  N   UNL     1      -4.415  14.904  24.163  0.00  0.00    +0.000 NA
ATOM     31  C   UNL     1      -3.446  13.961  24.097  0.00  0.00    +0.000 A 
ENDBRANCH  25  26
ENDBRANCH  24  25
ENDBRANCH  23  24
ENDBRANCH  21  23
ENDBRANCH  19  21
ENDBRANCH   3  17
BRANCH   1  32
ATOM     32  C   UNL     1       2.572   5.184  20.810  0.00  0.00    +0.000 C 
BRANCH  32  34
ATOM     33  C   UNL     1       0.892   3.522  19.819  0.00  0.00    +0.000 C 
ATOM     34  C   UNL     1       1.523   4.101  20.850  0.00  0.00    +0.000 C 
ENDBRANCH  32  34
ENDBRANCH   1  32
TORSDOF 11
ENDMDL
MODEL 4
REMARK VINA RESULT:      -7.1      7.090      8.388
REMARK  Name = 
REMARK  14 active torsions:
REMARK  status: ('A' for Active; 'I' for Inactive)
REMARK    1  A    between atoms: C_2  and  C_3
REMARK    2  A    between atoms: C_3  and  C_4
REMARK    3  A    between atoms: C_6  and  C_7
REMARK    4  A    between atoms: N_9  and  C_10
REMARK    5  A    between atoms: C_10  and  C_11
REMARK    6  A    between atoms: C_10  and  C_12
REMARK    7  A    between atoms: C_12  and  C_13
REMARK    8  A    between atoms: C_13  and  C_14
REMARK    9  A    between atoms: C_14  and  C_15
REMARK   10  A    between atoms: C_23  and  C_24
REMARK   11  A    between atoms: C_27  and  O_28
REMARK   12  A    between atoms: O_28  and  C_29
REMARK   13  A    between atoms: C_30  and  O_31
REMARK   14  A    between atoms: O_31  and  C_32
REMARK                            x       y       z     vdW  Elec       q    Type
REMARK                         _______ _______ _______ _____ _____    ______ ____
ROOT
ATOM      1  C   UNL     1       9.784  11.138  19.059  0.00  0.00    +0.000 A 
ATOM      2  C   UNL     1       9.294   9.799  19.010  0.00  0.00    +0.000 A 
ATOM      3  C   UNL     1       8.275   9.398  18.129  0.00  0.00    +0.000 A 
ATOM      4  C   UNL     1       7.707  10.373  17.317  0.00  0.00    +0.000 A 
ATOM      5  C   UNL     1       8.236  11.669  17.297  0.00  0.00    +0.000 A 
ATOM      6  C   UNL     1       9.290  12.098  18.142  0.00  0.00    +0.000 A 
ENDROOT
BRANCH   6   7
ATOM      7  C   UNL     1       9.780  13.501  17.977  0.00  0.00    +0.000 A 
ATOM      8  C   UNL     1      10.857  13.852  17.154  0.00  0.00    +0.000 A 
ATOM      9  C   UNL     1      11.220  15.185  16.948  0.00  0.00    +0.000 A 
ATOM     10  C   UNL     1      10.474  16.234  17.492  0.00  0.00    +0.000 A 
ATOM     11  C   UNL     1       9.376  15.928  18.308  0.00  0.00    +0.000 A 
ATOM     12  C   UNL     1       9.087  14.577  18.575  0.00  0.00    +0.000 A 
BRANCH  10  13
ATOM     13  O   UNL     1      10.949  17.462  17.113  0.00  0.00    +0.000 OA
ATOM     14  C   UNL     1      11.952  18.077  17.900  0.00  0.00    +0.000 C 
ENDBRANCH  10  13
BRANCH  11  15
ATOM     15  O   UNL     1       8.615  16.954  18.800  0.00  0.00    +0.000 OA
ATOM     16  C   UNL     1       7.204  16.888  18.644  0.00  0.00    +0.000 C 
ENDBRANCH  11  15
ENDBRANCH   6   7
BRANCH   3  17
ATOM     17  C   UNL     1       7.867   7.945  18.077  0.00  0.00    +0.000 C 
ATOM     18  O   UNL     1       8.395   7.134  18.837  0.00  0.00    +0.000 OA
ATOM     19  N   UNL     1       6.924   7.583  17.136  0.00  0.00    +0.000 N 
ATOM     20  H   UNL     1       6.508   8.295  16.556  0.00  0.00    +0.000 HD
BRANCH  19  21
ATOM     21  C   UNL     1       6.414   6.229  16.902  0.00  0.00    +0.000 C 
ATOM     22  C   UNL     1       7.330   5.422  15.983  0.00  0.00    +0.000 C 
BRANCH  21  23
ATOM     23  C   UNL     1       4.934   6.199  16.460  0.00  0.00    +0.000 C 
BRANCH  23  24
ATOM     24  C   UNL     1       3.998   6.752  17.551  0.00  0.00    +0.000 C 
BRANCH  24  25
ATOM     25  C   UNL     1       3.963   5.885  18.814  0.00  0.00    +0.000 C 
BRANCH  25  26
ATOM     26  C   UNL     1       3.288   4.561  18.572  0.00  0.00    +0.000 A 
ATOM     27  C   UNL     1       3.930   3.350  18.857  0.00  0.00    +0.000 A 
ATOM     28  C   UNL     1       3.282   2.141  18.618  0.00  0.00    +0.000 A 
ATOM     29  C   UNL     1       1.996   2.176  18.107  0.00  0.00    +0.000 A 
ATOM     30  N   UNL     1       1.330   3.319  17.832  0.00  0.00    +0.000 NA
ATOM     31  C   UNL     1       1.988   4.478  18.072  0.00  0.00    +0.000 A 
ENDBRANCH  25  26
ENDBRANCH  24  25
ENDBRANCH  23  24
ENDBRANCH  21  23
ENDBRANCH  19  21
ENDBRANCH   3  17
BRANCH   1  32
ATOM     32  C   UNL     1      10.795  11.457  20.151  0.00  0.00    +0.000 C 
BRANCH  32  34
ATOM     33  C   UNL     1       9.067  12.359  21.814  0.00  0.00    +0.000 C 
ATOM     34  C   UNL     1      10.317  12.249  21.342  0.00  0.00    +0.000 C 
ENDBRANCH  32  34
ENDBRANCH   1  32
TORSDOF 11
ENDMDL
MODEL 5
REMARK VINA RESULT:      -7.1      3.319      9.750
REMARK  Name = 
REMARK  14 active torsions:
REMARK  status: ('A' for Active; 'I' for Inactive)
REMARK    1  A    between atoms: C_2  and  C_3
REMARK    2  A    between atoms: C_3  and  C_4
REMARK    3  A    between atoms: C_6  and  C_7
REMARK    4  A    between atoms: N_9  and  C_10
REMARK    5  A    between atoms: C_10  and  C_11
REMARK    6  A    between atoms: C_10  and  C_12
REMARK    7  A    between atoms: C_12  and  C_13
REMARK    8  A    between atoms: C_13  and  C_14
REMARK    9  A    between atoms: C_14  and  C_15
REMARK   10  A    between atoms: C_23  and  C_24
REMARK   11  A    between atoms: C_27  and  O_28
REMARK   12  A    between atoms: O_28  and  C_29
REMARK   13  A    between atoms: C_30  and  O_31
REMARK   14  A    between atoms: O_31  and  C_32
REMARK                            x       y       z     vdW  Elec       q    Type
REMARK                         _______ _______ _______ _____ _____    ______ ____
ROOT
ATOM      1  C   UNL     1       2.204   7.065  19.646  0.00  0.00    +0.000 A 
ATOM      2  C   UNL     1       1.350   8.041  20.238  0.00  0.00    +0.000 A 
ATOM      3  C   UNL     1       1.047   9.261  19.612  0.00  0.00    +0.000 A 
ATOM      4  C   UNL     1       1.654   9.524  18.389  0.00  0.00    +0.000 A 
ATOM      5  C   UNL     1       2.427   8.540  17.760  0.00  0.00    +0.000 A 
ATOM      6  C   UNL     1       2.719   7.282  18.345  0.00  0.00    +0.000 A 
ENDROOT
BRANCH   6   7
ATOM      7  C   UNL     1       3.522   6.314  17.534  0.00  0.00    +0.000 A 
ATOM      8  C   UNL     1       4.614   6.689  16.744  0.00  0.00    +0.000 A 
ATOM      9  C   UNL     1       5.400   5.742  16.081  0.00  0.00    +0.000 A 
ATOM     10  C   UNL     1       5.178   4.371  16.243  0.00  0.00    +0.000 A 
ATOM     11  C   UNL     1       4.104   3.953  17.041  0.00  0.00    +0.000 A 
ATOM     12  C   UNL     1       3.272   4.927  17.622  0.00  0.00    +0.000 A 
BRANCH  10  13
ATOM     13  O   UNL     1       6.099   3.612  15.571  0.00  0.00    +0.000 OA
ATOM     14  C   UNL     1       6.417   3.951  14.234  0.00  0.00    +0.000 C 
ENDBRANCH  10  13
BRANCH  11  15
ATOM     15  O   UNL     1       3.916   2.611  17.240  0.00  0.00    +0.000 OA
ATOM     16  C   UNL     1       2.738   2.183  17.910  0.00  0.00    +0.000 C 
ENDBRANCH  11  15
ENDBRANCH   6   7
BRANCH   3  17
ATOM     17  C   UNL     1       0.068  10.209  20.263  0.00  0.00    +0.000 C 
ATOM     18  O   UNL     1      -0.021  10.247  21.489  0.00  0.00    +0.000 OA
ATOM     19  N   UNL     1      -0.719  10.980  19.432  0.00  0.00    +0.000 N 
ATOM     20  H   UNL     1      -0.584  10.925  18.435  0.00  0.00    +0.000 HD
BRANCH  19  21
ATOM     21  C   UNL     1      -1.745  11.936  19.858  0.00  0.00    +0.000 C 
ATOM     22  C   UNL     1      -2.992  11.870  18.978  0.00  0.00    +0.000 C 
BRANCH  21  23
ATOM     23  C   UNL     1      -1.207  13.374  20.039  0.00  0.00    +0.000 C 
BRANCH  23  24
ATOM     24  C   UNL     1      -0.186  13.746  18.947  0.00  0.00    +0.000 C 
BRANCH  24  25
ATOM     25  C   UNL     1       0.115  15.246  18.886  0.00  0.00    +0.000 C 
BRANCH  25  26
ATOM     26  C   UNL     1       1.576  15.521  18.646  0.00  0.00    +0.000 A 
ATOM     27  C   UNL     1       2.479  14.487  18.378  0.00  0.00    +0.000 A 
ATOM     28  C   UNL     1       3.826  14.772  18.167  0.00  0.00    +0.000 A 
ATOM     29  C   UNL     1       4.233  16.094  18.218  0.00  0.00    +0.000 A 
ATOM     30  N   UNL     1       3.395  17.126  18.457  0.00  0.00    +0.000 NA
ATOM     31  C   UNL     1       2.093  16.817  18.662  0.00  0.00    +0.000 A 
ENDBRANCH  25  26
ENDBRANCH  24  25
ENDBRANCH  23  24
ENDBRANCH  21  23
ENDBRANCH  19  21
ENDBRANCH   3  17
BRANCH   1  32
ATOM     32  C   UNL     1       2.547   5.849  20.496  0.00  0.00    +0.000 C 
BRANCH  32  34
ATOM     33  C   UNL     1       1.611   3.555  21.152  0.00  0.00    +0.000 C 
ATOM     34  C   UNL     1       1.473   4.810  20.700  0.00  0.00    +0.000 C 
ENDBRANCH  32  34
ENDBRANCH   1  32
TORSDOF 11
ENDMDL
MODEL 6
REMARK VINA RESULT:      -7.1      1.043      1.270
REMARK  Name = 
REMARK  14 active torsions:
REMARK  status: ('A' for Active; 'I' for Inactive)
REMARK    1  A    between atoms: C_2  and  C_3
REMARK    2  A    between atoms: C_3  and  C_4
REMARK    3  A    between atoms: C_6  and  C_7
REMARK    4  A    between atoms: N_9  and  C_10
REMARK    5  A    between atoms: C_10  and  C_11
REMARK    6  A    between atoms: C_10  and  C_12
REMARK    7  A    between atoms: C_12  and  C_13
REMARK    8  A    between atoms: C_13  and  C_14
REMARK    9  A    between atoms: C_14  and  C_15
REMARK   10  A    between atoms: C_23  and  C_24
REMARK   11  A    between atoms: C_27  and  O_28
REMARK   12  A    between atoms: O_28  and  C_29
REMARK   13  A    between atoms: C_30  and  O_31
REMARK   14  A    between atoms: O_31  and  C_32
REMARK                            x       y       z     vdW  Elec       q    Type
REMARK                         _______ _______ _______ _____ _____    ______ ____
ROOT
ATOM      1  C   UNL     1       1.270   8.521  19.995  0.00  0.00    +0.000 A 
ATOM      2  C   UNL     1       2.249   7.619  19.483  0.00  0.00    +0.000 A 
ATOM      3  C   UNL     1       2.848   7.787  18.223  0.00  0.00    +0.000 A 
ATOM      4  C   UNL     1       2.418   8.858  17.446  0.00  0.00    +0.000 A 
ATOM      5  C   UNL     1       1.522   9.796  17.971  0.00  0.00    +0.000 A 
ATOM      6  C   UNL     1       0.929   9.678  19.254  0.00  0.00    +0.000 A 
ENDROOT
BRANCH   6   7
ATOM      7  C   UNL     1       0.022  10.782  19.698  0.00  0.00    +0.000 A 
ATOM      8  C   UNL     1       0.456  11.888  20.438  0.00  0.00    +0.000 A 
ATOM      9  C   UNL     1      -0.401  12.947  20.748  0.00  0.00    +0.000 A 
ATOM     10  C   UNL     1      -1.711  12.986  20.263  0.00  0.00    +0.000 A 
ATOM     11  C   UNL     1      -2.181  11.907  19.502  0.00  0.00    +0.000 A 
ATOM     12  C   UNL     1      -1.327  10.810  19.283  0.00  0.00    +0.000 A 
BRANCH  10  13
ATOM     13  O   UNL     1      -2.362  14.140  20.616  0.00  0.00    +0.000 OA
ATOM     14  C   UNL     1      -2.550  14.423  21.990  0.00  0.00    +0.000 C 
ENDBRANCH  10  13
BRANCH  11  15
ATOM     15  O   UNL     1      -3.448  11.968  18.986  0.00  0.00    +0.000 OA
ATOM     16  C   UNL     1      -3.725  11.260  17.785  0.00  0.00    +0.000 C 
ENDBRANCH  11  15
ENDBRANCH   6   7
BRANCH   3  17
ATOM     17  C   UNL     1       3.936   6.837  17.784  0.00  0.00    +0.000 C 
ATOM     18  O   UNL     1       4.379   6.904  16.638  0.00  0.00    +0.000 OA
ATOM     19  N   UNL     1       4.368   5.897  18.698  0.00  0.00    +0.000 N 
ATOM     20  H   UNL     1       3.986   5.906  19.631  0.00  0.00    +0.000 HD
BRANCH  19  21
ATOM     21  C   UNL     1       5.388   4.871  18.465  0.00  0.00    +0.000 C 
ATOM     22  C   UNL     1       6.803   5.424  18.620  0.00  0.00    +0.000 C 
BRANCH  21  23
ATOM     23  C   UNL     1       5.183   4.092  17.146  0.00  0.00    +0.000 C 
BRANCH  23  24
ATOM     24  C   UNL     1       4.366   2.804  17.362  0.00  0.00    +0.000 C 
BRANCH  24  25
ATOM     25  C   UNL     1       2.856   3.051  17.440  0.00  0.00    +0.000 C 
BRANCH  25  26
ATOM     26  C   UNL     1       2.374   3.157  18.863  0.00  0.00    +0.000 A 
ATOM     27  C   UNL     1       3.023   2.488  19.906  0.00  0.00    +0.000 A 
ATOM     28  C   UNL     1       2.550   2.601  21.211  0.00  0.00    +0.000 A 
ATOM     29  C   UNL     1       1.438   3.394  21.440  0.00  0.00    +0.000 A 
ATOM     30  N   UNL     1       0.789   4.071  20.467  0.00  0.00    +0.000 NA
ATOM     31  C   UNL     1       1.271   3.939  19.209  0.00  0.00    +0.000 A 
ENDBRANCH  25  26
ENDBRANCH  24  25
ENDBRANCH  23  24
ENDBRANCH  21  23
ENDBRANCH  19  21
ENDBRANCH   3  17
BRANCH   1  32
ATOM     32  C   UNL     1       0.614   8.141  21.316  0.00  0.00    +0.000 C 
BRANCH  32  34
ATOM     33  C   UNL     1      -0.042   9.619  23.304  0.00  0.00    +0.000 C 
ATOM     34  C   UNL     1       0.862   9.033  22.506  0.00  0.00    +0.000 C 
ENDBRANCH  32  34
ENDBRANCH   1  32
TORSDOF 11
ENDMDL
MODEL 7
REMARK VINA RESULT:      -7.0      2.440      4.484
REMARK  Name = 
REMARK  14 active torsions:
REMARK  status: ('A' for Active; 'I' for Inactive)
REMARK    1  A    between atoms: C_2  and  C_3
REMARK    2  A    between atoms: C_3  and  C_4
REMARK    3  A    between atoms: C_6  and  C_7
REMARK    4  A    between atoms: N_9  and  C_10
REMARK    5  A    between atoms: C_10  and  C_11
REMARK    6  A    between atoms: C_10  and  C_12
REMARK    7  A    between atoms: C_12  and  C_13
REMARK    8  A    between atoms: C_13  and  C_14
REMARK    9  A    between atoms: C_14  and  C_15
REMARK   10  A    between atoms: C_23  and  C_24
REMARK   11  A    between atoms: C_27  and  O_28
REMARK   12  A    between atoms: O_28  and  C_29
REMARK   13  A    between atoms: C_30  and  O_31
REMARK   14  A    between atoms: O_31  and  C_32
REMARK                            x       y       z     vdW  Elec       q    Type
REMARK                         _______ _______ _______ _____ _____    ______ ____
ROOT
ATOM      1  C   UNL     1      -0.414  11.009  20.845  0.00  0.00    +0.000 A 
ATOM      2  C   UNL     1       0.298   9.896  20.306  0.00  0.00    +0.000 A 
ATOM      3  C   UNL     1       0.840   8.882  21.114  0.00  0.00    +0.000 A 
ATOM      4  C   UNL     1       0.703   9.016  22.491  0.00  0.00    +0.000 A 
ATOM      5  C   UNL     1      -0.065  10.058  23.026  0.00  0.00    +0.000 A 
ATOM      6  C   UNL     1      -0.659  11.075  22.238  0.00  0.00    +0.000 A 
ENDROOT
BRANCH   6   7
ATOM      7  C   UNL     1      -1.489  12.099  22.946  0.00  0.00    +0.000 A 
ATOM      8  C   UNL     1      -1.057  13.407  23.192  0.00  0.00    +0.000 A 
ATOM      9  C   UNL     1      -1.899  14.363  23.767  0.00  0.00    +0.000 A 
ATOM     10  C   UNL     1      -3.238  14.077  24.047  0.00  0.00    +0.000 A 
ATOM     11  C   UNL     1      -3.717  12.784  23.798  0.00  0.00    +0.000 A 
ATOM     12  C   UNL     1      -2.824  11.814  23.306  0.00  0.00    +0.000 A 
BRANCH  10  13
ATOM     13  O   UNL     1      -3.911  15.166  24.536  0.00  0.00    +0.000 OA
ATOM     14  C   UNL     1      -3.808  16.397  23.844  0.00  0.00    +0.000 C 
ENDBRANCH  10  13
BRANCH  11  15
ATOM     15  O   UNL     1      -5.041  12.517  24.026  0.00  0.00    +0.000 OA
ATOM     16  C   UNL     1      -5.993  12.931  23.054  0.00  0.00    +0.000 C 
ENDBRANCH  11  15
ENDBRANCH   6   7
BRANCH   3  17
ATOM     17  C   UNL     1       1.508   7.693  20.466  0.00  0.00    +0.000 C 
ATOM     18  O   UNL     1       1.491   6.601  21.031  0.00  0.00    +0.000 OA
ATOM     19  N   UNL     1       2.149   7.902  19.261  0.00  0.00    +0.000 N 
ATOM     20  H   UNL     1       2.108   8.814  18.833  0.00  0.00    +0.000 HD
BRANCH  19  21
ATOM     21  C   UNL     1       2.878   6.895  18.486  0.00  0.00    +0.000 C 
ATOM     22  C   UNL     1       3.784   7.528  17.431  0.00  0.00    +0.000 C 
BRANCH  21  23
ATOM     23  C   UNL     1       1.970   5.782  17.915  0.00  0.00    +0.000 C 
BRANCH  23  24
ATOM     24  C   UNL     1       2.411   4.383  18.386  0.00  0.00    +0.000 C 
BRANCH  24  25
ATOM     25  C   UNL     1       3.118   3.573  17.295  0.00  0.00    +0.000 C 
BRANCH  25  26
ATOM     26  C   UNL     1       4.562   3.973  17.140  0.00  0.00    +0.000 A 
ATOM     27  C   UNL     1       5.369   4.240  18.252  0.00  0.00    +0.000 A 
ATOM     28  C   UNL     1       6.699   4.613  18.076  0.00  0.00    +0.000 A 
ATOM     29  C   UNL     1       7.193   4.698  16.786  0.00  0.00    +0.000 A 
ATOM     30  N   UNL     1       6.456   4.433  15.684  0.00  0.00    +0.000 NA
ATOM     31  C   UNL     1       5.166   4.077  15.887  0.00  0.00    +0.000 A 
ENDBRANCH  25  26
ENDBRANCH  24  25
ENDBRANCH  23  24
ENDBRANCH  21  23
ENDBRANCH  19  21
ENDBRANCH   3  17
BRANCH   1  32
ATOM     32  C   UNL     1      -0.830  12.095  19.862  0.00  0.00    +0.000 C 
BRANCH  32  34
ATOM     33  C   UNL     1      -2.161  11.392  17.789  0.00  0.00    +0.000 C 
ATOM     34  C   UNL     1      -2.073  11.862  19.041  0.00  0.00    +0.000 C 
ENDBRANCH  32  34
ENDBRANCH   1  32
TORSDOF 11
ENDMDL
MODEL 8
REMARK VINA RESULT:      -7.0      2.491      4.774
REMARK  Name = 
REMARK  14 active torsions:
REMARK  status: ('A' for Active; 'I' for Inactive)
REMARK    1  A    between atoms: C_2  and  C_3
REMARK    2  A    between atoms: C_3  and  C_4
REMARK    3  A    between atoms: C_6  and  C_7
REMARK    4  A    between atoms: N_9  and  C_10
REMARK    5  A    between atoms: C_10  and  C_11
REMARK    6  A    between atoms: C_10  and  C_12
REMARK    7  A    between atoms: C_12  and  C_13
REMARK    8  A    between atoms: C_13  and  C_14
REMARK    9  A    between atoms: C_14  and  C_15
REMARK   10  A    between atoms: C_23  and  C_24
REMARK   11  A    between atoms: C_27  and  O_28
REMARK   12  A    between atoms: O_28  and  C_29
REMARK   13  A    between atoms: C_30  and  O_31
REMARK   14  A    between atoms: O_31  and  C_32
REMARK                            x       y       z     vdW  Elec       q    Type
REMARK                         _______ _______ _______ _____ _____    ______ ____
ROOT
ATOM      1  C   UNL     1      -0.049  11.353  20.862  0.00  0.00    +0.000 A 
ATOM      2  C   UNL     1       0.660  10.212  20.382  0.00  0.00    +0.000 A 
ATOM      3  C   UNL     1       0.829   9.048  21.151  0.00  0.00    +0.000 A 
ATOM      4  C   UNL     1       0.315   9.051  22.443  0.00  0.00    +0.000 A 
ATOM      5  C   UNL     1      -0.454  10.131  22.894  0.00  0.00    +0.000 A 
ATOM      6  C   UNL     1      -0.678  11.304  22.130  0.00  0.00    +0.000 A 
ENDROOT
BRANCH   6   7
ATOM      7  C   UNL     1      -1.558  12.357  22.725  0.00  0.00    +0.000 A 
ATOM      8  C   UNL     1      -2.925  12.177  22.966  0.00  0.00    +0.000 A 
ATOM      9  C   UNL     1      -3.690  13.149  23.616  0.00  0.00    +0.000 A 
ATOM     10  C   UNL     1      -3.107  14.312  24.127  0.00  0.00    +0.000 A 
ATOM     11  C   UNL     1      -1.737  14.523  23.924  0.00  0.00    +0.000 A 
ATOM     12  C   UNL     1      -1.007  13.574  23.185  0.00  0.00    +0.000 A 
BRANCH  10  13
ATOM     13  O   UNL     1      -4.012  15.098  24.792  0.00  0.00    +0.000 OA
ATOM     14  C   UNL     1      -4.579  16.204  24.115  0.00  0.00    +0.000 C 
ENDBRANCH  10  13
BRANCH  11  15
ATOM     15  O   UNL     1      -1.156  15.638  24.467  0.00  0.00    +0.000 OA
ATOM     16  C   UNL     1      -1.034  15.718  25.882  0.00  0.00    +0.000 C 
ENDBRANCH  11  15
ENDBRANCH   6   7
BRANCH   3  17
ATOM     17  C   UNL     1       1.520   7.850  20.545  0.00  0.00    +0.000 C 
ATOM     18  O   UNL     1       1.575   6.794  21.173  0.00  0.00    +0.000 OA
ATOM     19  N   UNL     1       2.097   8.010  19.301  0.00  0.00    +0.000 N 
ATOM     20  H   UNL     1       1.998   8.891  18.821  0.00  0.00    +0.000 HD
BRANCH  19  21
ATOM     21  C   UNL     1       2.835   6.988  18.554  0.00  0.00    +0.000 C 
ATOM     22  C   UNL     1       3.765   7.601  17.508  0.00  0.00    +0.000 C 
BRANCH  21  23
ATOM     23  C   UNL     1       1.931   5.874  17.980  0.00  0.00    +0.000 C 
BRANCH  23  24
ATOM     24  C   UNL     1       2.362   4.477  18.468  0.00  0.00    +0.000 C 
BRANCH  24  25
ATOM     25  C   UNL     1       3.088   3.660  17.395  0.00  0.00    +0.000 C 
BRANCH  25  26
ATOM     26  C   UNL     1       4.555   3.993  17.326  0.00  0.00    +0.000 A 
ATOM     27  C   UNL     1       5.231   4.063  16.102  0.00  0.00    +0.000 A 
ATOM     28  C   UNL     1       6.589   4.368  16.071  0.00  0.00    +0.000 A 
ATOM     29  C   UNL     1       7.237   4.608  17.271  0.00  0.00    +0.000 A 
ATOM     30  N   UNL     1       6.621   4.569  18.474  0.00  0.00    +0.000 NA
ATOM     31  C   UNL     1       5.302   4.266  18.472  0.00  0.00    +0.000 A 
ENDBRANCH  25  26
ENDBRANCH  24  25
ENDBRANCH  23  24
ENDBRANCH  21  23
ENDBRANCH  19  21
ENDBRANCH   3  17
BRANCH   1  32
ATOM     32  C   UNL     1      -0.039  12.588  19.972  0.00  0.00    +0.000 C 
BRANCH  32  34
ATOM     33  C   UNL     1      -2.226  12.040  18.754  0.00  0.00    +0.000 C 
ATOM     34  C   UNL     1      -1.033  12.646  18.839  0.00  0.00    +0.000 C 
ENDBRANCH  32  34
ENDBRANCH   1  32
TORSDOF 11
ENDMDL
MODEL 9
REMARK VINA RESULT:      -7.0      3.205      9.796
REMARK  Name = 
REMARK  14 active torsions:
REMARK  status: ('A' for Active; 'I' for Inactive)
REMARK    1  A    between atoms: C_2  and  C_3
REMARK    2  A    between atoms: C_3  and  C_4
REMARK    3  A    between atoms: C_6  and  C_7
REMARK    4  A    between atoms: N_9  and  C_10
REMARK    5  A    between atoms: C_10  and  C_11
REMARK    6  A    between atoms: C_10  and  C_12
REMARK    7  A    between atoms: C_12  and  C_13
REMARK    8  A    between atoms: C_13  and  C_14
REMARK    9  A    between atoms: C_14  and  C_15
REMARK   10  A    between atoms: C_23  and  C_24
REMARK   11  A    between atoms: C_27  and  O_28
REMARK   12  A    between atoms: O_28  and  C_29
REMARK   13  A    between atoms: C_30  and  O_31
REMARK   14  A    between atoms: O_31  and  C_32
REMARK                            x       y       z     vdW  Elec       q    Type
REMARK                         _______ _______ _______ _____ _____    ______ ____
ROOT
ATOM      1  C   UNL     1       2.236   6.850  19.788  0.00  0.00    +0.000 A 
ATOM      2  C   UNL     1       1.258   7.778  20.252  0.00  0.00    +0.000 A 
ATOM      3  C   UNL     1       0.961   8.970  19.569  0.00  0.00    +0.000 A 
ATOM      4  C   UNL     1       1.696   9.253  18.423  0.00  0.00    +0.000 A 
ATOM      5  C   UNL     1       2.598   8.312  17.912  0.00  0.00    +0.000 A 
ATOM      6  C   UNL     1       2.892   7.083  18.554  0.00  0.00    +0.000 A 
ENDROOT
BRANCH   6   7
ATOM      7  C   UNL     1       3.845   6.156  17.867  0.00  0.00    +0.000 A 
ATOM      8  C   UNL     1       3.469   4.918  17.333  0.00  0.00    +0.000 A 
ATOM      9  C   UNL     1       4.367   4.128  16.611  0.00  0.00    +0.000 A 
ATOM     10  C   UNL     1       5.659   4.575  16.320  0.00  0.00    +0.000 A 
ATOM     11  C   UNL     1       6.070   5.818  16.821  0.00  0.00    +0.000 A 
ATOM     12  C   UNL     1       5.178   6.553  17.624  0.00  0.00    +0.000 A 
BRANCH  10  13
ATOM     13  O   UNL     1       6.353   3.688  15.541  0.00  0.00    +0.000 OA
ATOM     14  C   UNL     1       6.305   3.834  14.133  0.00  0.00    +0.000 C 
ENDBRANCH  10  13
BRANCH  11  15
ATOM     15  O   UNL     1       7.318   6.279  16.495  0.00  0.00    +0.000 OA
ATOM     16  C   UNL     1       7.804   7.442  17.152  0.00  0.00    +0.000 C 
ENDBRANCH  11  15
ENDBRANCH   6   7
BRANCH   3  17
ATOM     17  C   UNL     1      -0.146   9.863  20.078  0.00  0.00    +0.000 C 
ATOM     18  O   UNL     1      -0.485   9.803  21.258  0.00  0.00    +0.000 OA
ATOM     19  N   UNL     1      -0.759  10.697  19.165  0.00  0.00    +0.000 N 
ATOM     20  H   UNL     1      -0.422  10.722  18.215  0.00  0.00    +0.000 HD
BRANCH  19  21
ATOM     21  C   UNL     1      -1.866  11.616  19.444  0.00  0.00    +0.000 C 
ATOM     22  C   UNL     1      -3.088  11.324  18.576  0.00  0.00    +0.000 C 
BRANCH  21  23
ATOM     23  C   UNL     1      -1.449  13.104  19.421  0.00  0.00    +0.000 C 
BRANCH  23  24
ATOM     24  C   UNL     1      -0.127  13.318  18.659  0.00  0.00    +0.000 C 
BRANCH  24  25
ATOM     25  C   UNL     1       0.952  14.007  19.500  0.00  0.00    +0.000 C 
BRANCH  25  26
ATOM     26  C   UNL     1       1.704  15.047  18.713  0.00  0.00    +0.000 A 
ATOM     27  C   UNL     1       1.248  16.368  18.625  0.00  0.00    +0.000 A 
ATOM     28  C   UNL     1       1.962  17.306  17.884  0.00  0.00    +0.000 A 
ATOM     29  C   UNL     1       3.128  16.899  17.258  0.00  0.00    +0.000 A 
ATOM     30  N   UNL     1       3.615  15.641  17.329  0.00  0.00    +0.000 NA
ATOM     31  C   UNL     1       2.896  14.750  18.053  0.00  0.00    +0.000 A 
ENDBRANCH  25  26
ENDBRANCH  24  25
ENDBRANCH  23  24
ENDBRANCH  21  23
ENDBRANCH  19  21
ENDBRANCH   3  17
BRANCH   1  32
ATOM     32  C   UNL     1       2.545   5.669  20.698  0.00  0.00    +0.000 C 
BRANCH  32  34
ATOM     33  C   UNL     1       1.009   3.825  19.802  0.00  0.00    +0.000 C 
ATOM     34  C   UNL     1       1.519   4.569  20.794  0.00  0.00    +0.000 C 
ENDBRANCH  32  34
ENDBRANCH   1  32
TORSDOF 11
ENDMDL
