MODEL 1
REMARK VINA RESULT:      -8.3      0.000      0.000
REMARK  Name = 
REMARK  12 active torsions:
REMARK  status: ('A' for Active; 'I' for Inactive)
REMARK    1  A    between atoms: C_1  and  C_2
REMARK    2  A    between atoms: C_2  and  N_3
REMARK    3  A    between atoms: C_5  and  C_6
REMARK    4  A    between atoms: N_8  and  N_9
REMARK    5  A    between atoms: C_10  and  C_11
REMARK    6  A    between atoms: C_12  and  C_13
REMARK    7  A    between atoms: C_12  and  C_14
REMARK    8  A    between atoms: C_14  and  C_15
REMARK    9  A    between atoms: C_15  and  C_16
REMARK   10  A    between atoms: C_17  and  C_18
REMARK   11  A    between atoms: C_17  and  C_19
REMARK   12  A    between atoms: C_25  and  C_26
REMARK                            x       y       z     vdW  Elec       q    Type
REMARK                         _______ _______ _______ _____ _____    ______ ____
ROOT
ATOM      1  C   UNL     1       6.468   5.952  15.754  0.00  0.00    +0.000 C 
ATOM      2  O   UNL     1       6.510   5.847  14.529  0.00  0.00    +0.000 OA
ATOM      3  N   UNL     1       7.519   6.566  16.411  0.00  0.00    +0.000 N 
ATOM      4  H   UNL     1       8.277   6.884  15.824  0.00  0.00    +0.000 HD
ENDROOT
BRANCH   1   7
ATOM      5  N   UNL     1       3.304   6.052  17.871  0.00  0.00    +0.000 N 
ATOM      6  C   UNL     1       4.457   6.357  17.178  0.00  0.00    +0.000 A 
ATOM      7  C   UNL     1       5.286   5.504  16.557  0.00  0.00    +0.000 A 
ATOM      8  C   UNL     1       4.957   4.062  16.724  0.00  0.00    +0.000 A 
ATOM      9  O   UNL     1       5.552   3.169  16.130  0.00  0.00    +0.000 OA
ATOM     10  C   UNL     1       3.841   3.710  17.634  0.00  0.00    +0.000 A 
ATOM     11  C   UNL     1       3.605   2.379  17.974  0.00  0.00    +0.000 A 
ATOM     12  C   UNL     1       2.544   2.076  18.817  0.00  0.00    +0.000 A 
ATOM     13  C   UNL     1       1.744   3.113  19.279  0.00  0.00    +0.000 A 
ATOM     14  C   UNL     1       0.568   2.849  20.166  0.00  0.00    +0.000 C 
ATOM     15  N   UNL     1       1.961   4.408  18.943  0.00  0.00    +0.000 NA
ATOM     16  C   UNL     1       3.007   4.709  18.148  0.00  0.00    +0.000 A 
BRANCH   5  18
ATOM     17  C   UNL     1       2.724   8.457  17.772  0.00  0.00    +0.000 C 
ATOM     18  C   UNL     1       2.345   7.077  18.303  0.00  0.00    +0.000 C 
ENDBRANCH   5  18
ENDBRANCH   1   7
BRANCH   3  19
ATOM     19  N   UNL     1       7.614   6.599  17.764  0.00  0.00    +0.000 NA
ATOM     20  C   UNL     1       8.016   7.653  18.388  0.00  0.00    +0.000 C 
BRANCH  20  21
ATOM     21  C   UNL     1       8.332   8.968  17.822  0.00  0.00    +0.000 C 
ATOM     22  C   UNL     1       8.847  10.015  18.495  0.00  0.00    +0.000 C 
ATOM     23  C   UNL     1       9.181  10.017  19.964  0.00  0.00    +0.000 C 
BRANCH  22  24
ATOM     24  C   UNL     1       9.127  11.341  17.788  0.00  0.00    +0.000 C 
BRANCH  24  25
ATOM     25  C   UNL     1      10.623  11.672  17.664  0.00  0.00    +0.000 C 
BRANCH  25  26
ATOM     26  C   UNL     1      11.208  12.571  18.705  0.00  0.00    +0.000 C 
ATOM     27  C   UNL     1      11.401  13.889  18.497  0.00  0.00    +0.000 C 
ATOM     28  C   UNL     1      11.051  14.608  17.215  0.00  0.00    +0.000 C 
ATOM     29  C   UNL     1      11.996  14.766  19.559  0.00  0.00    +0.000 C 
ENDBRANCH  25  26
ENDBRANCH  24  25
ENDBRANCH  22  24
ENDBRANCH  20  21
ENDBRANCH   3  19
TORSDOF 7
ENDMDL
MODEL 2
REMARK VINA RESULT:      -8.2      1.592      1.722
REMARK  Name = 
REMARK  12 active torsions:
REMARK  status: ('A' for Active; 'I' for Inactive)
REMARK    1  A    between atoms: C_1  and  C_2
REMARK    2  A    between atoms: C_2  and  N_3
REMARK    3  A    between atoms: C_5  and  C_6
REMARK    4  A    between atoms: N_8  and  N_9
REMARK    5  A    between atoms: C_10  and  C_11
REMARK    6  A    between atoms: C_12  and  C_13
REMARK    7  A    between atoms: C_12  and  C_14
REMARK    8  A    between atoms: C_14  and  C_15
REMARK    9  A    between atoms: C_15  and  C_16
REMARK   10  A    between atoms: C_17  and  C_18
REMARK   11  A    between atoms: C_17  and  C_19
REMARK   12  A    between atoms: C_25  and  C_26
REMARK                            x       y       z     vdW  Elec       q    Type
REMARK                         _______ _______ _______ _____ _____    ______ ____
ROOT
ATOM      1  C   UNL     1       6.155   6.242  16.081  0.00  0.00    +0.000 C 
ATOM      2  O   UNL     1       5.937   6.180  14.872  0.00  0.00    +0.000 OA
ATOM      3  N   UNL     1       7.324   6.835  16.522  0.00  0.00    +0.000 N 
ATOM      4  H   UNL     1       7.943   7.175  15.799  0.00  0.00    +0.000 HD
ENDROOT
BRANCH   1   7
ATOM      5  N   UNL     1       3.373   6.248  18.681  0.00  0.00    +0.000 N 
ATOM      6  C   UNL     1       4.364   6.592  17.786  0.00  0.00    +0.000 A 
ATOM      7  C   UNL     1       5.168   5.764  17.100  0.00  0.00    +0.000 A 
ATOM      8  C   UNL     1       5.018   4.319  17.425  0.00  0.00    +0.000 A 
ATOM      9  O   UNL     1       5.600   3.433  16.807  0.00  0.00    +0.000 OA
ATOM     10  C   UNL     1       4.102   3.951  18.531  0.00  0.00    +0.000 A 
ATOM     11  C   UNL     1       4.060   2.640  19.001  0.00  0.00    +0.000 A 
ATOM     12  C   UNL     1       3.182   2.320  20.029  0.00  0.00    +0.000 A 
ATOM     13  C   UNL     1       2.364   3.319  20.540  0.00  0.00    +0.000 A 
ATOM     14  C   UNL     1       1.376   3.031  21.628  0.00  0.00    +0.000 C 
ATOM     15  N   UNL     1       2.391   4.593  20.079  0.00  0.00    +0.000 NA
ATOM     16  C   UNL     1       3.262   4.914  19.101  0.00  0.00    +0.000 A 
BRANCH   5  18
ATOM     17  C   UNL     1       2.168   8.357  18.200  0.00  0.00    +0.000 C 
ATOM     18  C   UNL     1       2.395   7.218  19.190  0.00  0.00    +0.000 C 
ENDBRANCH   5  18
ENDBRANCH   1   7
BRANCH   3  19
ATOM     19  N   UNL     1       7.703   6.821  17.824  0.00  0.00    +0.000 NA
ATOM     20  C   UNL     1       8.149   7.879  18.411  0.00  0.00    +0.000 C 
BRANCH  20  21
ATOM     21  C   UNL     1       8.237   9.239  17.868  0.00  0.00    +0.000 C 
ATOM     22  C   UNL     1       8.835  10.289  18.461  0.00  0.00    +0.000 C 
ATOM     23  C   UNL     1       9.516  10.249  19.805  0.00  0.00    +0.000 C 
BRANCH  22  24
ATOM     24  C   UNL     1       8.854  11.663  17.791  0.00  0.00    +0.000 C 
BRANCH  24  25
ATOM     25  C   UNL     1       9.497  12.762  18.651  0.00  0.00    +0.000 C 
BRANCH  25  26
ATOM     26  C   UNL     1       8.572  13.694  19.366  0.00  0.00    +0.000 C 
ATOM     27  C   UNL     1       8.743  14.031  20.660  0.00  0.00    +0.000 C 
ATOM     28  C   UNL     1       9.871  13.525  21.529  0.00  0.00    +0.000 C 
ATOM     29  C   UNL     1       7.796  14.965  21.354  0.00  0.00    +0.000 C 
ENDBRANCH  25  26
ENDBRANCH  24  25
ENDBRANCH  22  24
ENDBRANCH  20  21
ENDBRANCH   3  19
TORSDOF 7
ENDMDL
MODEL 3
REMARK VINA RESULT:      -8.2      4.107      8.296
REMARK  Name = 
REMARK  12 active torsions:
REMARK  status: ('A' for Active; 'I' for Inactive)
REMARK    1  A    between atoms: C_1  and  C_2
REMARK    2  A    between atoms: C_2  and  N_3
REMARK    3  A    between atoms: C_5  and  C_6
REMARK    4  A    between atoms: N_8  and  N_9
REMARK    5  A    between atoms: C_10  and  C_11
REMARK    6  A    between atoms: C_12  and  C_13
REMARK    7  A    between atoms: C_12  and  C_14
REMARK    8  A    between atoms: C_14  and  C_15
REMARK    9  A    between atoms: C_15  and  C_16
REMARK   10  A    between atoms: C_17  and  C_18
REMARK   11  A    between atoms: C_17  and  C_19
REMARK   12  A    between atoms: C_25  and  C_26
REMARK                            x       y       z     vdW  Elec       q    Type
REMARK                         _______ _______ _______ _____ _____    ______ ____
ROOT
ATOM      1  C   UNL     1       3.456   4.993  19.630  0.00  0.00    +0.000 C 
ATOM      2  O   UNL     1       3.377   4.006  20.360  0.00  0.00    +0.000 OA
ATOM      3  N   UNL     1       2.646   6.084  19.888  0.00  0.00    +0.000 N 
ATOM      4  H   UNL     1       2.019   5.988  20.674  0.00  0.00    +0.000 HD
ENDROOT
BRANCH   1   7
ATOM      5  N   UNL     1       6.544   5.967  17.627  0.00  0.00    +0.000 N 
ATOM      6  C   UNL     1       5.536   5.870  18.563  0.00  0.00    +0.000 A 
ATOM      7  C   UNL     1       4.447   5.087  18.511  0.00  0.00    +0.000 A 
ATOM      8  C   UNL     1       4.281   4.309  17.253  0.00  0.00    +0.000 A 
ATOM      9  O   UNL     1       3.401   3.470  17.099  0.00  0.00    +0.000 OA
ATOM     10  C   UNL     1       5.247   4.558  16.156  0.00  0.00    +0.000 A 
ATOM     11  C   UNL     1       5.036   4.002  14.896  0.00  0.00    +0.000 A 
ATOM     12  C   UNL     1       5.964   4.239  13.890  0.00  0.00    +0.000 A 
ATOM     13  C   UNL     1       7.081   5.011  14.184  0.00  0.00    +0.000 A 
ATOM     14  C   UNL     1       8.133   5.278  13.152  0.00  0.00    +0.000 C 
ATOM     15  N   UNL     1       7.298   5.545  15.411  0.00  0.00    +0.000 NA
ATOM     16  C   UNL     1       6.385   5.340  16.381  0.00  0.00    +0.000 A 
BRANCH   5  18
ATOM     17  C   UNL     1       7.673   8.170  17.638  0.00  0.00    +0.000 C 
ATOM     18  C   UNL     1       7.805   6.671  17.892  0.00  0.00    +0.000 C 
ENDBRANCH   5  18
ENDBRANCH   1   7
BRANCH   3  19
ATOM     19  N   UNL     1       2.572   7.151  19.054  0.00  0.00    +0.000 NA
ATOM     20  C   UNL     1       1.909   8.211  19.369  0.00  0.00    +0.000 C 
BRANCH  20  21
ATOM     21  C   UNL     1       1.233   8.506  20.636  0.00  0.00    +0.000 C 
ATOM     22  C   UNL     1       0.173   9.320  20.795  0.00  0.00    +0.000 C 
ATOM     23  C   UNL     1      -0.504  10.084  19.686  0.00  0.00    +0.000 C 
BRANCH  22  24
ATOM     24  C   UNL     1      -0.440   9.550  22.177  0.00  0.00    +0.000 C 
BRANCH  24  25
ATOM     25  C   UNL     1      -0.539  11.033  22.570  0.00  0.00    +0.000 C 
BRANCH  25  26
ATOM     26  C   UNL     1      -1.778  11.463  23.288  0.00  0.00    +0.000 C 
ATOM     27  C   UNL     1      -2.693  12.278  22.725  0.00  0.00    +0.000 C 
ATOM     28  C   UNL     1      -2.586  12.840  21.327  0.00  0.00    +0.000 C 
ATOM     29  C   UNL     1      -3.925  12.698  23.471  0.00  0.00    +0.000 C 
ENDBRANCH  25  26
ENDBRANCH  24  25
ENDBRANCH  22  24
ENDBRANCH  20  21
ENDBRANCH   3  19
TORSDOF 7
ENDMDL
MODEL 4
REMARK VINA RESULT:      -7.7      1.819      2.132
REMARK  Name = 
REMARK  12 active torsions:
REMARK  status: ('A' for Active; 'I' for Inactive)
REMARK    1  A    between atoms: C_1  and  C_2
REMARK    2  A    between atoms: C_2  and  N_3
REMARK    3  A    between atoms: C_5  and  C_6
REMARK    4  A    between atoms: N_8  and  N_9
REMARK    5  A    between atoms: C_10  and  C_11
REMARK    6  A    between atoms: C_12  and  C_13
REMARK    7  A    between atoms: C_12  and  C_14
REMARK    8  A    between atoms: C_14  and  C_15
REMARK    9  A    between atoms: C_15  and  C_16
REMARK   10  A    between atoms: C_17  and  C_18
REMARK   11  A    between atoms: C_17  and  C_19
REMARK   12  A    between atoms: C_25  and  C_26
REMARK                            x       y       z     vdW  Elec       q    Type
REMARK                         _______ _______ _______ _____ _____    ______ ____
ROOT
ATOM      1  C   UNL     1       6.560   6.406  16.245  0.00  0.00    +0.000 C 
ATOM      2  O   UNL     1       6.526   6.211  15.031  0.00  0.00    +0.000 OA
ATOM      3  N   UNL     1       7.593   7.157  16.775  0.00  0.00    +0.000 N 
ATOM      4  H   UNL     1       8.276   7.494  16.111  0.00  0.00    +0.000 HD
ENDROOT
BRANCH   1   7
ATOM      5  N   UNL     1       3.380   6.313  18.338  0.00  0.00    +0.000 N 
ATOM      6  C   UNL     1       4.457   6.687  17.562  0.00  0.00    +0.000 A 
ATOM      7  C   UNL     1       5.484   5.919  17.166  0.00  0.00    +0.000 A 
ATOM      8  C   UNL     1       5.490   4.535  17.713  0.00  0.00    +0.000 A 
ATOM      9  O   UNL     1       6.298   3.682  17.359  0.00  0.00    +0.000 OA
ATOM     10  C   UNL     1       4.452   4.182  18.711  0.00  0.00    +0.000 A 
ATOM     11  C   UNL     1       4.517   2.968  19.392  0.00  0.00    +0.000 A 
ATOM     12  C   UNL     1       3.523   2.656  20.310  0.00  0.00    +0.000 A 
ATOM     13  C   UNL     1       2.488   3.562  20.504  0.00  0.00    +0.000 A 
ATOM     14  C   UNL     1       1.371   3.272  21.458  0.00  0.00    +0.000 C 
ATOM     15  N   UNL     1       2.413   4.739  19.836  0.00  0.00    +0.000 NA
ATOM     16  C   UNL     1       3.391   5.057  18.964  0.00  0.00    +0.000 A 
BRANCH   5  18
ATOM     17  C   UNL     1       2.418   8.559  17.935  0.00  0.00    +0.000 C 
ATOM     18  C   UNL     1       2.195   7.163  18.510  0.00  0.00    +0.000 C 
ENDBRANCH   5  18
ENDBRANCH   1   7
BRANCH   3  19
ATOM     19  N   UNL     1       7.780   7.302  18.111  0.00  0.00    +0.000 NA
ATOM     20  C   UNL     1       8.304   8.369  18.610  0.00  0.00    +0.000 C 
BRANCH  20  21
ATOM     21  C   UNL     1       8.685   9.597  17.905  0.00  0.00    +0.000 C 
ATOM     22  C   UNL     1       9.230  10.693  18.466  0.00  0.00    +0.000 C 
ATOM     23  C   UNL     1       9.537  10.850  19.933  0.00  0.00    +0.000 C 
BRANCH  22  24
ATOM     24  C   UNL     1       9.578  11.917  17.620  0.00  0.00    +0.000 C 
BRANCH  24  25
ATOM     25  C   UNL     1       8.969  13.227  18.145  0.00  0.00    +0.000 C 
BRANCH  25  26
ATOM     26  C   UNL     1       7.514  13.452  17.883  0.00  0.00    +0.000 C 
ATOM     27  C   UNL     1       6.934  14.662  18.017  0.00  0.00    +0.000 C 
ATOM     28  C   UNL     1       7.669  15.915  18.433  0.00  0.00    +0.000 C 
ATOM     29  C   UNL     1       5.471  14.858  17.752  0.00  0.00    +0.000 C 
ENDBRANCH  25  26
ENDBRANCH  24  25
ENDBRANCH  22  24
ENDBRANCH  20  21
ENDBRANCH   3  19
TORSDOF 7
ENDMDL
MODEL 5
REMARK VINA RESULT:      -7.6      1.387      1.608
REMARK  Name = 
REMARK  12 active torsions:
REMARK  status: ('A' for Active; 'I' for Inactive)
REMARK    1  A    between atoms: C_1  and  C_2
REMARK    2  A    between atoms: C_2  and  N_3
REMARK    3  A    between atoms: C_5  and  C_6
REMARK    4  A    between atoms: N_8  and  N_9
REMARK    5  A    between atoms: C_10  and  C_11
REMARK    6  A    between atoms: C_12  and  C_13
REMARK    7  A    between atoms: C_12  and  C_14
REMARK    8  A    between atoms: C_14  and  C_15
REMARK    9  A    between atoms: C_15  and  C_16
REMARK   10  A    between atoms: C_17  and  C_18
REMARK   11  A    between atoms: C_17  and  C_19
REMARK   12  A    between atoms: C_25  and  C_26
REMARK                            x       y       z     vdW  Elec       q    Type
REMARK                         _______ _______ _______ _____ _____    ______ ____
ROOT
ATOM      1  C   UNL     1       6.053   6.388  16.228  0.00  0.00    +0.000 C 
ATOM      2  O   UNL     1       5.821   6.327  15.021  0.00  0.00    +0.000 OA
ATOM      3  N   UNL     1       7.204   7.023  16.658  0.00  0.00    +0.000 N 
ATOM      4  H   UNL     1       7.799   7.394  15.930  0.00  0.00    +0.000 HD
ENDROOT
BRANCH   1   7
ATOM      5  N   UNL     1       3.294   6.256  18.848  0.00  0.00    +0.000 N 
ATOM      6  C   UNL     1       4.259   6.648  17.945  0.00  0.00    +0.000 A 
ATOM      7  C   UNL     1       5.100   5.861  17.256  0.00  0.00    +0.000 A 
ATOM      8  C   UNL     1       5.029   4.411  17.585  0.00  0.00    +0.000 A 
ATOM      9  O   UNL     1       5.652   3.556  16.966  0.00  0.00    +0.000 OA
ATOM     10  C   UNL     1       4.142   3.999  18.700  0.00  0.00    +0.000 A 
ATOM     11  C   UNL     1       4.173   2.690  19.174  0.00  0.00    +0.000 A 
ATOM     12  C   UNL     1       3.321   2.327  20.209  0.00  0.00    +0.000 A 
ATOM     13  C   UNL     1       2.454   3.283  20.724  0.00  0.00    +0.000 A 
ATOM     14  C   UNL     1       1.491   2.947  21.819  0.00  0.00    +0.000 C 
ATOM     15  N   UNL     1       2.411   4.556  20.259  0.00  0.00    +0.000 NA
ATOM     16  C   UNL     1       3.256   4.918  19.273  0.00  0.00    +0.000 A 
BRANCH   5  18
ATOM     17  C   UNL     1       2.091   8.382  18.447  0.00  0.00    +0.000 C 
ATOM     18  C   UNL     1       2.270   7.174  19.362  0.00  0.00    +0.000 C 
ENDBRANCH   5  18
ENDBRANCH   1   7
BRANCH   3  19
ATOM     19  N   UNL     1       7.601   7.013  17.955  0.00  0.00    +0.000 NA
ATOM     20  C   UNL     1       8.193   8.026  18.490  0.00  0.00    +0.000 C 
BRANCH  20  21
ATOM     21  C   UNL     1       8.451   9.338  17.887  0.00  0.00    +0.000 C 
ATOM     22  C   UNL     1       8.984  10.404  18.513  0.00  0.00    +0.000 C 
ATOM     23  C   UNL     1       9.403  10.434  19.960  0.00  0.00    +0.000 C 
BRANCH  22  24
ATOM     24  C   UNL     1       9.197  11.724  17.772  0.00  0.00    +0.000 C 
BRANCH  24  25
ATOM     25  C   UNL     1       7.890  12.409  17.341  0.00  0.00    +0.000 C 
BRANCH  25  26
ATOM     26  C   UNL     1       7.664  13.805  17.826  0.00  0.00    +0.000 C 
ATOM     27  C   UNL     1       8.676  14.669  18.041  0.00  0.00    +0.000 C 
ATOM     28  C   UNL     1      10.134  14.343  17.817  0.00  0.00    +0.000 C 
ATOM     29  C   UNL     1       8.419  16.063  18.533  0.00  0.00    +0.000 C 
ENDBRANCH  25  26
ENDBRANCH  24  25
ENDBRANCH  22  24
ENDBRANCH  20  21
ENDBRANCH   3  19
TORSDOF 7
ENDMDL
MODEL 6
REMARK VINA RESULT:      -7.6      3.406      7.114
REMARK  Name = 
REMARK  12 active torsions:
REMARK  status: ('A' for Active; 'I' for Inactive)
REMARK    1  A    between atoms: C_1  and  C_2
REMARK    2  A    between atoms: C_2  and  N_3
REMARK    3  A    between atoms: C_5  and  C_6
REMARK    4  A    between atoms: N_8  and  N_9
REMARK    5  A    between atoms: C_10  and  C_11
REMARK    6  A    between atoms: C_12  and  C_13
REMARK    7  A    between atoms: C_12  and  C_14
REMARK    8  A    between atoms: C_14  and  C_15
REMARK    9  A    between atoms: C_15  and  C_16
REMARK   10  A    between atoms: C_17  and  C_18
REMARK   11  A    between atoms: C_17  and  C_19
REMARK   12  A    between atoms: C_25  and  C_26
REMARK                            x       y       z     vdW  Elec       q    Type
REMARK                         _______ _______ _______ _____ _____    ______ ____
ROOT
ATOM      1  C   UNL     1       3.310   5.751  19.277  0.00  0.00    +0.000 C 
ATOM      2  O   UNL     1       3.276   4.972  20.229  0.00  0.00    +0.000 OA
ATOM      3  N   UNL     1       2.388   6.780  19.219  0.00  0.00    +0.000 N 
ATOM      4  H   UNL     1       1.722   6.815  19.977  0.00  0.00    +0.000 HD
ENDROOT
BRANCH   1   7
ATOM      5  N   UNL     1       6.541   6.347  17.351  0.00  0.00    +0.000 N 
ATOM      6  C   UNL     1       5.483   6.405  18.234  0.00  0.00    +0.000 A 
ATOM      7  C   UNL     1       4.360   5.670  18.212  0.00  0.00    +0.000 A 
ATOM      8  C   UNL     1       4.219   4.759  17.043  0.00  0.00    +0.000 A 
ATOM      9  O   UNL     1       3.306   3.947  16.937  0.00  0.00    +0.000 OA
ATOM     10  C   UNL     1       5.249   4.836  15.980  0.00  0.00    +0.000 A 
ATOM     11  C   UNL     1       5.074   4.147  14.782  0.00  0.00    +0.000 A 
ATOM     12  C   UNL     1       6.062   4.223  13.809  0.00  0.00    +0.000 A 
ATOM     13  C   UNL     1       7.201   4.974  14.075  0.00  0.00    +0.000 A 
ATOM     14  C   UNL     1       8.314   5.073  13.079  0.00  0.00    +0.000 C 
ATOM     15  N   UNL     1       7.382   5.637  15.243  0.00  0.00    +0.000 NA
ATOM     16  C   UNL     1       6.413   5.587  16.178  0.00  0.00    +0.000 A 
BRANCH   5  18
ATOM     17  C   UNL     1       7.658   8.538  17.637  0.00  0.00    +0.000 C 
ATOM     18  C   UNL     1       7.821   7.021  17.604  0.00  0.00    +0.000 C 
ENDBRANCH   5  18
ENDBRANCH   1   7
BRANCH   3  19
ATOM     19  N   UNL     1       2.270   7.593  18.140  0.00  0.00    +0.000 NA
ATOM     20  C   UNL     1       1.665   8.730  18.211  0.00  0.00    +0.000 C 
BRANCH  20  21
ATOM     21  C   UNL     1       1.109   9.378  19.403  0.00  0.00    +0.000 C 
ATOM     22  C   UNL     1      -0.044  10.071  19.460  0.00  0.00    +0.000 C 
ATOM     23  C   UNL     1      -0.967  10.308  18.293  0.00  0.00    +0.000 C 
BRANCH  22  24
ATOM     24  C   UNL     1      -0.513  10.708  20.769  0.00  0.00    +0.000 C 
BRANCH  24  25
ATOM     25  C   UNL     1      -0.423  12.242  20.777  0.00  0.00    +0.000 C 
BRANCH  25  26
ATOM     26  C   UNL     1       0.932  12.842  20.970  0.00  0.00    +0.000 C 
ATOM     27  C   UNL     1       1.636  13.380  19.954  0.00  0.00    +0.000 C 
ATOM     28  C   UNL     1       1.149  13.449  18.525  0.00  0.00    +0.000 C 
ATOM     29  C   UNL     1       2.997  13.971  20.175  0.00  0.00    +0.000 C 
ENDBRANCH  25  26
ENDBRANCH  24  25
ENDBRANCH  22  24
ENDBRANCH  20  21
ENDBRANCH   3  19
TORSDOF 7
ENDMDL
MODEL 7
REMARK VINA RESULT:      -7.5      4.067      8.389
REMARK  Name = 
REMARK  12 active torsions:
REMARK  status: ('A' for Active; 'I' for Inactive)
REMARK    1  A    between atoms: C_1  and  C_2
REMARK    2  A    between atoms: C_2  and  N_3
REMARK    3  A    between atoms: C_5  and  C_6
REMARK    4  A    between atoms: N_8  and  N_9
REMARK    5  A    between atoms: C_10  and  C_11
REMARK    6  A    between atoms: C_12  and  C_13
REMARK    7  A    between atoms: C_12  and  C_14
REMARK    8  A    between atoms: C_14  and  C_15
REMARK    9  A    between atoms: C_15  and  C_16
REMARK   10  A    between atoms: C_17  and  C_18
REMARK   11  A    between atoms: C_17  and  C_19
REMARK   12  A    between atoms: C_25  and  C_26
REMARK                            x       y       z     vdW  Elec       q    Type
REMARK                         _______ _______ _______ _____ _____    ______ ____
ROOT
ATOM      1  C   UNL     1       3.298   5.749  19.362  0.00  0.00    +0.000 C 
ATOM      2  O   UNL     1       3.239   4.930  20.277  0.00  0.00    +0.000 OA
ATOM      3  N   UNL     1       2.425   6.822  19.365  0.00  0.00    +0.000 N 
ATOM      4  H   UNL     1       1.771   6.853  20.135  0.00  0.00    +0.000 HD
ENDROOT
BRANCH   1   7
ATOM      5  N   UNL     1       6.491   6.354  17.376  0.00  0.00    +0.000 N 
ATOM      6  C   UNL     1       5.449   6.409  18.278  0.00  0.00    +0.000 A 
ATOM      7  C   UNL     1       4.329   5.670  18.278  0.00  0.00    +0.000 A 
ATOM      8  C   UNL     1       4.170   4.755  17.115  0.00  0.00    +0.000 A 
ATOM      9  O   UNL     1       3.259   3.939  17.028  0.00  0.00    +0.000 OA
ATOM     10  C   UNL     1       5.181   4.832  16.033  0.00  0.00    +0.000 A 
ATOM     11  C   UNL     1       4.987   4.139  14.840  0.00  0.00    +0.000 A 
ATOM     12  C   UNL     1       5.958   4.217  13.849  0.00  0.00    +0.000 A 
ATOM     13  C   UNL     1       7.097   4.974  14.092  0.00  0.00    +0.000 A 
ATOM     14  C   UNL     1       8.193   5.074  13.077  0.00  0.00    +0.000 C 
ATOM     15  N   UNL     1       7.297   5.641  15.255  0.00  0.00    +0.000 NA
ATOM     16  C   UNL     1       6.345   5.590  16.207  0.00  0.00    +0.000 A 
BRANCH   5  18
ATOM     17  C   UNL     1       7.599   8.548  17.664  0.00  0.00    +0.000 C 
ATOM     18  C   UNL     1       7.772   7.033  17.603  0.00  0.00    +0.000 C 
ENDBRANCH   5  18
ENDBRANCH   1   7
BRANCH   3  19
ATOM     19  N   UNL     1       2.332   7.690  18.327  0.00  0.00    +0.000 NA
ATOM     20  C   UNL     1       1.729   8.824  18.444  0.00  0.00    +0.000 C 
BRANCH  20  21
ATOM     21  C   UNL     1       1.153   9.414  19.656  0.00  0.00    +0.000 C 
ATOM     22  C   UNL     1      -0.023  10.066  19.735  0.00  0.00    +0.000 C 
ATOM     23  C   UNL     1      -0.953  10.313  18.576  0.00  0.00    +0.000 C 
BRANCH  22  24
ATOM     24  C   UNL     1      -0.512  10.643  21.064  0.00  0.00    +0.000 C 
BRANCH  24  25
ATOM     25  C   UNL     1      -1.027  12.088  20.959  0.00  0.00    +0.000 C 
BRANCH  25  26
ATOM     26  C   UNL     1      -2.215  12.448  21.791  0.00  0.00    +0.000 C 
ATOM     27  C   UNL     1      -3.441  12.630  21.261  0.00  0.00    +0.000 C 
ATOM     28  C   UNL     1      -3.761  12.489  19.792  0.00  0.00    +0.000 C 
ATOM     29  C   UNL     1      -4.615  12.996  22.121  0.00  0.00    +0.000 C 
ENDBRANCH  25  26
ENDBRANCH  24  25
ENDBRANCH  22  24
ENDBRANCH  20  21
ENDBRANCH   3  19
TORSDOF 7
ENDMDL
MODEL 8
REMARK VINA RESULT:      -7.4      4.164      8.281
REMARK  Name = 
REMARK  12 active torsions:
REMARK  status: ('A' for Active; 'I' for Inactive)
REMARK    1  A    between atoms: C_1  and  C_2
REMARK    2  A    between atoms: C_2  and  N_3
REMARK    3  A    between atoms: C_5  and  C_6
REMARK    4  A    between atoms: N_8  and  N_9
REMARK    5  A    between atoms: C_10  and  C_11
REMARK    6  A    between atoms: C_12  and  C_13
REMARK    7  A    between atoms: C_12  and  C_14
REMARK    8  A    between atoms: C_14  and  C_15
REMARK    9  A    between atoms: C_15  and  C_16
REMARK   10  A    between atoms: C_17  and  C_18
REMARK   11  A    between atoms: C_17  and  C_19
REMARK   12  A    between atoms: C_25  and  C_26
REMARK                            x       y       z     vdW  Elec       q    Type
REMARK                         _______ _______ _______ _____ _____    ______ ____
ROOT
ATOM      1  C   UNL     1       3.285   5.591  19.614  0.00  0.00    +0.000 C 
ATOM      2  O   UNL     1       3.155   4.683  20.433  0.00  0.00    +0.000 OA
ATOM      3  N   UNL     1       2.519   6.734  19.753  0.00  0.00    +0.000 N 
ATOM      4  H   UNL     1       1.878   6.740  20.534  0.00  0.00    +0.000 HD
ENDROOT
BRANCH   1   7
ATOM      5  N   UNL     1       6.452   6.216  17.593  0.00  0.00    +0.000 N 
ATOM      6  C   UNL     1       5.428   6.254  18.516  0.00  0.00    +0.000 A 
ATOM      7  C   UNL     1       4.294   5.536  18.508  0.00  0.00    +0.000 A 
ATOM      8  C   UNL     1       4.097   4.673  17.312  0.00  0.00    +0.000 A 
ATOM      9  O   UNL     1       3.168   3.878  17.210  0.00  0.00    +0.000 OA
ATOM     10  C   UNL     1       5.089   4.775  16.215  0.00  0.00    +0.000 A 
ATOM     11  C   UNL     1       4.859   4.135  15.000  0.00  0.00    +0.000 A 
ATOM     12  C   UNL     1       5.813   4.235  13.994  0.00  0.00    +0.000 A 
ATOM     13  C   UNL     1       6.971   4.960  14.246  0.00  0.00    +0.000 A 
ATOM     14  C   UNL     1       8.049   5.081  13.214  0.00  0.00    +0.000 C 
ATOM     15  N   UNL     1       7.205   5.575  15.430  0.00  0.00    +0.000 NA
ATOM     16  C   UNL     1       6.269   5.503  16.398  0.00  0.00    +0.000 A 
BRANCH   5  18
ATOM     17  C   UNL     1       7.660   8.376  17.651  0.00  0.00    +0.000 C 
ATOM     18  C   UNL     1       7.750   6.863  17.823  0.00  0.00    +0.000 C 
ENDBRANCH   5  18
ENDBRANCH   1   7
BRANCH   3  19
ATOM     19  N   UNL     1       2.501   7.719  18.820  0.00  0.00    +0.000 NA
ATOM     20  C   UNL     1       1.754   8.761  18.949  0.00  0.00    +0.000 C 
BRANCH  20  21
ATOM     21  C   UNL     1       0.908   9.125  20.091  0.00  0.00    +0.000 C 
ATOM     22  C   UNL     1       0.654  10.375  20.519  0.00  0.00    +0.000 C 
ATOM     23  C   UNL     1       1.209  11.631  19.896  0.00  0.00    +0.000 C 
BRANCH  22  24
ATOM     24  C   UNL     1      -0.244  10.623  21.731  0.00  0.00    +0.000 C 
BRANCH  24  25
ATOM     25  C   UNL     1      -0.694  12.085  21.880  0.00  0.00    +0.000 C 
BRANCH  25  26
ATOM     26  C   UNL     1      -2.044  12.438  21.344  0.00  0.00    +0.000 C 
ATOM     27  C   UNL     1      -3.141  12.492  22.125  0.00  0.00    +0.000 C 
ATOM     28  C   UNL     1      -3.142  12.214  23.610  0.00  0.00    +0.000 C 
ATOM     29  C   UNL     1      -4.485  12.843  21.558  0.00  0.00    +0.000 C 
ENDBRANCH  25  26
ENDBRANCH  24  25
ENDBRANCH  22  24
ENDBRANCH  20  21
ENDBRANCH   3  19
TORSDOF 7
ENDMDL
MODEL 9
REMARK VINA RESULT:      -7.4      6.557     10.394
REMARK  Name = 
REMARK  12 active torsions:
REMARK  status: ('A' for Active; 'I' for Inactive)
REMARK    1  A    between atoms: C_1  and  C_2
REMARK    2  A    between atoms: C_2  and  N_3
REMARK    3  A    between atoms: C_5  and  C_6
REMARK    4  A    between atoms: N_8  and  N_9
REMARK    5  A    between atoms: C_10  and  C_11
REMARK    6  A    between atoms: C_12  and  C_13
REMARK    7  A    between atoms: C_12  and  C_14
REMARK    8  A    between atoms: C_14  and  C_15
REMARK    9  A    between atoms: C_15  and  C_16
REMARK   10  A    between atoms: C_17  and  C_18
REMARK   11  A    between atoms: C_17  and  C_19
REMARK   12  A    between atoms: C_25  and  C_26
REMARK                            x       y       z     vdW  Elec       q    Type
REMARK                         _______ _______ _______ _____ _____    ______ ____
ROOT
ATOM      1  C   UNL     1       0.750  11.656  19.246  0.00  0.00    +0.000 C 
ATOM      2  O   UNL     1       1.487  12.444  18.654  0.00  0.00    +0.000 OA
ATOM      3  N   UNL     1       1.288  10.839  20.224  0.00  0.00    +0.000 N 
ATOM      4  H   UNL     1       2.281  10.940  20.381  0.00  0.00    +0.000 HD
ENDROOT
BRANCH   1   7
ATOM      5  N   UNL     1      -2.605  10.773  17.676  0.00  0.00    +0.000 N 
ATOM      6  C   UNL     1      -1.266  10.953  17.950  0.00  0.00    +0.000 A 
ATOM      7  C   UNL     1      -0.726  11.596  18.997  0.00  0.00    +0.000 A 
ATOM      8  C   UNL     1      -1.700  12.260  19.906  0.00  0.00    +0.000 A 
ATOM      9  O   UNL     1      -1.370  12.791  20.962  0.00  0.00    +0.000 OA
ATOM     10  C   UNL     1      -3.129  12.249  19.514  0.00  0.00    +0.000 A 
ATOM     11  C   UNL     1      -4.058  13.008  20.223  0.00  0.00    +0.000 A 
ATOM     12  C   UNL     1      -5.393  12.967  19.843  0.00  0.00    +0.000 A 
ATOM     13  C   UNL     1      -5.757  12.156  18.776  0.00  0.00    +0.000 A 
ATOM     14  C   UNL     1      -7.184  12.046  18.336  0.00  0.00    +0.000 C 
ATOM     15  N   UNL     1      -4.860  11.406  18.089  0.00  0.00    +0.000 NA
ATOM     16  C   UNL     1      -3.559  11.465  18.438  0.00  0.00    +0.000 A 
BRANCH   5  18
ATOM     17  C   UNL     1      -2.911  10.442  15.241  0.00  0.00    +0.000 C 
ATOM     18  C   UNL     1      -3.084   9.851  16.637  0.00  0.00    +0.000 C 
ENDBRANCH   5  18
ENDBRANCH   1   7
BRANCH   3  19
ATOM     19  N   UNL     1       0.577   9.852  20.823  0.00  0.00    +0.000 NA
ATOM     20  C   UNL     1       0.800   8.608  20.571  0.00  0.00    +0.000 C 
BRANCH  20  21
ATOM     21  C   UNL     1       1.855   8.037  19.727  0.00  0.00    +0.000 C 
ATOM     22  C   UNL     1       2.296   6.766  19.767  0.00  0.00    +0.000 C 
ATOM     23  C   UNL     1       1.783   5.702  20.703  0.00  0.00    +0.000 C 
BRANCH  22  24
ATOM     24  C   UNL     1       3.411   6.293  18.835  0.00  0.00    +0.000 C 
BRANCH  24  25
ATOM     25  C   UNL     1       2.950   5.266  17.788  0.00  0.00    +0.000 C 
BRANCH  25  26
ATOM     26  C   UNL     1       3.568   3.906  17.853  0.00  0.00    +0.000 C 
ATOM     27  C   UNL     1       2.874   2.813  18.227  0.00  0.00    +0.000 C 
ATOM     28  C   UNL     1       1.413   2.825  18.614  0.00  0.00    +0.000 C 
ATOM     29  C   UNL     1       3.521   1.462  18.288  0.00  0.00    +0.000 C 
ENDBRANCH  25  26
ENDBRANCH  24  25
ENDBRANCH  22  24
ENDBRANCH  20  21
ENDBRANCH   3  19
TORSDOF 7
ENDMDL
