MODEL 1
REMARK VINA RESULT:      -6.2      0.000      0.000
REMARK  Name = 
REMARK  9 active torsions:
REMARK  status: ('A' for Active; 'I' for Inactive)
REMARK    1  A    between atoms: C_2  and  C_3
REMARK    2  A    between atoms: C_2  and  C_9
REMARK    3  A    between atoms: C_3  and  C_4
REMARK    4  A    between atoms: C_4  and  P_5
REMARK    5  A    between atoms: P_5  and  O_7
REMARK    6  A    between atoms: P_5  and  O_8
REMARK    7  A    between atoms: C_9  and  P_12
REMARK    8  A    between atoms: P_12  and  O_14
REMARK    9  A    between atoms: P_12  and  O_15
REMARK                            x       y       z     vdW  Elec       q    Type
REMARK                         _______ _______ _______ _____ _____    ______ ____
ROOT
ATOM      1  O   UNL     1       6.659   5.130  19.753  0.00  0.00    +0.000 OA
ATOM      2  C   UNL     1       5.771   5.400  18.935  0.00  0.00    +0.000 C 
ENDROOT
BRANCH   2   3
ATOM      3  C   UNL     1       6.047   5.935  17.557  0.00  0.00    +0.000 C 
ATOM      4  F   UNL     1       4.940   6.221  16.821  0.00  0.00    +0.000 F 
ATOM      5  F   UNL     1       6.818   7.062  17.544  0.00  0.00    +0.000 F 
BRANCH   3   6
ATOM      6  P   UNL     1       6.969   4.850  16.481  0.00  0.00    +0.000 P 
ATOM      7  O   UNL     1       7.488   5.404  15.193  0.00  0.00    +0.000 OA
BRANCH   6   8
ATOM      8  O   UNL     1       8.110   4.132  17.368  0.00  0.00    +0.000 OA
ATOM      9  H   UNL     1       9.018   4.449  17.192  0.00  0.00    +0.000 HD
ENDBRANCH   6   8
BRANCH   6  10
ATOM     10  O   UNL     1       6.056   3.550  16.201  0.00  0.00    +0.000 OA
ATOM     11  H   UNL     1       6.610   2.817  15.862  0.00  0.00    +0.000 HD
ENDBRANCH   6  10
ENDBRANCH   3   6
ENDBRANCH   2   3
BRANCH   2  12
ATOM     12  C   UNL     1       4.313   5.199  19.299  0.00  0.00    +0.000 C 
BRANCH  12  13
ATOM     13  C   UNL     1       3.688   4.007  18.585  0.00  0.00    +0.000 C 
BRANCH  13  14
ATOM     14  P   UNL     1       3.580   2.543  19.601  0.00  0.00    +0.000 P 
ATOM     15  O   UNL     1       2.894   2.720  20.911  0.00  0.00    +0.000 OA
BRANCH  14  16
ATOM     16  O   UNL     1       2.934   1.418  18.665  0.00  0.00    +0.000 OA
ATOM     17  H   UNL     1       2.162   1.752  18.150  0.00  0.00    +0.000 HD
ENDBRANCH  14  16
BRANCH  14  18
ATOM     18  O   UNL     1       5.089   2.030  19.711  0.00  0.00    +0.000 OA
ATOM     19  H   UNL     1       5.125   1.063  19.832  0.00  0.00    +0.000 HD
ENDBRANCH  14  18
ENDBRANCH  13  14
ENDBRANCH  12  13
ENDBRANCH   2  12
TORSDOF 9
ENDMDL
MODEL 2
REMARK VINA RESULT:      -6.1      0.200      1.110
REMARK  Name = 
REMARK  9 active torsions:
REMARK  status: ('A' for Active; 'I' for Inactive)
REMARK    1  A    between atoms: C_2  and  C_3
REMARK    2  A    between atoms: C_2  and  C_9
REMARK    3  A    between atoms: C_3  and  C_4
REMARK    4  A    between atoms: C_4  and  P_5
REMARK    5  A    between atoms: P_5  and  O_7
REMARK    6  A    between atoms: P_5  and  O_8
REMARK    7  A    between atoms: C_9  and  P_12
REMARK    8  A    between atoms: P_12  and  O_14
REMARK    9  A    between atoms: P_12  and  O_15
REMARK                            x       y       z     vdW  Elec       q    Type
REMARK                         _______ _______ _______ _____ _____    ______ ____
ROOT
ATOM      1  O   UNL     1       6.616   5.006  19.640  0.00  0.00    +0.000 OA
ATOM      2  C   UNL     1       5.740   5.377  18.848  0.00  0.00    +0.000 C 
ENDROOT
BRANCH   2   3
ATOM      3  C   UNL     1       6.037   5.905  17.471  0.00  0.00    +0.000 C 
ATOM      4  F   UNL     1       4.950   6.330  16.774  0.00  0.00    +0.000 F 
ATOM      5  F   UNL     1       6.932   6.935  17.453  0.00  0.00    +0.000 F 
BRANCH   3   6
ATOM      6  P   UNL     1       6.797   4.743  16.349  0.00  0.00    +0.000 P 
ATOM      7  O   UNL     1       5.953   3.640  15.794  0.00  0.00    +0.000 OA
BRANCH   6   8
ATOM      8  O   UNL     1       7.565   5.589  15.211  0.00  0.00    +0.000 OA
ATOM      9  H   UNL     1       7.002   5.862  14.460  0.00  0.00    +0.000 HD
ENDBRANCH   6   8
BRANCH   6  10
ATOM     10  O   UNL     1       8.096   4.132  17.086  0.00  0.00    +0.000 OA
ATOM     11  H   UNL     1       8.591   4.846  17.541  0.00  0.00    +0.000 HD
ENDBRANCH   6  10
ENDBRANCH   3   6
ENDBRANCH   2   3
BRANCH   2  12
ATOM     12  C   UNL     1       4.278   5.315  19.244  0.00  0.00    +0.000 C 
BRANCH  12  13
ATOM     13  C   UNL     1       3.548   4.134  18.617  0.00  0.00    +0.000 C 
BRANCH  13  14
ATOM     14  P   UNL     1       3.555   2.669  19.638  0.00  0.00    +0.000 P 
ATOM     15  O   UNL     1       2.920   2.817  20.977  0.00  0.00    +0.000 OA
BRANCH  14  16
ATOM     16  O   UNL     1       2.922   1.512  18.731  0.00  0.00    +0.000 OA
ATOM     17  H   UNL     1       3.000   1.702  17.766  0.00  0.00    +0.000 HD
ENDBRANCH  14  16
BRANCH  14  18
ATOM     18  O   UNL     1       5.090   2.228  19.680  0.00  0.00    +0.000 OA
ATOM     19  H   UNL     1       5.531   2.402  18.828  0.00  0.00    +0.000 HD
ENDBRANCH  14  18
ENDBRANCH  13  14
ENDBRANCH  12  13
ENDBRANCH   2  12
TORSDOF 9
ENDMDL
MODEL 3
REMARK VINA RESULT:      -6.0      1.868      2.414
REMARK  Name = 
REMARK  9 active torsions:
REMARK  status: ('A' for Active; 'I' for Inactive)
REMARK    1  A    between atoms: C_2  and  C_3
REMARK    2  A    between atoms: C_2  and  C_9
REMARK    3  A    between atoms: C_3  and  C_4
REMARK    4  A    between atoms: C_4  and  P_5
REMARK    5  A    between atoms: P_5  and  O_7
REMARK    6  A    between atoms: P_5  and  O_8
REMARK    7  A    between atoms: C_9  and  P_12
REMARK    8  A    between atoms: P_12  and  O_14
REMARK    9  A    between atoms: P_12  and  O_15
REMARK                            x       y       z     vdW  Elec       q    Type
REMARK                         _______ _______ _______ _____ _____    ______ ____
ROOT
ATOM      1  O   UNL     1       5.119   5.444  19.511  0.00  0.00    +0.000 OA
ATOM      2  C   UNL     1       4.986   4.510  18.711  0.00  0.00    +0.000 C 
ENDROOT
BRANCH   2   3
ATOM      3  C   UNL     1       5.343   4.610  17.253  0.00  0.00    +0.000 C 
ATOM      4  F   UNL     1       5.302   3.434  16.572  0.00  0.00    +0.000 F 
ATOM      5  F   UNL     1       4.569   5.487  16.550  0.00  0.00    +0.000 F 
BRANCH   3   6
ATOM      6  P   UNL     1       6.986   5.213  16.904  0.00  0.00    +0.000 P 
ATOM      7  O   UNL     1       7.302   5.638  15.506  0.00  0.00    +0.000 OA
BRANCH   6   8
ATOM      8  O   UNL     1       7.341   6.338  18.005  0.00  0.00    +0.000 OA
ATOM      9  H   UNL     1       7.808   7.119  17.648  0.00  0.00    +0.000 HD
ENDBRANCH   6   8
BRANCH   6  10
ATOM     10  O   UNL     1       8.033   4.087  17.393  0.00  0.00    +0.000 OA
ATOM     11  H   UNL     1       7.903   3.262  16.880  0.00  0.00    +0.000 HD
ENDBRANCH   6  10
ENDBRANCH   3   6
ENDBRANCH   2   3
BRANCH   2  12
ATOM     12  C   UNL     1       4.435   3.177  19.179  0.00  0.00    +0.000 C 
BRANCH  12  13
ATOM     13  C   UNL     1       2.913   3.160  19.243  0.00  0.00    +0.000 C 
BRANCH  13  14
ATOM     14  P   UNL     1       2.266   3.430  20.885  0.00  0.00    +0.000 P 
ATOM     15  O   UNL     1       2.786   2.514  21.938  0.00  0.00    +0.000 OA
BRANCH  14  16
ATOM     16  O   UNL     1       2.500   4.983  21.188  0.00  0.00    +0.000 OA
ATOM     17  H   UNL     1       2.157   5.566  20.470  0.00  0.00    +0.000 HD
ENDBRANCH  14  16
BRANCH  14  18
ATOM     18  O   UNL     1       0.680   3.384  20.695  0.00  0.00    +0.000 OA
ATOM     19  H   UNL     1       0.437   3.434  19.751  0.00  0.00    +0.000 HD
ENDBRANCH  14  18
ENDBRANCH  13  14
ENDBRANCH  12  13
ENDBRANCH   2  12
TORSDOF 9
ENDMDL
MODEL 4
REMARK VINA RESULT:      -6.0      1.787      2.388
REMARK  Name = 
REMARK  9 active torsions:
REMARK  status: ('A' for Active; 'I' for Inactive)
REMARK    1  A    between atoms: C_2  and  C_3
REMARK    2  A    between atoms: C_2  and  C_9
REMARK    3  A    between atoms: C_3  and  C_4
REMARK    4  A    between atoms: C_4  and  P_5
REMARK    5  A    between atoms: P_5  and  O_7
REMARK    6  A    between atoms: P_5  and  O_8
REMARK    7  A    between atoms: C_9  and  P_12
REMARK    8  A    between atoms: P_12  and  O_14
REMARK    9  A    between atoms: P_12  and  O_15
REMARK                            x       y       z     vdW  Elec       q    Type
REMARK                         _______ _______ _______ _____ _____    ______ ____
ROOT
ATOM      1  O   UNL     1       5.817   4.100  19.336  0.00  0.00    +0.000 OA
ATOM      2  C   UNL     1       5.045   4.032  18.371  0.00  0.00    +0.000 C 
ENDROOT
BRANCH   2   3
ATOM      3  C   UNL     1       5.347   4.628  17.024  0.00  0.00    +0.000 C 
ATOM      4  F   UNL     1       5.214   3.772  15.976  0.00  0.00    +0.000 F 
ATOM      5  F   UNL     1       4.594   5.725  16.721  0.00  0.00    +0.000 F 
BRANCH   3   6
ATOM      6  P   UNL     1       7.005   5.255  16.815  0.00  0.00    +0.000 P 
ATOM      7  O   UNL     1       7.413   5.740  15.460  0.00  0.00    +0.000 OA
BRANCH   6   8
ATOM      8  O   UNL     1       7.272   6.336  17.982  0.00  0.00    +0.000 OA
ATOM      9  H   UNL     1       6.745   7.156  17.903  0.00  0.00    +0.000 HD
ENDBRANCH   6   8
BRANCH   6  10
ATOM     10  O   UNL     1       8.026   4.117  17.329  0.00  0.00    +0.000 OA
ATOM     11  H   UNL     1       7.932   3.309  16.782  0.00  0.00    +0.000 HD
ENDBRANCH   6  10
ENDBRANCH   3   6
ENDBRANCH   2   3
BRANCH   2  12
ATOM     12  C   UNL     1       3.713   3.322  18.510  0.00  0.00    +0.000 C 
BRANCH  12  13
ATOM     13  C   UNL     1       3.453   2.830  19.928  0.00  0.00    +0.000 C 
BRANCH  13  14
ATOM     14  P   UNL     1       2.132   3.703  20.754  0.00  0.00    +0.000 P 
ATOM     15  O   UNL     1       0.798   3.618  20.097  0.00  0.00    +0.000 OA
BRANCH  14  16
ATOM     16  O   UNL     1       2.157   3.184  22.267  0.00  0.00    +0.000 OA
ATOM     17  H   UNL     1       2.982   3.442  22.743  0.00  0.00    +0.000 HD
ENDBRANCH  14  16
BRANCH  14  18
ATOM     18  O   UNL     1       2.691   5.190  20.924  0.00  0.00    +0.000 OA
ATOM     19  H   UNL     1       2.345   5.778  20.227  0.00  0.00    +0.000 HD
ENDBRANCH  14  18
ENDBRANCH  13  14
ENDBRANCH  12  13
ENDBRANCH   2  12
TORSDOF 9
ENDMDL
MODEL 5
REMARK VINA RESULT:      -6.0      1.670      2.235
REMARK  Name = 
REMARK  9 active torsions:
REMARK  status: ('A' for Active; 'I' for Inactive)
REMARK    1  A    between atoms: C_2  and  C_3
REMARK    2  A    between atoms: C_2  and  C_9
REMARK    3  A    between atoms: C_3  and  C_4
REMARK    4  A    between atoms: C_4  and  P_5
REMARK    5  A    between atoms: P_5  and  O_7
REMARK    6  A    between atoms: P_5  and  O_8
REMARK    7  A    between atoms: C_9  and  P_12
REMARK    8  A    between atoms: P_12  and  O_14
REMARK    9  A    between atoms: P_12  and  O_15
REMARK                            x       y       z     vdW  Elec       q    Type
REMARK                         _______ _______ _______ _____ _____    ______ ____
ROOT
ATOM      1  O   UNL     1       6.101   4.952  19.693  0.00  0.00    +0.000 OA
ATOM      2  C   UNL     1       5.179   4.887  18.870  0.00  0.00    +0.000 C 
ENDROOT
BRANCH   2   3
ATOM      3  C   UNL     1       5.398   4.808  17.384  0.00  0.00    +0.000 C 
ATOM      4  F   UNL     1       5.219   3.573  16.844  0.00  0.00    +0.000 F 
ATOM      5  F   UNL     1       4.614   5.660  16.662  0.00  0.00    +0.000 F 
BRANCH   3   6
ATOM      6  P   UNL     1       7.032   5.253  16.823  0.00  0.00    +0.000 P 
ATOM      7  O   UNL     1       7.244   5.466  15.358  0.00  0.00    +0.000 OA
BRANCH   6   8
ATOM      8  O   UNL     1       7.541   6.491  17.724  0.00  0.00    +0.000 OA
ATOM      9  H   UNL     1       7.446   6.356  18.688  0.00  0.00    +0.000 HD
ENDBRANCH   6   8
BRANCH   6  10
ATOM     10  O   UNL     1       8.059   4.138  17.378  0.00  0.00    +0.000 OA
ATOM     11  H   UNL     1       8.925   4.550  17.578  0.00  0.00    +0.000 HD
ENDBRANCH   6  10
ENDBRANCH   3   6
ENDBRANCH   2   3
BRANCH   2  12
ATOM     12  C   UNL     1       3.737   4.888  19.339  0.00  0.00    +0.000 C 
BRANCH  12  13
ATOM     13  C   UNL     1       3.206   3.485  19.608  0.00  0.00    +0.000 C 
BRANCH  13  14
ATOM     14  P   UNL     1       1.645   3.149  18.810  0.00  0.00    +0.000 P 
ATOM     15  O   UNL     1       1.347   3.977  17.608  0.00  0.00    +0.000 OA
BRANCH  14  16
ATOM     16  O   UNL     1       1.632   1.571  18.543  0.00  0.00    +0.000 OA
ATOM     17  H   UNL     1       1.895   1.050  19.339  0.00  0.00    +0.000 HD
ENDBRANCH  14  16
BRANCH  14  18
ATOM     18  O   UNL     1       0.569   3.277  19.984  0.00  0.00    +0.000 OA
ATOM     19  H   UNL     1      -0.022   2.501  20.006  0.00  0.00    +0.000 HD
ENDBRANCH  14  18
ENDBRANCH  13  14
ENDBRANCH  12  13
ENDBRANCH   2  12
TORSDOF 9
ENDMDL
MODEL 6
REMARK VINA RESULT:      -6.0      1.434      2.122
REMARK  Name = 
REMARK  9 active torsions:
REMARK  status: ('A' for Active; 'I' for Inactive)
REMARK    1  A    between atoms: C_2  and  C_3
REMARK    2  A    between atoms: C_2  and  C_9
REMARK    3  A    between atoms: C_3  and  C_4
REMARK    4  A    between atoms: C_4  and  P_5
REMARK    5  A    between atoms: P_5  and  O_7
REMARK    6  A    between atoms: P_5  and  O_8
REMARK    7  A    between atoms: C_9  and  P_12
REMARK    8  A    between atoms: P_12  and  O_14
REMARK    9  A    between atoms: P_12  and  O_15
REMARK                            x       y       z     vdW  Elec       q    Type
REMARK                         _______ _______ _______ _____ _____    ______ ____
ROOT
ATOM      1  O   UNL     1       5.692   3.910  19.167  0.00  0.00    +0.000 OA
ATOM      2  C   UNL     1       5.067   4.772  18.537  0.00  0.00    +0.000 C 
ENDROOT
BRANCH   2   3
ATOM      3  C   UNL     1       5.672   5.591  17.430  0.00  0.00    +0.000 C 
ATOM      4  F   UNL     1       4.775   6.149  16.575  0.00  0.00    +0.000 F 
ATOM      5  F   UNL     1       6.470   6.609  17.866  0.00  0.00    +0.000 F 
BRANCH   3   6
ATOM      6  P   UNL     1       6.770   4.710  16.333  0.00  0.00    +0.000 P 
ATOM      7  O   UNL     1       6.200   3.615  15.491  0.00  0.00    +0.000 OA
BRANCH   6   8
ATOM      8  O   UNL     1       7.594   5.804  15.480  0.00  0.00    +0.000 OA
ATOM      9  H   UNL     1       7.673   5.598  14.528  0.00  0.00    +0.000 HD
ENDBRANCH   6   8
BRANCH   6  10
ATOM     10  O   UNL     1       7.997   4.150  17.219  0.00  0.00    +0.000 OA
ATOM     11  H   UNL     1       8.307   3.293  16.860  0.00  0.00    +0.000 HD
ENDBRANCH   6  10
ENDBRANCH   3   6
ENDBRANCH   2   3
BRANCH   2  12
ATOM     12  C   UNL     1       3.614   5.052  18.864  0.00  0.00    +0.000 C 
BRANCH  12  13
ATOM     13  C   UNL     1       2.964   3.931  19.665  0.00  0.00    +0.000 C 
BRANCH  13  14
ATOM     14  P   UNL     1       1.595   3.154  18.822  0.00  0.00    +0.000 P 
ATOM     15  O   UNL     1       1.151   3.823  17.567  0.00  0.00    +0.000 OA
BRANCH  14  16
ATOM     16  O   UNL     1       2.019   1.622  18.638  0.00  0.00    +0.000 OA
ATOM     17  H   UNL     1       2.006   1.336  17.695  0.00  0.00    +0.000 HD
ENDBRANCH  14  16
BRANCH  14  18
ATOM     18  O   UNL     1       0.462   3.033  19.942  0.00  0.00    +0.000 OA
ATOM     19  H   UNL     1      -0.121   3.815  19.939  0.00  0.00    +0.000 HD
ENDBRANCH  14  18
ENDBRANCH  13  14
ENDBRANCH  12  13
ENDBRANCH   2  12
TORSDOF 9
ENDMDL
MODEL 7
REMARK VINA RESULT:      -6.0      1.787      2.185
REMARK  Name = 
REMARK  9 active torsions:
REMARK  status: ('A' for Active; 'I' for Inactive)
REMARK    1  A    between atoms: C_2  and  C_3
REMARK    2  A    between atoms: C_2  and  C_9
REMARK    3  A    between atoms: C_3  and  C_4
REMARK    4  A    between atoms: C_4  and  P_5
REMARK    5  A    between atoms: P_5  and  O_7
REMARK    6  A    between atoms: P_5  and  O_8
REMARK    7  A    between atoms: C_9  and  P_12
REMARK    8  A    between atoms: P_12  and  O_14
REMARK    9  A    between atoms: P_12  and  O_15
REMARK                            x       y       z     vdW  Elec       q    Type
REMARK                         _______ _______ _______ _____ _____    ______ ____
ROOT
ATOM      1  O   UNL     1       3.659   4.346  17.339  0.00  0.00    +0.000 OA
ATOM      2  C   UNL     1       4.537   4.304  18.210  0.00  0.00    +0.000 C 
ENDROOT
BRANCH   2   3
ATOM      3  C   UNL     1       5.744   5.202  18.215  0.00  0.00    +0.000 C 
ATOM      4  F   UNL     1       5.478   6.519  18.007  0.00  0.00    +0.000 F 
ATOM      5  F   UNL     1       6.480   5.135  19.362  0.00  0.00    +0.000 F 
BRANCH   3   6
ATOM      6  P   UNL     1       6.973   4.845  16.971  0.00  0.00    +0.000 P 
ATOM      7  O   UNL     1       7.435   5.963  16.092  0.00  0.00    +0.000 OA
BRANCH   6   8
ATOM      8  O   UNL     1       8.185   4.059  17.689  0.00  0.00    +0.000 OA
ATOM      9  H   UNL     1       9.016   4.570  17.755  0.00  0.00    +0.000 HD
ENDBRANCH   6   8
BRANCH   6  10
ATOM     10  O   UNL     1       6.418   3.624  16.074  0.00  0.00    +0.000 OA
ATOM     11  H   UNL     1       5.644   3.917  15.549  0.00  0.00    +0.000 HD
ENDBRANCH   6  10
ENDBRANCH   3   6
ENDBRANCH   2   3
BRANCH   2  12
ATOM     12  C   UNL     1       4.434   3.309  19.349  0.00  0.00    +0.000 C 
BRANCH  12  13
ATOM     13  C   UNL     1       3.025   2.756  19.521  0.00  0.00    +0.000 C 
BRANCH  13  14
ATOM     14  P   UNL     1       2.129   3.496  20.877  0.00  0.00    +0.000 P 
ATOM     15  O   UNL     1       2.308   4.966  21.039  0.00  0.00    +0.000 OA
BRANCH  14  16
ATOM     16  O   UNL     1       0.609   3.033  20.689  0.00  0.00    +0.000 OA
ATOM     17  H   UNL     1       0.530   2.076  20.465  0.00  0.00    +0.000 HD
ENDBRANCH  14  16
BRANCH  14  18
ATOM     18  O   UNL     1       2.563   2.634  22.151  0.00  0.00    +0.000 OA
ATOM     19  H   UNL     1       3.188   3.128  22.714  0.00  0.00    +0.000 HD
ENDBRANCH  14  18
ENDBRANCH  13  14
ENDBRANCH  12  13
ENDBRANCH   2  12
TORSDOF 9
ENDMDL
MODEL 8
REMARK VINA RESULT:      -5.9      1.059      1.269
REMARK  Name = 
REMARK  9 active torsions:
REMARK  status: ('A' for Active; 'I' for Inactive)
REMARK    1  A    between atoms: C_2  and  C_3
REMARK    2  A    between atoms: C_2  and  C_9
REMARK    3  A    between atoms: C_3  and  C_4
REMARK    4  A    between atoms: C_4  and  P_5
REMARK    5  A    between atoms: P_5  and  O_7
REMARK    6  A    between atoms: P_5  and  O_8
REMARK    7  A    between atoms: C_9  and  P_12
REMARK    8  A    between atoms: P_12  and  O_14
REMARK    9  A    between atoms: P_12  and  O_15
REMARK                            x       y       z     vdW  Elec       q    Type
REMARK                         _______ _______ _______ _____ _____    ______ ____
ROOT
ATOM      1  O   UNL     1       5.441   3.594  19.255  0.00  0.00    +0.000 OA
ATOM      2  C   UNL     1       4.952   4.573  18.679  0.00  0.00    +0.000 C 
ENDROOT
BRANCH   2   3
ATOM      3  C   UNL     1       5.755   5.524  17.833  0.00  0.00    +0.000 C 
ATOM      4  F   UNL     1       5.018   6.338  17.031  0.00  0.00    +0.000 F 
ATOM      5  F   UNL     1       6.583   6.339  18.549  0.00  0.00    +0.000 F 
BRANCH   3   6
ATOM      6  P   UNL     1       6.893   4.762  16.689  0.00  0.00    +0.000 P 
ATOM      7  O   UNL     1       7.408   5.584  15.551  0.00  0.00    +0.000 OA
BRANCH   6   8
ATOM      8  O   UNL     1       8.066   4.067  17.552  0.00  0.00    +0.000 OA
ATOM      9  H   UNL     1       8.292   4.536  18.379  0.00  0.00    +0.000 HD
ENDBRANCH   6   8
BRANCH   6  10
ATOM     10  O   UNL     1       6.198   3.416  16.134  0.00  0.00    +0.000 OA
ATOM     11  H   UNL     1       5.239   3.564  15.999  0.00  0.00    +0.000 HD
ENDBRANCH   6  10
ENDBRANCH   3   6
ENDBRANCH   2   3
BRANCH   2  12
ATOM     12  C   UNL     1       3.471   4.871  18.805  0.00  0.00    +0.000 C 
BRANCH  12  13
ATOM     13  C   UNL     1       2.606   3.894  18.018  0.00  0.00    +0.000 C 
BRANCH  13  14
ATOM     14  P   UNL     1       2.188   2.418  18.932  0.00  0.00    +0.000 P 
ATOM     15  O   UNL     1       2.160   2.567  20.414  0.00  0.00    +0.000 OA
BRANCH  14  16
ATOM     16  O   UNL     1       0.816   1.895  18.296  0.00  0.00    +0.000 OA
ATOM     17  H   UNL     1       0.355   2.589  17.768  0.00  0.00    +0.000 HD
ENDBRANCH  14  16
BRANCH  14  18
ATOM     18  O   UNL     1       3.218   1.321  18.397  0.00  0.00    +0.000 OA
ATOM     19  H   UNL     1       2.926   0.420  18.630  0.00  0.00    +0.000 HD
ENDBRANCH  14  18
ENDBRANCH  13  14
ENDBRANCH  12  13
ENDBRANCH   2  12
TORSDOF 9
ENDMDL
MODEL 9
REMARK VINA RESULT:      -5.9      1.377      1.591
REMARK  Name = 
REMARK  9 active torsions:
REMARK  status: ('A' for Active; 'I' for Inactive)
REMARK    1  A    between atoms: C_2  and  C_3
REMARK    2  A    between atoms: C_2  and  C_9
REMARK    3  A    between atoms: C_3  and  C_4
REMARK    4  A    between atoms: C_4  and  P_5
REMARK    5  A    between atoms: P_5  and  O_7
REMARK    6  A    between atoms: P_5  and  O_8
REMARK    7  A    between atoms: C_9  and  P_12
REMARK    8  A    between atoms: P_12  and  O_14
REMARK    9  A    between atoms: P_12  and  O_15
REMARK                            x       y       z     vdW  Elec       q    Type
REMARK                         _______ _______ _______ _____ _____    ______ ____
ROOT
ATOM      1  O   UNL     1       5.840   3.912  19.206  0.00  0.00    +0.000 OA
ATOM      2  C   UNL     1       5.174   4.747  18.581  0.00  0.00    +0.000 C 
ENDROOT
BRANCH   2   3
ATOM      3  C   UNL     1       5.738   5.602  17.479  0.00  0.00    +0.000 C 
ATOM      4  F   UNL     1       4.814   6.124  16.630  0.00  0.00    +0.000 F 
ATOM      5  F   UNL     1       6.490   6.651  17.921  0.00  0.00    +0.000 F 
BRANCH   3   6
ATOM      6  P   UNL     1       6.872   4.780  16.373  0.00  0.00    +0.000 P 
ATOM      7  O   UNL     1       7.360   5.529  15.174  0.00  0.00    +0.000 OA
BRANCH   6   8
ATOM      8  O   UNL     1       8.067   4.162  17.265  0.00  0.00    +0.000 OA
ATOM      9  H   UNL     1       8.963   4.439  16.988  0.00  0.00    +0.000 HD
ENDBRANCH   6   8
BRANCH   6  10
ATOM     10  O   UNL     1       6.191   3.389  15.921  0.00  0.00    +0.000 OA
ATOM     11  H   UNL     1       5.834   2.920  16.704  0.00  0.00    +0.000 HD
ENDBRANCH   6  10
ENDBRANCH   3   6
ENDBRANCH   2   3
BRANCH   2  12
ATOM     12  C   UNL     1       3.709   4.955  18.910  0.00  0.00    +0.000 C 
BRANCH  12  13
ATOM     13  C   UNL     1       3.077   3.738  19.574  0.00  0.00    +0.000 C 
BRANCH  13  14
ATOM     14  P   UNL     1       1.825   2.950  18.573  0.00  0.00    +0.000 P 
ATOM     15  O   UNL     1       0.554   2.621  19.276  0.00  0.00    +0.000 OA
BRANCH  14  16
ATOM     16  O   UNL     1       1.646   3.892  17.292  0.00  0.00    +0.000 OA
ATOM     17  H   UNL     1       0.835   3.675  16.773  0.00  0.00    +0.000 HD
ENDBRANCH  14  16
BRANCH  14  18
ATOM     18  O   UNL     1       2.571   1.691  17.932  0.00  0.00    +0.000 OA
ATOM     19  H   UNL     1       3.253   1.340  18.536  0.00  0.00    +0.000 HD
ENDBRANCH  14  18
ENDBRANCH  13  14
ENDBRANCH  12  13
ENDBRANCH   2  12
TORSDOF 9
ENDMDL
