MODEL 1
REMARK VINA RESULT:      -6.8      0.000      0.000
REMARK  Name = 
REMARK  6 active torsions:
REMARK  status: ('A' for Active; 'I' for Inactive)
REMARK    1  A    between atoms: C_1  and  C_2
REMARK    2  A    between atoms: C_6  and  C_7
REMARK    3  A    between atoms: C_11  and  C_12
REMARK    4  A    between atoms: C_13  and  N_14
REMARK    5  A    between atoms: N_21  and  C_22
REMARK    6  A    between atoms: C_25  and  C_26
REMARK                            x       y       z     vdW  Elec       q    Type
REMARK                         _______ _______ _______ _____ _____    ______ ____
ROOT
ATOM      1  N   UNL     1       1.125  10.249  19.922  0.00  0.00    +0.000 N 
ATOM      2  C   UNL     1       0.077  10.843  19.192  0.00  0.00    +0.000 A 
ATOM      3  N   UNL     1      -0.970  10.150  18.783  0.00  0.00    +0.000 NA
ATOM      4  C   UNL     1      -1.893  10.879  18.175  0.00  0.00    +0.000 A 
ATOM      5 CL   UNL     1      -3.322  10.053  17.722  0.00  0.00    +0.000 Cl
ATOM      6  N   UNL     1      -1.888  12.184  17.929  0.00  0.00    +0.000 NA
ATOM      7  C   UNL     1      -0.807  12.791  18.380  0.00  0.00    +0.000 A 
ATOM      8  N   UNL     1      -0.736  14.176  18.186  0.00  0.00    +0.000 N 
ATOM      9  N   UNL     1       0.195  12.153  18.997  0.00  0.00    +0.000 NA
ATOM     10  H   UNL     1       1.915  10.883  19.893  0.00  0.00    +0.000 HD
ATOM     11  H   UNL     1      -1.577  14.508  17.732  0.00  0.00    +0.000 HD
ENDROOT
BRANCH   1  22
ATOM     12  C   UNL     1       0.352   8.737  22.332  0.00  0.00    +0.000 C 
ATOM     13  C   UNL     1       1.022   8.106  21.144  0.00  0.00    +0.000 A 
ATOM     14  C   UNL     1       1.287   6.786  21.180  0.00  0.00    +0.000 A 
ATOM     15  N   UNL     1       1.933   6.176  20.124  0.00  0.00    +0.000 N 
ATOM     16  C   UNL     1       2.358   4.871  20.040  0.00  0.00    +0.000 A 
ATOM     17  C   UNL     1       3.032   4.713  18.848  0.00  0.00    +0.000 A 
ATOM     18  C   UNL     1       2.931   5.937  18.142  0.00  0.00    +0.000 A 
ATOM     19  C   UNL     1       2.297   6.845  18.971  0.00  0.00    +0.000 A 
ATOM     20  C   UNL     1       2.003   8.257  18.872  0.00  0.00    +0.000 A 
ATOM     21  C   UNL     1       2.297   9.032  17.600  0.00  0.00    +0.000 C 
ATOM     22  C   UNL     1       1.432   8.895  19.946  0.00  0.00    +0.000 A 
BRANCH  17  23
ATOM     23  C   UNL     1       3.731   3.540  18.445  0.00  0.00    +0.000 C 
ATOM     24  N   UNL     1       4.269   2.567  18.092  0.00  0.00    +0.000 NA
ENDBRANCH  17  23
ENDBRANCH   1  22
BRANCH   8  25
ATOM     25  C   UNL     1      -0.097  15.129  18.997  0.00  0.00    +0.000 A 
ATOM     26  C   UNL     1       1.175  15.598  18.640  0.00  0.00    +0.000 A 
ATOM     27  C   UNL     1       1.861  16.505  19.457  0.00  0.00    +0.000 A 
ATOM     28  C   UNL     1       1.274  16.972  20.638  0.00  0.00    +0.000 A 
ATOM     29  C   UNL     1      -0.002  16.530  20.992  0.00  0.00    +0.000 A 
ATOM     30  C   UNL     1      -0.677  15.617  20.176  0.00  0.00    +0.000 A 
BRANCH  28  31
ATOM     31  C   UNL     1       1.975  17.890  21.486  0.00  0.00    +0.000 C 
ATOM     32  N   UNL     1       2.548  18.630  22.172  0.00  0.00    +0.000 NA
ENDBRANCH  28  31
ENDBRANCH   8  25
TORSDOF 4
ENDMDL
MODEL 2
REMARK VINA RESULT:      -6.7      2.258      3.089
REMARK  Name = 
REMARK  6 active torsions:
REMARK  status: ('A' for Active; 'I' for Inactive)
REMARK    1  A    between atoms: C_1  and  C_2
REMARK    2  A    between atoms: C_6  and  C_7
REMARK    3  A    between atoms: C_11  and  C_12
REMARK    4  A    between atoms: C_13  and  N_14
REMARK    5  A    between atoms: N_21  and  C_22
REMARK    6  A    between atoms: C_25  and  C_26
REMARK                            x       y       z     vdW  Elec       q    Type
REMARK                         _______ _______ _______ _____ _____    ______ ____
ROOT
ATOM      1  N   UNL     1       0.619  10.122  20.180  0.00  0.00    +0.000 N 
ATOM      2  C   UNL     1      -0.542  10.714  19.644  0.00  0.00    +0.000 A 
ATOM      3  N   UNL     1      -1.283  10.103  18.738  0.00  0.00    +0.000 NA
ATOM      4  C   UNL     1      -2.375  10.770  18.398  0.00  0.00    +0.000 A 
ATOM      5 CL   UNL     1      -3.430   9.976  17.310  0.00  0.00    +0.000 Cl
ATOM      6  N   UNL     1      -2.797  11.948  18.843  0.00  0.00    +0.000 NA
ATOM      7  C   UNL     1      -1.996  12.476  19.748  0.00  0.00    +0.000 A 
ATOM      8  N   UNL     1      -2.385  13.708  20.289  0.00  0.00    +0.000 N 
ATOM      9  N   UNL     1      -0.860  11.899  20.158  0.00  0.00    +0.000 NA
ATOM     10  H   UNL     1       1.153  10.854  20.635  0.00  0.00    +0.000 HD
ATOM     11  H   UNL     1      -3.273  13.996  19.899  0.00  0.00    +0.000 HD
ENDROOT
BRANCH   1  22
ATOM     12  C   UNL     1       2.058  10.781  17.692  0.00  0.00    +0.000 C 
ATOM     13  C   UNL     1       2.120   9.429  18.346  0.00  0.00    +0.000 A 
ATOM     14  C   UNL     1       2.865   8.468  17.767  0.00  0.00    +0.000 A 
ATOM     15  N   UNL     1       2.920   7.203  18.317  0.00  0.00    +0.000 N 
ATOM     16  C   UNL     1       3.551   6.092  17.808  0.00  0.00    +0.000 A 
ATOM     17  C   UNL     1       3.275   5.024  18.634  0.00  0.00    +0.000 A 
ATOM     18  C   UNL     1       2.531   5.521  19.732  0.00  0.00    +0.000 A 
ATOM     19  C   UNL     1       2.273   6.859  19.489  0.00  0.00    +0.000 A 
ATOM     20  C   UNL     1       1.487   7.867  20.165  0.00  0.00    +0.000 A 
ATOM     21  C   UNL     1       0.825   7.580  21.500  0.00  0.00    +0.000 C 
ATOM     22  C   UNL     1       1.360   9.107  19.589  0.00  0.00    +0.000 A 
BRANCH  17  23
ATOM     23  C   UNL     1       3.644   3.671  18.384  0.00  0.00    +0.000 C 
ATOM     24  N   UNL     1       3.905   2.552  18.187  0.00  0.00    +0.000 NA
ENDBRANCH  17  23
ENDBRANCH   1  22
BRANCH   8  25
ATOM     25  C   UNL     1      -2.128  14.203  21.579  0.00  0.00    +0.000 A 
ATOM     26  C   UNL     1      -1.152  15.193  21.758  0.00  0.00    +0.000 A 
ATOM     27  C   UNL     1      -0.834  15.665  23.037  0.00  0.00    +0.000 A 
ATOM     28  C   UNL     1      -1.504  15.166  24.158  0.00  0.00    +0.000 A 
ATOM     29  C   UNL     1      -2.496  14.197  23.991  0.00  0.00    +0.000 A 
ATOM     30  C   UNL     1      -2.800  13.723  22.711  0.00  0.00    +0.000 A 
BRANCH  28  31
ATOM     31  C   UNL     1      -1.176  15.635  25.472  0.00  0.00    +0.000 C 
ATOM     32  N   UNL     1      -0.904  16.016  26.534  0.00  0.00    +0.000 NA
ENDBRANCH  28  31
ENDBRANCH   8  25
TORSDOF 4
ENDMDL
MODEL 3
REMARK VINA RESULT:      -6.6      3.826      5.023
REMARK  Name = 
REMARK  6 active torsions:
REMARK  status: ('A' for Active; 'I' for Inactive)
REMARK    1  A    between atoms: C_1  and  C_2
REMARK    2  A    between atoms: C_6  and  C_7
REMARK    3  A    between atoms: C_11  and  C_12
REMARK    4  A    between atoms: C_13  and  N_14
REMARK    5  A    between atoms: N_21  and  C_22
REMARK    6  A    between atoms: C_25  and  C_26
REMARK                            x       y       z     vdW  Elec       q    Type
REMARK                         _______ _______ _______ _____ _____    ______ ____
ROOT
ATOM      1  N   UNL     1      -0.448  11.562  21.206  0.00  0.00    +0.000 N 
ATOM      2  C   UNL     1       0.111  12.786  21.623  0.00  0.00    +0.000 A 
ATOM      3  N   UNL     1       1.349  13.129  21.317  0.00  0.00    +0.000 NA
ATOM      4  C   UNL     1       1.687  14.342  21.725  0.00  0.00    +0.000 A 
ATOM      5 CL   UNL     1       3.243  14.882  21.260  0.00  0.00    +0.000 Cl
ATOM      6  N   UNL     1       0.954  15.226  22.391  0.00  0.00    +0.000 NA
ATOM      7  C   UNL     1      -0.268  14.797  22.646  0.00  0.00    +0.000 A 
ATOM      8  N   UNL     1      -1.116  15.682  23.323  0.00  0.00    +0.000 N 
ATOM      9  N   UNL     1      -0.714  13.586  22.292  0.00  0.00    +0.000 NA
ATOM     10  H   UNL     1      -1.280  11.401  21.763  0.00  0.00    +0.000 HD
ATOM     11  H   UNL     1      -0.641  16.559  23.493  0.00  0.00    +0.000 HD
ENDROOT
BRANCH   1  22
ATOM     12  C   UNL     1      -0.012   9.507  23.276  0.00  0.00    +0.000 C 
ATOM     13  C   UNL     1       0.469   9.364  21.859  0.00  0.00    +0.000 A 
ATOM     14  C   UNL     1       1.135   8.245  21.515  0.00  0.00    +0.000 A 
ATOM     15  N   UNL     1       1.623   8.090  20.234  0.00  0.00    +0.000 N 
ATOM     16  C   UNL     1       2.396   7.063  19.747  0.00  0.00    +0.000 A 
ATOM     17  C   UNL     1       2.731   7.355  18.443  0.00  0.00    +0.000 A 
ATOM     18  C   UNL     1       2.060   8.553  18.094  0.00  0.00    +0.000 A 
ATOM     19  C   UNL     1       1.426   9.022  19.232  0.00  0.00    +0.000 A 
ATOM     20  C   UNL     1       0.688  10.225  19.544  0.00  0.00    +0.000 A 
ATOM     21  C   UNL     1       0.362  11.246  18.469  0.00  0.00    +0.000 C 
ATOM     22  C   UNL     1       0.264  10.429  20.834  0.00  0.00    +0.000 A 
BRANCH  17  23
ATOM     23  C   UNL     1       3.624   6.600  17.631  0.00  0.00    +0.000 C 
ATOM     24  N   UNL     1       4.357   5.951  16.998  0.00  0.00    +0.000 NA
ENDBRANCH  17  23
ENDBRANCH   1  22
BRANCH   8  25
ATOM     25  C   UNL     1      -2.514  15.786  23.217  0.00  0.00    +0.000 A 
ATOM     26  C   UNL     1      -3.322  15.339  24.271  0.00  0.00    +0.000 A 
ATOM     27  C   UNL     1      -4.718  15.378  24.173  0.00  0.00    +0.000 A 
ATOM     28  C   UNL     1      -5.328  15.886  23.021  0.00  0.00    +0.000 A 
ATOM     29  C   UNL     1      -4.534  16.358  21.974  0.00  0.00    +0.000 A 
ATOM     30  C   UNL     1      -3.140  16.306  22.076  0.00  0.00    +0.000 A 
BRANCH  28  31
ATOM     31  C   UNL     1      -6.756  15.918  22.907  0.00  0.00    +0.000 C 
ATOM     32  N   UNL     1      -7.913  15.949  22.811  0.00  0.00    +0.000 NA
ENDBRANCH  28  31
ENDBRANCH   8  25
TORSDOF 4
ENDMDL
MODEL 4
REMARK VINA RESULT:      -6.6      3.299      9.572
REMARK  Name = 
REMARK  6 active torsions:
REMARK  status: ('A' for Active; 'I' for Inactive)
REMARK    1  A    between atoms: C_1  and  C_2
REMARK    2  A    between atoms: C_6  and  C_7
REMARK    3  A    between atoms: C_11  and  C_12
REMARK    4  A    between atoms: C_13  and  N_14
REMARK    5  A    between atoms: N_21  and  C_22
REMARK    6  A    between atoms: C_25  and  C_26
REMARK                            x       y       z     vdW  Elec       q    Type
REMARK                         _______ _______ _______ _____ _____    ______ ____
ROOT
ATOM      1  N   UNL     1      -1.104  10.881  20.417  0.00  0.00    +0.000 N 
ATOM      2  C   UNL     1       0.024  11.017  19.586  0.00  0.00    +0.000 A 
ATOM      3  N   UNL     1       0.548  12.196  19.306  0.00  0.00    +0.000 NA
ATOM      4  C   UNL     1       1.647  12.135  18.571  0.00  0.00    +0.000 A 
ATOM      5 CL   UNL     1       2.432  13.626  18.271  0.00  0.00    +0.000 Cl
ATOM      6  N   UNL     1       2.264  11.061  18.090  0.00  0.00    +0.000 NA
ATOM      7  C   UNL     1       1.671   9.932  18.427  0.00  0.00    +0.000 A 
ATOM      8  N   UNL     1       2.275   8.749  17.982  0.00  0.00    +0.000 N 
ATOM      9  N   UNL     1       0.550   9.873  19.155  0.00  0.00    +0.000 NA
ATOM     10  H   UNL     1      -1.478   9.949  20.276  0.00  0.00    +0.000 HD
ATOM     11  H   UNL     1       3.123   8.960  17.472  0.00  0.00    +0.000 HD
ENDROOT
BRANCH   1  22
ATOM     12  C   UNL     1      -3.067  11.501  18.305  0.00  0.00    +0.000 C 
ATOM     13  C   UNL     1      -3.057  12.181  19.646  0.00  0.00    +0.000 A 
ATOM     14  C   UNL     1      -3.987  13.123  19.896  0.00  0.00    +0.000 A 
ATOM     15  N   UNL     1      -3.989  13.795  21.102  0.00  0.00    +0.000 N 
ATOM     16  C   UNL     1      -4.801  14.839  21.480  0.00  0.00    +0.000 A 
ATOM     17  C   UNL     1      -4.403  15.264  22.729  0.00  0.00    +0.000 A 
ATOM     18  C   UNL     1      -3.378  14.390  23.164  0.00  0.00    +0.000 A 
ATOM     19  C   UNL     1      -3.098  13.523  22.122  0.00  0.00    +0.000 A 
ATOM     20  C   UNL     1      -2.102  12.497  21.912  0.00  0.00    +0.000 A 
ATOM     21  C   UNL     1      -1.150  12.089  23.022  0.00  0.00    +0.000 C 
ATOM     22  C   UNL     1      -2.036  11.874  20.690  0.00  0.00    +0.000 A 
BRANCH  17  23
ATOM     23  C   UNL     1      -4.914  16.403  23.413  0.00  0.00    +0.000 C 
ATOM     24  N   UNL     1      -5.338  17.312  24.009  0.00  0.00    +0.000 NA
ENDBRANCH  17  23
ENDBRANCH   1  22
BRANCH   8  25
ATOM     25  C   UNL     1       2.270   7.490  18.608  0.00  0.00    +0.000 A 
ATOM     26  C   UNL     1       2.474   6.336  17.839  0.00  0.00    +0.000 A 
ATOM     27  C   UNL     1       2.418   5.065  18.424  0.00  0.00    +0.000 A 
ATOM     28  C   UNL     1       2.177   4.931  19.796  0.00  0.00    +0.000 A 
ATOM     29  C   UNL     1       1.997   6.075  20.576  0.00  0.00    +0.000 A 
ATOM     30  C   UNL     1       2.044   7.340  19.983  0.00  0.00    +0.000 A 
BRANCH  28  31
ATOM     31  C   UNL     1       2.107   3.634  20.399  0.00  0.00    +0.000 C 
ATOM     32  N   UNL     1       2.046   2.585  20.893  0.00  0.00    +0.000 NA
ENDBRANCH  28  31
ENDBRANCH   8  25
TORSDOF 4
ENDMDL
MODEL 5
REMARK VINA RESULT:      -6.6      3.320      9.612
REMARK  Name = 
REMARK  6 active torsions:
REMARK  status: ('A' for Active; 'I' for Inactive)
REMARK    1  A    between atoms: C_1  and  C_2
REMARK    2  A    between atoms: C_6  and  C_7
REMARK    3  A    between atoms: C_11  and  C_12
REMARK    4  A    between atoms: C_13  and  N_14
REMARK    5  A    between atoms: N_21  and  C_22
REMARK    6  A    between atoms: C_25  and  C_26
REMARK                            x       y       z     vdW  Elec       q    Type
REMARK                         _______ _______ _______ _____ _____    ______ ____
ROOT
ATOM      1  N   UNL     1      -2.022  10.380  18.684  0.00  0.00    +0.000 N 
ATOM      2  C   UNL     1      -0.676  10.759  18.511  0.00  0.00    +0.000 A 
ATOM      3  N   UNL     1      -0.299  12.024  18.531  0.00  0.00    +0.000 NA
ATOM      4  C   UNL     1       1.009  12.197  18.426  0.00  0.00    +0.000 A 
ATOM      5 CL   UNL     1       1.566  13.810  18.557  0.00  0.00    +0.000 Cl
ATOM      6  N   UNL     1       1.958  11.276  18.301  0.00  0.00    +0.000 NA
ATOM      7  C   UNL     1       1.486  10.044  18.297  0.00  0.00    +0.000 A 
ATOM      8  N   UNL     1       2.426   9.011  18.196  0.00  0.00    +0.000 N 
ATOM      9  N   UNL     1       0.183   9.752  18.384  0.00  0.00    +0.000 NA
ATOM     10  H   UNL     1      -2.111   9.419  18.373  0.00  0.00    +0.000 HD
ATOM     11  H   UNL     1       3.363   9.393  18.166  0.00  0.00    +0.000 HD
ENDROOT
BRANCH   1  22
ATOM     12  C   UNL     1      -3.415  10.113  16.099  0.00  0.00    +0.000 C 
ATOM     13  C   UNL     1      -3.865  11.050  17.184  0.00  0.00    +0.000 A 
ATOM     14  C   UNL     1      -4.956  11.810  16.966  0.00  0.00    +0.000 A 
ATOM     15  N   UNL     1      -5.381  12.709  17.923  0.00  0.00    +0.000 N 
ATOM     16  C   UNL     1      -6.408  13.617  17.825  0.00  0.00    +0.000 A 
ATOM     17  C   UNL     1      -6.427  14.373  18.978  0.00  0.00    +0.000 A 
ATOM     18  C   UNL     1      -5.439  13.844  19.844  0.00  0.00    +0.000 A 
ATOM     19  C   UNL     1      -4.765  12.853  19.152  0.00  0.00    +0.000 A 
ATOM     20  C   UNL     1      -3.610  12.035  19.445  0.00  0.00    +0.000 A 
ATOM     21  C   UNL     1      -2.941  12.081  20.807  0.00  0.00    +0.000 C 
ATOM     22  C   UNL     1      -3.128  11.192  18.474  0.00  0.00    +0.000 A 
BRANCH  17  23
ATOM     23  C   UNL     1      -7.265  15.501  19.211  0.00  0.00    +0.000 C 
ATOM     24  N   UNL     1      -7.915  16.447  19.413  0.00  0.00    +0.000 NA
ENDBRANCH  17  23
ENDBRANCH   1  22
BRANCH   8  25
ATOM     25  C   UNL     1       2.343   7.714  18.732  0.00  0.00    +0.000 A 
ATOM     26  C   UNL     1       2.607   6.610  17.910  0.00  0.00    +0.000 A 
ATOM     27  C   UNL     1       2.477   5.304  18.399  0.00  0.00    +0.000 A 
ATOM     28  C   UNL     1       2.099   5.084  19.728  0.00  0.00    +0.000 A 
ATOM     29  C   UNL     1       1.857   6.177  20.562  0.00  0.00    +0.000 A 
ATOM     30  C   UNL     1       1.979   7.478  20.064  0.00  0.00    +0.000 A 
BRANCH  28  31
ATOM     31  C   UNL     1       1.952   3.751  20.232  0.00  0.00    +0.000 C 
ATOM     32  N   UNL     1       1.836   2.669  20.635  0.00  0.00    +0.000 NA
ENDBRANCH  28  31
ENDBRANCH   8  25
TORSDOF 4
ENDMDL
MODEL 6
REMARK VINA RESULT:      -6.6      3.363      9.461
REMARK  Name = 
REMARK  6 active torsions:
REMARK  status: ('A' for Active; 'I' for Inactive)
REMARK    1  A    between atoms: C_1  and  C_2
REMARK    2  A    between atoms: C_6  and  C_7
REMARK    3  A    between atoms: C_11  and  C_12
REMARK    4  A    between atoms: C_13  and  N_14
REMARK    5  A    between atoms: N_21  and  C_22
REMARK    6  A    between atoms: C_25  and  C_26
REMARK                            x       y       z     vdW  Elec       q    Type
REMARK                         _______ _______ _______ _____ _____    ______ ____
ROOT
ATOM      1  N   UNL     1      -0.793  10.572  20.328  0.00  0.00    +0.000 N 
ATOM      2  C   UNL     1       0.302  10.790  19.468  0.00  0.00    +0.000 A 
ATOM      3  N   UNL     1       0.765  12.001  19.219  0.00  0.00    +0.000 NA
ATOM      4  C   UNL     1       1.841  12.017  18.449  0.00  0.00    +0.000 A 
ATOM      5 CL   UNL     1       2.550  13.552  18.184  0.00  0.00    +0.000 Cl
ATOM      6  N   UNL     1       2.487  10.991  17.907  0.00  0.00    +0.000 NA
ATOM      7  C   UNL     1       1.955   9.824  18.216  0.00  0.00    +0.000 A 
ATOM      8  N   UNL     1       2.594   8.687  17.706  0.00  0.00    +0.000 N 
ATOM      9  N   UNL     1       0.861   9.688  18.976  0.00  0.00    +0.000 NA
ATOM     10  H   UNL     1      -1.130   9.631  20.162  0.00  0.00    +0.000 HD
ATOM     11  H   UNL     1       3.414   8.955  17.178  0.00  0.00    +0.000 HD
ENDROOT
BRANCH   1  22
ATOM     12  C   UNL     1      -2.631  11.449  18.195  0.00  0.00    +0.000 C 
ATOM     13  C   UNL     1      -2.716  11.945  19.611  0.00  0.00    +0.000 A 
ATOM     14  C   UNL     1      -3.676  12.837  19.924  0.00  0.00    +0.000 A 
ATOM     15  N   UNL     1      -3.765  13.344  21.205  0.00  0.00    +0.000 N 
ATOM     16  C   UNL     1      -4.617  14.321  21.664  0.00  0.00    +0.000 A 
ATOM     17  C   UNL     1      -4.304  14.581  22.981  0.00  0.00    +0.000 A 
ATOM     18  C   UNL     1      -3.292  13.666  23.362  0.00  0.00    +0.000 A 
ATOM     19  C   UNL     1      -2.933  12.948  22.235  0.00  0.00    +0.000 A 
ATOM     20  C   UNL     1      -1.909  11.967  21.956  0.00  0.00    +0.000 A 
ATOM     21  C   UNL     1      -1.020  11.425  23.061  0.00  0.00    +0.000 C 
ATOM     22  C   UNL     1      -1.756  11.512  20.669  0.00  0.00    +0.000 A 
BRANCH  17  23
ATOM     23  C   UNL     1      -4.876  15.615  23.775  0.00  0.00    +0.000 C 
ATOM     24  N   UNL     1      -5.323  16.491  24.402  0.00  0.00    +0.000 NA
ENDBRANCH  17  23
ENDBRANCH   1  22
BRANCH   8  25
ATOM     25  C   UNL     1       2.663   7.407  18.281  0.00  0.00    +0.000 A 
ATOM     26  C   UNL     1       2.203   7.211  19.590  0.00  0.00    +0.000 A 
ATOM     27  C   UNL     1       2.311   5.960  20.210  0.00  0.00    +0.000 A 
ATOM     28  C   UNL     1       2.865   4.878  19.519  0.00  0.00    +0.000 A 
ATOM     29  C   UNL     1       3.305   5.054  18.205  0.00  0.00    +0.000 A 
ATOM     30  C   UNL     1       3.203   6.309  17.597  0.00  0.00    +0.000 A 
BRANCH  28  31
ATOM     31  C   UNL     1       2.990   3.598  20.150  0.00  0.00    +0.000 C 
ATOM     32  N   UNL     1       3.086   2.558  20.658  0.00  0.00    +0.000 NA
ENDBRANCH  28  31
ENDBRANCH   8  25
TORSDOF 4
ENDMDL
MODEL 7
REMARK VINA RESULT:      -6.5      4.026      5.323
REMARK  Name = 
REMARK  6 active torsions:
REMARK  status: ('A' for Active; 'I' for Inactive)
REMARK    1  A    between atoms: C_1  and  C_2
REMARK    2  A    between atoms: C_6  and  C_7
REMARK    3  A    between atoms: C_11  and  C_12
REMARK    4  A    between atoms: C_13  and  N_14
REMARK    5  A    between atoms: N_21  and  C_22
REMARK    6  A    between atoms: C_25  and  C_26
REMARK                            x       y       z     vdW  Elec       q    Type
REMARK                         _______ _______ _______ _____ _____    ______ ____
ROOT
ATOM      1  N   UNL     1      -0.292  10.637  20.653  0.00  0.00    +0.000 N 
ATOM      2  C   UNL     1       0.120  11.875  21.183  0.00  0.00    +0.000 A 
ATOM      3  N   UNL     1       1.186  12.510  20.731  0.00  0.00    +0.000 NA
ATOM      4  C   UNL     1       1.386  13.692  21.291  0.00  0.00    +0.000 A 
ATOM      5 CL   UNL     1       2.689  14.608  20.665  0.00  0.00    +0.000 Cl
ATOM      6  N   UNL     1       0.667  14.294  22.231  0.00  0.00    +0.000 NA
ATOM      7  C   UNL     1      -0.379  13.588  22.615  0.00  0.00    +0.000 A 
ATOM      8  N   UNL     1      -1.206  14.166  23.586  0.00  0.00    +0.000 N 
ATOM      9  N   UNL     1      -0.672  12.376  22.127  0.00  0.00    +0.000 NA
ATOM     10  H   UNL     1      -0.945  10.225  21.309  0.00  0.00    +0.000 HD
ATOM     11  H   UNL     1      -0.867  15.087  23.830  0.00  0.00    +0.000 HD
ENDROOT
BRANCH   1  22
ATOM     12  C   UNL     1       0.124  11.165  17.781  0.00  0.00    +0.000 C 
ATOM     13  C   UNL     1       0.759  10.013  18.507  0.00  0.00    +0.000 A 
ATOM     14  C   UNL     1       1.555   9.176  17.813  0.00  0.00    +0.000 A 
ATOM     15  N   UNL     1       2.129   8.085  18.435  0.00  0.00    +0.000 N 
ATOM     16  C   UNL     1       2.884   7.091  17.859  0.00  0.00    +0.000 A 
ATOM     17  C   UNL     1       3.177   6.156  18.828  0.00  0.00    +0.000 A 
ATOM     18  C   UNL     1       2.665   6.646  20.054  0.00  0.00    +0.000 A 
ATOM     19  C   UNL     1       1.972   7.812  19.781  0.00  0.00    +0.000 A 
ATOM     20  C   UNL     1       1.153   8.701  20.574  0.00  0.00    +0.000 A 
ATOM     21  C   UNL     1       1.011   8.508  22.073  0.00  0.00    +0.000 C 
ATOM     22  C   UNL     1       0.512   9.745  19.954  0.00  0.00    +0.000 A 
BRANCH  17  23
ATOM     23  C   UNL     1       3.836   4.914  18.603  0.00  0.00    +0.000 C 
ATOM     24  N   UNL     1       4.348   3.878  18.447  0.00  0.00    +0.000 NA
ENDBRANCH  17  23
ENDBRANCH   1  22
BRANCH   8  25
ATOM     25  C   UNL     1      -2.591  13.992  23.753  0.00  0.00    +0.000 A 
ATOM     26  C   UNL     1      -3.074  12.810  24.332  0.00  0.00    +0.000 A 
ATOM     27  C   UNL     1      -4.449  12.583  24.460  0.00  0.00    +0.000 A 
ATOM     28  C   UNL     1      -5.365  13.548  24.028  0.00  0.00    +0.000 A 
ATOM     29  C   UNL     1      -4.896  14.740  23.472  0.00  0.00    +0.000 A 
ATOM     30  C   UNL     1      -3.521  14.955  23.338  0.00  0.00    +0.000 A 
BRANCH  28  31
ATOM     31  C   UNL     1      -6.775  13.318  24.145  0.00  0.00    +0.000 C 
ATOM     32  N   UNL     1      -7.917  13.134  24.245  0.00  0.00    +0.000 NA
ENDBRANCH  28  31
ENDBRANCH   8  25
TORSDOF 4
ENDMDL
MODEL 8
REMARK VINA RESULT:      -6.3      3.437      9.628
REMARK  Name = 
REMARK  6 active torsions:
REMARK  status: ('A' for Active; 'I' for Inactive)
REMARK    1  A    between atoms: C_1  and  C_2
REMARK    2  A    between atoms: C_6  and  C_7
REMARK    3  A    between atoms: C_11  and  C_12
REMARK    4  A    between atoms: C_13  and  N_14
REMARK    5  A    between atoms: N_21  and  C_22
REMARK    6  A    between atoms: C_25  and  C_26
REMARK                            x       y       z     vdW  Elec       q    Type
REMARK                         _______ _______ _______ _____ _____    ______ ____
ROOT
ATOM      1  N   UNL     1      -1.380  11.408  20.587  0.00  0.00    +0.000 N 
ATOM      2  C   UNL     1      -0.251  11.588  19.764  0.00  0.00    +0.000 A 
ATOM      3  N   UNL     1       0.244  12.785  19.508  0.00  0.00    +0.000 NA
ATOM      4  C   UNL     1       1.348  12.765  18.778  0.00  0.00    +0.000 A 
ATOM      5 CL   UNL     1       2.095  14.281  18.507  0.00  0.00    +0.000 Cl
ATOM      6  N   UNL     1       1.994  11.716  18.283  0.00  0.00    +0.000 NA
ATOM      7  C   UNL     1       1.430  10.565  18.597  0.00  0.00    +0.000 A 
ATOM      8  N   UNL     1       2.067   9.406  18.136  0.00  0.00    +0.000 N 
ATOM      9  N   UNL     1       0.306  10.466  19.318  0.00  0.00    +0.000 NA
ATOM     10  H   UNL     1      -1.728  10.470  20.428  0.00  0.00    +0.000 HD
ATOM     11  H   UNL     1       2.911   9.648  17.634  0.00  0.00    +0.000 HD
ENDROOT
BRANCH   1  22
ATOM     12  C   UNL     1      -3.584  11.726  18.653  0.00  0.00    +0.000 C 
ATOM     13  C   UNL     1      -3.478  12.527  19.920  0.00  0.00    +0.000 A 
ATOM     14  C   UNL     1      -4.434  13.438  20.186  0.00  0.00    +0.000 A 
ATOM     15  N   UNL     1      -4.355  14.219  21.322  0.00  0.00    +0.000 N 
ATOM     16  C   UNL     1      -5.187  15.249  21.693  0.00  0.00    +0.000 A 
ATOM     17  C   UNL     1      -4.690  15.808  22.850  0.00  0.00    +0.000 A 
ATOM     18  C   UNL     1      -3.574  15.033  23.247  0.00  0.00    +0.000 A 
ATOM     19  C   UNL     1      -3.349  14.090  22.260  0.00  0.00    +0.000 A 
ATOM     20  C   UNL     1      -2.318  13.102  22.035  0.00  0.00    +0.000 A 
ATOM     21  C   UNL     1      -1.234  12.850  23.066  0.00  0.00    +0.000 C 
ATOM     22  C   UNL     1      -2.339  12.372  20.871  0.00  0.00    +0.000 A 
BRANCH  17  23
ATOM     23  C   UNL     1      -5.198  16.978  23.484  0.00  0.00    +0.000 C 
ATOM     24  N   UNL     1      -5.575  17.942  24.021  0.00  0.00    +0.000 NA
ENDBRANCH  17  23
ENDBRANCH   1  22
BRANCH   8  25
ATOM     25  C   UNL     1       2.091   8.138  18.741  0.00  0.00    +0.000 A 
ATOM     26  C   UNL     1       1.784   8.015  20.103  0.00  0.00    +0.000 A 
ATOM     27  C   UNL     1       1.854   6.774  20.746  0.00  0.00    +0.000 A 
ATOM     28  C   UNL     1       2.215   5.629  20.028  0.00  0.00    +0.000 A 
ATOM     29  C   UNL     1       2.500   5.734  18.665  0.00  0.00    +0.000 A 
ATOM     30  C   UNL     1       2.437   6.979  18.033  0.00  0.00    +0.000 A 
BRANCH  28  31
ATOM     31  C   UNL     1       2.302   4.357  20.682  0.00  0.00    +0.000 C 
ATOM     32  N   UNL     1       2.377   3.326  21.211  0.00  0.00    +0.000 NA
ENDBRANCH  28  31
ENDBRANCH   8  25
TORSDOF 4
ENDMDL
MODEL 9
REMARK VINA RESULT:      -6.2      3.345      9.557
REMARK  Name = 
REMARK  6 active torsions:
REMARK  status: ('A' for Active; 'I' for Inactive)
REMARK    1  A    between atoms: C_1  and  C_2
REMARK    2  A    between atoms: C_6  and  C_7
REMARK    3  A    between atoms: C_11  and  C_12
REMARK    4  A    between atoms: C_13  and  N_14
REMARK    5  A    between atoms: N_21  and  C_22
REMARK    6  A    between atoms: C_25  and  C_26
REMARK                            x       y       z     vdW  Elec       q    Type
REMARK                         _______ _______ _______ _____ _____    ______ ____
ROOT
ATOM      1  N   UNL     1      -1.899  10.660  19.093  0.00  0.00    +0.000 N 
ATOM      2  C   UNL     1      -0.587  11.042  18.751  0.00  0.00    +0.000 A 
ATOM      3  N   UNL     1      -0.214  12.308  18.718  0.00  0.00    +0.000 NA
ATOM      4  C   UNL     1       1.071  12.482  18.449  0.00  0.00    +0.000 A 
ATOM      5 CL   UNL     1       1.634  14.097  18.502  0.00  0.00    +0.000 Cl
ATOM      6  N   UNL     1       1.999  11.563  18.210  0.00  0.00    +0.000 NA
ATOM      7  C   UNL     1       1.533  10.330  18.272  0.00  0.00    +0.000 A 
ATOM      8  N   UNL     1       2.456   9.299  18.059  0.00  0.00    +0.000 N 
ATOM      9  N   UNL     1       0.252  10.035  18.523  0.00  0.00    +0.000 NA
ATOM     10  H   UNL     1      -2.024   9.698  18.800  0.00  0.00    +0.000 HD
ATOM     11  H   UNL     1       3.381   9.683  17.911  0.00  0.00    +0.000 HD
ENDROOT
BRANCH   1  22
ATOM     12  C   UNL     1      -3.550  10.448  16.659  0.00  0.00    +0.000 C 
ATOM     13  C   UNL     1      -3.890  11.354  17.808  0.00  0.00    +0.000 A 
ATOM     14  C   UNL     1      -5.002  12.111  17.723  0.00  0.00    +0.000 A 
ATOM     15  N   UNL     1      -5.330  12.982  18.742  0.00  0.00    +0.000 N 
ATOM     16  C   UNL     1      -6.367  13.885  18.774  0.00  0.00    +0.000 A 
ATOM     17  C   UNL     1      -6.271  14.611  19.941  0.00  0.00    +0.000 A 
ATOM     18  C   UNL     1      -5.196  14.068  20.688  0.00  0.00    +0.000 A 
ATOM     19  C   UNL     1      -4.593  13.100  19.905  0.00  0.00    +0.000 A 
ATOM     20  C   UNL     1      -3.409  12.284  20.056  0.00  0.00    +0.000 A 
ATOM     21  C   UNL     1      -2.604  12.300  21.343  0.00  0.00    +0.000 C 
ATOM     22  C   UNL     1      -3.025  11.470  19.018  0.00  0.00    +0.000 A 
BRANCH  17  23
ATOM     23  C   UNL     1      -7.085  15.726  20.288  0.00  0.00    +0.000 C 
ATOM     24  N   UNL     1      -7.718  16.658  20.592  0.00  0.00    +0.000 NA
ENDBRANCH  17  23
ENDBRANCH   1  22
BRANCH   8  25
ATOM     25  C   UNL     1       2.444   8.004  18.607  0.00  0.00    +0.000 A 
ATOM     26  C   UNL     1       1.880   7.795  19.873  0.00  0.00    +0.000 A 
ATOM     27  C   UNL     1       1.903   6.528  20.469  0.00  0.00    +0.000 A 
ATOM     28  C   UNL     1       2.476   5.444  19.795  0.00  0.00    +0.000 A 
ATOM     29  C   UNL     1       3.019   5.635  18.523  0.00  0.00    +0.000 A 
ATOM     30  C   UNL     1       3.001   6.905  17.939  0.00  0.00    +0.000 A 
BRANCH  28  31
ATOM     31  C   UNL     1       2.514   4.147  20.404  0.00  0.00    +0.000 C 
ATOM     32  N   UNL     1       2.540   3.097  20.898  0.00  0.00    +0.000 NA
ENDBRANCH  28  31
ENDBRANCH   8  25
TORSDOF 4
ENDMDL
