MODEL 1
REMARK VINA RESULT:      -8.0      0.000      0.000
REMARK  Name = 
REMARK  4 active torsions:
REMARK  status: ('A' for Active; 'I' for Inactive)
REMARK    1  A    between atoms: C_1  and  N_2
REMARK    2  A    between atoms: C_4  and  C_5
REMARK    3  A    between atoms: C_8  and  N_9
REMARK    4  A    between atoms: N_17  and  C_18
REMARK                            x       y       z     vdW  Elec       q    Type
REMARK                         _______ _______ _______ _____ _____    ______ ____
ROOT
ATOM      1  N   UNL     1       1.248   9.053  19.892  0.00  0.00    +0.000 N 
ATOM      2  C   UNL     1       1.735   7.805  20.199  0.00  0.00    +0.000 C 
ATOM      3  O   UNL     1       1.550   7.226  21.268  0.00  0.00    +0.000 OA
ATOM      4  N   UNL     1       2.489   7.194  19.223  0.00  0.00    +0.000 N 
ATOM      5  C   UNL     1       2.930   7.748  17.950  0.00  0.00    +0.000 C 
ATOM      6  C   UNL     1       4.041   6.815  17.472  0.00  0.00    +0.000 C 
ATOM      7  C   UNL     1       3.791   5.510  18.213  0.00  0.00    +0.000 C 
ATOM      8  C   UNL     1       2.695   4.632  17.609  0.00  0.00    +0.000 C 
ATOM      9  N   UNL     1       2.096   3.935  18.768  0.00  0.00    +0.000 N 
ATOM     10  C   UNL     1       2.359   4.745  19.997  0.00  0.00    +0.000 C 
ATOM     11  C   UNL     1       3.196   5.951  19.542  0.00  0.00    +0.000 C 
ATOM     12  H   UNL     1       1.349   9.387  18.945  0.00  0.00    +0.000 HD
ENDROOT
BRANCH   1  16
ATOM     13  C   UNL     1      -1.150  11.569  22.327  0.00  0.00    +0.000 A 
ATOM     14  C   UNL     1      -0.741  10.321  22.805  0.00  0.00    +0.000 A 
ATOM     15  C   UNL     1       0.071   9.489  22.029  0.00  0.00    +0.000 A 
ATOM     16  C   UNL     1       0.479   9.876  20.752  0.00  0.00    +0.000 A 
ATOM     17  C   UNL     1       0.098  11.143  20.299  0.00  0.00    +0.000 A 
ATOM     18  F   UNL     1       0.498  11.560  19.085  0.00  0.00    +0.000 F 
ATOM     19  C   UNL     1      -0.705  11.987  21.069  0.00  0.00    +0.000 A 
BRANCH  13  23
ATOM     20  C   UNL     1      -2.913  15.389  24.954  0.00  0.00    +0.000 C 
ATOM     21  N   UNL     1      -2.773  14.118  24.285  0.00  0.00    +0.000 N 
ATOM     22  C   UNL     1      -1.708  13.690  23.547  0.00  0.00    +0.000 A 
ATOM     23  C   UNL     1      -2.017  12.412  23.127  0.00  0.00    +0.000 A 
ATOM     24  C   UNL     1      -3.299  12.174  23.671  0.00  0.00    +0.000 A 
ATOM     25  N   UNL     1      -3.763  13.211  24.373  0.00  0.00    +0.000 NA
ENDBRANCH  13  23
ENDBRANCH   1  16
BRANCH   9  26
ATOM     26  C   UNL     1       1.142   3.003  18.688  0.00  0.00    +0.000 C 
ATOM     27  N   UNL     1       0.315   2.192  18.621  0.00  0.00    +0.000 NA
ENDBRANCH   9  26
TORSDOF 3
ENDMDL
MODEL 2
REMARK VINA RESULT:      -7.8      1.074      1.150
REMARK  Name = 
REMARK  4 active torsions:
REMARK  status: ('A' for Active; 'I' for Inactive)
REMARK    1  A    between atoms: C_1  and  N_2
REMARK    2  A    between atoms: C_4  and  C_5
REMARK    3  A    between atoms: C_8  and  N_9
REMARK    4  A    between atoms: N_17  and  C_18
REMARK                            x       y       z     vdW  Elec       q    Type
REMARK                         _______ _______ _______ _____ _____    ______ ____
ROOT
ATOM      1  N   UNL     1       1.464   9.034  19.250  0.00  0.00    +0.000 N 
ATOM      2  C   UNL     1       1.841   7.809  19.745  0.00  0.00    +0.000 C 
ATOM      3  O   UNL     1       1.475   7.349  20.825  0.00  0.00    +0.000 OA
ATOM      4  N   UNL     1       2.700   7.078  18.956  0.00  0.00    +0.000 N 
ATOM      5  C   UNL     1       3.348   7.484  17.716  0.00  0.00    +0.000 C 
ATOM      6  C   UNL     1       4.471   6.471  17.502  0.00  0.00    +0.000 C 
ATOM      7  C   UNL     1       4.054   5.257  18.319  0.00  0.00    +0.000 C 
ATOM      8  C   UNL     1       3.017   4.359  17.645  0.00  0.00    +0.000 C 
ATOM      9  N   UNL     1       2.223   3.804  18.762  0.00  0.00    +0.000 N 
ATOM     10  C   UNL     1       2.342   4.726  19.933  0.00  0.00    +0.000 C 
ATOM     11  C   UNL     1       3.293   5.852  19.496  0.00  0.00    +0.000 C 
ATOM     12  H   UNL     1       1.718   9.267  18.301  0.00  0.00    +0.000 HD
ENDROOT
BRANCH   1  16
ATOM     13  C   UNL     1      -1.209  11.739  21.133  0.00  0.00    +0.000 A 
ATOM     14  C   UNL     1      -0.067  11.304  21.810  0.00  0.00    +0.000 A 
ATOM     15  C   UNL     1       0.840  10.435  21.197  0.00  0.00    +0.000 A 
ATOM     16  C   UNL     1       0.618   9.966  19.902  0.00  0.00    +0.000 A 
ATOM     17  C   UNL     1      -0.507  10.438  19.218  0.00  0.00    +0.000 A 
ATOM     18  F   UNL     1      -0.736  10.030  17.958  0.00  0.00    +0.000 F 
ATOM     19  C   UNL     1      -1.415  11.314  19.816  0.00  0.00    +0.000 A 
BRANCH  13  23
ATOM     20  C   UNL     1      -3.433  14.623  24.501  0.00  0.00    +0.000 C 
ATOM     21  N   UNL     1      -3.122  13.889  23.298  0.00  0.00    +0.000 N 
ATOM     22  C   UNL     1      -2.005  13.144  23.055  0.00  0.00    +0.000 A 
ATOM     23  C   UNL     1      -2.160  12.617  21.788  0.00  0.00    +0.000 A 
ATOM     24  C   UNL     1      -3.410  13.116  21.360  0.00  0.00    +0.000 A 
ATOM     25  N   UNL     1      -3.997  13.893  22.275  0.00  0.00    +0.000 NA
ENDBRANCH  13  23
ENDBRANCH   1  16
BRANCH   9  26
ATOM     26  C   UNL     1       1.247   2.901  18.630  0.00  0.00    +0.000 C 
ATOM     27  N   UNL     1       0.397   2.119  18.516  0.00  0.00    +0.000 NA
ENDBRANCH   9  26
TORSDOF 3
ENDMDL
MODEL 3
REMARK VINA RESULT:      -7.7      2.343      9.166
REMARK  Name = 
REMARK  4 active torsions:
REMARK  status: ('A' for Active; 'I' for Inactive)
REMARK    1  A    between atoms: C_1  and  N_2
REMARK    2  A    between atoms: C_4  and  C_5
REMARK    3  A    between atoms: C_8  and  N_9
REMARK    4  A    between atoms: N_17  and  C_18
REMARK                            x       y       z     vdW  Elec       q    Type
REMARK                         _______ _______ _______ _____ _____    ______ ____
ROOT
ATOM      1  N   UNL     1       1.046  10.423  20.034  0.00  0.00    +0.000 N 
ATOM      2  C   UNL     1      -0.148  11.011  19.690  0.00  0.00    +0.000 C 
ATOM      3  O   UNL     1      -1.026  10.469  19.022  0.00  0.00    +0.000 OA
ATOM      4  N   UNL     1      -0.334  12.302  20.130  0.00  0.00    +0.000 N 
ATOM      5  C   UNL     1       0.618  13.163  20.818  0.00  0.00    +0.000 C 
ATOM      6  C   UNL     1       0.042  14.572  20.699  0.00  0.00    +0.000 C 
ATOM      7  C   UNL     1      -1.442  14.358  20.439  0.00  0.00    +0.000 C 
ATOM      8  C   UNL     1      -2.271  14.046  21.684  0.00  0.00    +0.000 C 
ATOM      9  N   UNL     1      -3.351  13.159  21.200  0.00  0.00    +0.000 N 
ATOM     10  C   UNL     1      -2.892  12.495  19.942  0.00  0.00    +0.000 C 
ATOM     11  C   UNL     1      -1.492  13.058  19.648  0.00  0.00    +0.000 C 
ATOM     12  H   UNL     1       1.646  10.903  20.689  0.00  0.00    +0.000 HD
ENDROOT
BRANCH   1  16
ATOM     13  C   UNL     1       2.424   6.594  18.829  0.00  0.00    +0.000 A 
ATOM     14  C   UNL     1       1.990   6.797  20.142  0.00  0.00    +0.000 A 
ATOM     15  C   UNL     1       1.507   8.043  20.551  0.00  0.00    +0.000 A 
ATOM     16  C   UNL     1       1.463   9.120  19.665  0.00  0.00    +0.000 A 
ATOM     17  C   UNL     1       1.862   8.897  18.343  0.00  0.00    +0.000 A 
ATOM     18  F   UNL     1       1.804   9.904  17.455  0.00  0.00    +0.000 F 
ATOM     19  C   UNL     1       2.337   7.653  17.920  0.00  0.00    +0.000 A 
BRANCH  13  23
ATOM     20  C   UNL     1       3.236   1.712  18.499  0.00  0.00    +0.000 C 
ATOM     21  N   UNL     1       3.291   3.140  18.296  0.00  0.00    +0.000 N 
ATOM     22  C   UNL     1       2.533   4.088  18.919  0.00  0.00    +0.000 A 
ATOM     23  C   UNL     1       2.952   5.307  18.422  0.00  0.00    +0.000 A 
ATOM     24  C   UNL     1       3.969   4.968  17.502  0.00  0.00    +0.000 A 
ATOM     25  N   UNL     1       4.175   3.652  17.421  0.00  0.00    +0.000 NA
ENDBRANCH  13  23
ENDBRANCH   1  16
BRANCH   9  26
ATOM     26  C   UNL     1      -4.357  12.702  21.951  0.00  0.00    +0.000 C 
ATOM     27  N   UNL     1      -5.229  12.306  22.606  0.00  0.00    +0.000 NA
ENDBRANCH   9  26
TORSDOF 3
ENDMDL
MODEL 4
REMARK VINA RESULT:      -7.7      1.721      2.086
REMARK  Name = 
REMARK  4 active torsions:
REMARK  status: ('A' for Active; 'I' for Inactive)
REMARK    1  A    between atoms: C_1  and  N_2
REMARK    2  A    between atoms: C_4  and  C_5
REMARK    3  A    between atoms: C_8  and  N_9
REMARK    4  A    between atoms: N_17  and  C_18
REMARK                            x       y       z     vdW  Elec       q    Type
REMARK                         _______ _______ _______ _____ _____    ______ ____
ROOT
ATOM      1  N   UNL     1       1.537   9.088  18.810  0.00  0.00    +0.000 N 
ATOM      2  C   UNL     1       1.845   7.906  19.440  0.00  0.00    +0.000 C 
ATOM      3  O   UNL     1       1.370   7.542  20.514  0.00  0.00    +0.000 OA
ATOM      4  N   UNL     1       2.763   7.103  18.801  0.00  0.00    +0.000 N 
ATOM      5  C   UNL     1       3.533   7.398  17.600  0.00  0.00    +0.000 C 
ATOM      6  C   UNL     1       4.654   6.362  17.580  0.00  0.00    +0.000 C 
ATOM      7  C   UNL     1       4.141   5.225  18.451  0.00  0.00    +0.000 C 
ATOM      8  C   UNL     1       3.159   4.281  17.758  0.00  0.00    +0.000 C 
ATOM      9  N   UNL     1       2.253   3.829  18.835  0.00  0.00    +0.000 N 
ATOM     10  C   UNL     1       2.275   4.845  19.931  0.00  0.00    +0.000 C 
ATOM     11  C   UNL     1       3.281   5.922  19.495  0.00  0.00    +0.000 C 
ATOM     12  H   UNL     1       1.884   9.238  17.875  0.00  0.00    +0.000 HD
ENDROOT
BRANCH   1  16
ATOM     13  C   UNL     1      -1.262  11.947  20.226  0.00  0.00    +0.000 A 
ATOM     14  C   UNL     1      -0.073  11.729  20.927  0.00  0.00    +0.000 A 
ATOM     15  C   UNL     1       0.873  10.812  20.463  0.00  0.00    +0.000 A 
ATOM     16  C   UNL     1       0.648  10.078  19.298  0.00  0.00    +0.000 A 
ATOM     17  C   UNL     1      -0.526  10.332  18.581  0.00  0.00    +0.000 A 
ATOM     18  F   UNL     1      -0.762   9.665  17.438  0.00  0.00    +0.000 F 
ATOM     19  C   UNL     1      -1.475  11.254  19.030  0.00  0.00    +0.000 A 
BRANCH  13  23
ATOM     20  C   UNL     1      -5.538  14.338  20.999  0.00  0.00    +0.000 C 
ATOM     21  N   UNL     1      -4.158  13.920  21.055  0.00  0.00    +0.000 N 
ATOM     22  C   UNL     1      -3.587  12.880  20.380  0.00  0.00    +0.000 A 
ATOM     23  C   UNL     1      -2.251  12.879  20.731  0.00  0.00    +0.000 A 
ATOM     24  C   UNL     1      -2.132  13.964  21.628  0.00  0.00    +0.000 A 
ATOM     25  N   UNL     1      -3.291  14.597  21.829  0.00  0.00    +0.000 NA
ENDBRANCH  13  23
ENDBRANCH   1  16
BRANCH   9  26
ATOM     26  C   UNL     1       1.280   2.926  18.686  0.00  0.00    +0.000 C 
ATOM     27  N   UNL     1       0.435   2.141  18.560  0.00  0.00    +0.000 NA
ENDBRANCH   9  26
TORSDOF 3
ENDMDL
MODEL 5
REMARK VINA RESULT:      -7.6      2.185      9.208
REMARK  Name = 
REMARK  4 active torsions:
REMARK  status: ('A' for Active; 'I' for Inactive)
REMARK    1  A    between atoms: C_1  and  N_2
REMARK    2  A    between atoms: C_4  and  C_5
REMARK    3  A    between atoms: C_8  and  N_9
REMARK    4  A    between atoms: N_17  and  C_18
REMARK                            x       y       z     vdW  Elec       q    Type
REMARK                         _______ _______ _______ _____ _____    ______ ____
ROOT
ATOM      1  N   UNL     1       0.979  10.988  19.811  0.00  0.00    +0.000 N 
ATOM      2  C   UNL     1      -0.344  11.354  19.883  0.00  0.00    +0.000 C 
ATOM      3  O   UNL     1      -1.288  10.626  19.581  0.00  0.00    +0.000 OA
ATOM      4  N   UNL     1      -0.592  12.637  20.316  0.00  0.00    +0.000 N 
ATOM      5  C   UNL     1       0.371  13.692  20.601  0.00  0.00    +0.000 C 
ATOM      6  C   UNL     1      -0.447  14.980  20.643  0.00  0.00    +0.000 C 
ATOM      7  C   UNL     1      -1.871  14.521  20.922  0.00  0.00    +0.000 C 
ATOM      8  C   UNL     1      -2.163  14.202  22.387  0.00  0.00    +0.000 C 
ATOM      9  N   UNL     1      -3.171  13.121  22.340  0.00  0.00    +0.000 N 
ATOM     10  C   UNL     1      -3.055  12.422  21.023  0.00  0.00    +0.000 C 
ATOM     11  C   UNL     1      -1.957  13.162  20.242  0.00  0.00    +0.000 C 
ATOM     12  H   UNL     1       1.671  11.612  20.199  0.00  0.00    +0.000 HD
ENDROOT
BRANCH   1  16
ATOM     13  C   UNL     1       2.318   7.156  18.572  0.00  0.00    +0.000 A 
ATOM     14  C   UNL     1       2.276   8.210  17.655  0.00  0.00    +0.000 A 
ATOM     15  C   UNL     1       1.864   9.485  18.050  0.00  0.00    +0.000 A 
ATOM     16  C   UNL     1       1.467   9.735  19.364  0.00  0.00    +0.000 A 
ATOM     17  C   UNL     1       1.551   8.684  20.284  0.00  0.00    +0.000 A 
ATOM     18  F   UNL     1       1.205   8.897  21.565  0.00  0.00    +0.000 F 
ATOM     19  C   UNL     1       1.970   7.408  19.903  0.00  0.00    +0.000 A 
BRANCH  13  23
ATOM     20  C   UNL     1       2.419   2.245  17.889  0.00  0.00    +0.000 C 
ATOM     21  N   UNL     1       2.738   3.652  17.858  0.00  0.00    +0.000 N 
ATOM     22  C   UNL     1       2.016   4.670  18.410  0.00  0.00    +0.000 A 
ATOM     23  C   UNL     1       2.718   5.829  18.146  0.00  0.00    +0.000 A 
ATOM     24  C   UNL     1       3.850   5.387  17.425  0.00  0.00    +0.000 A 
ATOM     25  N   UNL     1       3.863   4.063  17.246  0.00  0.00    +0.000 NA
ENDBRANCH  13  23
ENDBRANCH   1  16
BRANCH   9  26
ATOM     26  C   UNL     1      -3.770  12.588  23.408  0.00  0.00    +0.000 C 
ATOM     27  N   UNL     1      -4.287  12.126  24.339  0.00  0.00    +0.000 NA
ENDBRANCH   9  26
TORSDOF 3
ENDMDL
MODEL 6
REMARK VINA RESULT:      -7.6      2.720      9.253
REMARK  Name = 
REMARK  4 active torsions:
REMARK  status: ('A' for Active; 'I' for Inactive)
REMARK    1  A    between atoms: C_1  and  N_2
REMARK    2  A    between atoms: C_4  and  C_5
REMARK    3  A    between atoms: C_8  and  N_9
REMARK    4  A    between atoms: N_17  and  C_18
REMARK                            x       y       z     vdW  Elec       q    Type
REMARK                         _______ _______ _______ _____ _____    ______ ____
ROOT
ATOM      1  N   UNL     1      -0.083  10.827  20.773  0.00  0.00    +0.000 N 
ATOM      2  C   UNL     1      -1.164  11.489  20.241  0.00  0.00    +0.000 C 
ATOM      3  O   UNL     1      -1.583  11.335  19.095  0.00  0.00    +0.000 OA
ATOM      4  N   UNL     1      -1.789  12.389  21.074  0.00  0.00    +0.000 N 
ATOM      5  C   UNL     1      -1.384  12.812  22.407  0.00  0.00    +0.000 C 
ATOM      6  C   UNL     1      -2.180  14.086  22.683  0.00  0.00    +0.000 C 
ATOM      7  C   UNL     1      -3.370  14.005  21.738  0.00  0.00    +0.000 C 
ATOM      8  C   UNL     1      -4.507  13.104  22.218  0.00  0.00    +0.000 C 
ATOM      9  N   UNL     1      -5.097  12.555  20.978  0.00  0.00    +0.000 N 
ATOM     10  C   UNL     1      -4.066  12.609  19.898  0.00  0.00    +0.000 C 
ATOM     11  C   UNL     1      -2.825  13.267  20.524  0.00  0.00    +0.000 C 
ATOM     12  H   UNL     1       0.104  10.930  21.759  0.00  0.00    +0.000 HD
ENDROOT
BRANCH   1  16
ATOM     13  C   UNL     1       2.248   7.875  18.808  0.00  0.00    +0.000 A 
ATOM     14  C   UNL     1       1.900   9.050  18.136  0.00  0.00    +0.000 A 
ATOM     15  C   UNL     1       1.157  10.045  18.774  0.00  0.00    +0.000 A 
ATOM     16  C   UNL     1       0.727   9.884  20.091  0.00  0.00    +0.000 A 
ATOM     17  C   UNL     1       1.114   8.723  20.769  0.00  0.00    +0.000 A 
ATOM     18  F   UNL     1       0.742   8.549  22.049  0.00  0.00    +0.000 F 
ATOM     19  C   UNL     1       1.865   7.725  20.144  0.00  0.00    +0.000 A 
BRANCH  13  23
ATOM     20  C   UNL     1       3.741   3.442  17.158  0.00  0.00    +0.000 C 
ATOM     21  N   UNL     1       3.633   4.859  17.411  0.00  0.00    +0.000 N 
ATOM     22  C   UNL     1       2.677   5.490  18.151  0.00  0.00    +0.000 A 
ATOM     23  C   UNL     1       2.994   6.834  18.127  0.00  0.00    +0.000 A 
ATOM     24  C   UNL     1       4.164   6.895  17.337  0.00  0.00    +0.000 A 
ATOM     25  N   UNL     1       4.553   5.696  16.898  0.00  0.00    +0.000 NA
ENDBRANCH  13  23
ENDBRANCH   1  16
BRANCH   9  26
ATOM     26  C   UNL     1      -6.178  11.771  20.929  0.00  0.00    +0.000 C 
ATOM     27  N   UNL     1      -7.117  11.092  20.883  0.00  0.00    +0.000 NA
ENDBRANCH   9  26
TORSDOF 3
ENDMDL
MODEL 7
REMARK VINA RESULT:      -7.5      3.572      9.571
REMARK  Name = 
REMARK  4 active torsions:
REMARK  status: ('A' for Active; 'I' for Inactive)
REMARK    1  A    between atoms: C_1  and  N_2
REMARK    2  A    between atoms: C_4  and  C_5
REMARK    3  A    between atoms: C_8  and  N_9
REMARK    4  A    between atoms: N_17  and  C_18
REMARK                            x       y       z     vdW  Elec       q    Type
REMARK                         _______ _______ _______ _____ _____    ______ ____
ROOT
ATOM      1  N   UNL     1       0.382  11.106  19.435  0.00  0.00    +0.000 N 
ATOM      2  C   UNL     1       0.938  12.287  19.865  0.00  0.00    +0.000 C 
ATOM      3  O   UNL     1       2.128  12.441  20.135  0.00  0.00    +0.000 OA
ATOM      4  N   UNL     1       0.071  13.347  20.004  0.00  0.00    +0.000 N 
ATOM      5  C   UNL     1      -1.378  13.349  19.861  0.00  0.00    +0.000 C 
ATOM      6  C   UNL     1      -1.843  14.651  20.508  0.00  0.00    +0.000 C 
ATOM      7  C   UNL     1      -0.615  15.549  20.487  0.00  0.00    +0.000 C 
ATOM      8  C   UNL     1      -0.343  16.228  19.145  0.00  0.00    +0.000 C 
ATOM      9  N   UNL     1       1.129  16.349  19.080  0.00  0.00    +0.000 N 
ATOM     10  C   UNL     1       1.730  15.313  19.974  0.00  0.00    +0.000 C 
ATOM     11  C   UNL     1       0.550  14.581  20.633  0.00  0.00    +0.000 C 
ATOM     12  H   UNL     1      -0.577  11.115  19.121  0.00  0.00    +0.000 HD
ENDROOT
BRANCH   1  16
ATOM     13  C   UNL     1       2.329   7.362  18.987  0.00  0.00    +0.000 A 
ATOM     14  C   UNL     1       2.296   8.263  17.919  0.00  0.00    +0.000 A 
ATOM     15  C   UNL     1       1.683   9.511  18.055  0.00  0.00    +0.000 A 
ATOM     16  C   UNL     1       1.074   9.883  19.254  0.00  0.00    +0.000 A 
ATOM     17  C   UNL     1       1.147   8.992  20.329  0.00  0.00    +0.000 A 
ATOM     18  F   UNL     1       0.596   9.329  21.508  0.00  0.00    +0.000 F 
ATOM     19  C   UNL     1       1.765   7.745  20.208  0.00  0.00    +0.000 A 
BRANCH  13  23
ATOM     20  C   UNL     1       3.098   2.631  17.712  0.00  0.00    +0.000 C 
ATOM     21  N   UNL     1       3.254   3.961  18.249  0.00  0.00    +0.000 N 
ATOM     22  C   UNL     1       2.374   4.999  18.143  0.00  0.00    +0.000 A 
ATOM     23  C   UNL     1       2.939   6.057  18.826  0.00  0.00    +0.000 A 
ATOM     24  C   UNL     1       4.166   5.541  19.302  0.00  0.00    +0.000 A 
ATOM     25  N   UNL     1       4.361   4.268  18.949  0.00  0.00    +0.000 NA
ENDBRANCH  13  23
ENDBRANCH   1  16
BRANCH   9  26
ATOM     26  C   UNL     1       1.802  16.959  18.100  0.00  0.00    +0.000 C 
ATOM     27  N   UNL     1       2.390  17.486  17.250  0.00  0.00    +0.000 NA
ENDBRANCH   9  26
TORSDOF 3
ENDMDL
MODEL 8
REMARK VINA RESULT:      -7.5      2.419      9.135
REMARK  Name = 
REMARK  4 active torsions:
REMARK  status: ('A' for Active; 'I' for Inactive)
REMARK    1  A    between atoms: C_1  and  N_2
REMARK    2  A    between atoms: C_4  and  C_5
REMARK    3  A    between atoms: C_8  and  N_9
REMARK    4  A    between atoms: N_17  and  C_18
REMARK                            x       y       z     vdW  Elec       q    Type
REMARK                         _______ _______ _______ _____ _____    ______ ____
ROOT
ATOM      1  N   UNL     1       1.074  10.417  20.063  0.00  0.00    +0.000 N 
ATOM      2  C   UNL     1      -0.116  11.002  19.704  0.00  0.00    +0.000 C 
ATOM      3  O   UNL     1      -0.994  10.451  19.042  0.00  0.00    +0.000 OA
ATOM      4  N   UNL     1      -0.299  12.302  20.120  0.00  0.00    +0.000 N 
ATOM      5  C   UNL     1       0.653  13.172  20.795  0.00  0.00    +0.000 C 
ATOM      6  C   UNL     1       0.082  14.581  20.649  0.00  0.00    +0.000 C 
ATOM      7  C   UNL     1      -1.402  14.367  20.388  0.00  0.00    +0.000 C 
ATOM      8  C   UNL     1      -2.236  14.080  21.636  0.00  0.00    +0.000 C 
ATOM      9  N   UNL     1      -3.317  13.187  21.164  0.00  0.00    +0.000 N 
ATOM     10  C   UNL     1      -2.856  12.499  19.920  0.00  0.00    +0.000 C 
ATOM     11  C   UNL     1      -1.453  13.053  19.620  0.00  0.00    +0.000 C 
ATOM     12  H   UNL     1       1.674  10.907  20.710  0.00  0.00    +0.000 HD
ENDROOT
BRANCH   1  16
ATOM     13  C   UNL     1       2.183   6.428  19.130  0.00  0.00    +0.000 A 
ATOM     14  C   UNL     1       2.259   7.420  18.149  0.00  0.00    +0.000 A 
ATOM     15  C   UNL     1       1.925   8.744  18.443  0.00  0.00    +0.000 A 
ATOM     16  C   UNL     1       1.489   9.106  19.718  0.00  0.00    +0.000 A 
ATOM     17  C   UNL     1       1.455   8.115  20.705  0.00  0.00    +0.000 A 
ATOM     18  F   UNL     1       1.068   8.434  21.952  0.00  0.00    +0.000 F 
ATOM     19  C   UNL     1       1.796   6.790  20.425  0.00  0.00    +0.000 A 
BRANCH  13  23
ATOM     20  C   UNL     1       4.093   1.854  19.314  0.00  0.00    +0.000 C 
ATOM     21  N   UNL     1       3.362   3.032  18.914  0.00  0.00    +0.000 N 
ATOM     22  C   UNL     1       3.297   4.223  19.577  0.00  0.00    +0.000 A 
ATOM     23  C   UNL     1       2.503   5.051  18.808  0.00  0.00    +0.000 A 
ATOM     24  C   UNL     1       2.143   4.249  17.702  0.00  0.00    +0.000 A 
ATOM     25  N   UNL     1       2.661   3.020  17.765  0.00  0.00    +0.000 NA
ENDBRANCH  13  23
ENDBRANCH   1  16
BRANCH   9  26
ATOM     26  C   UNL     1      -4.327  12.747  21.920  0.00  0.00    +0.000 C 
ATOM     27  N   UNL     1      -5.205  12.369  22.577  0.00  0.00    +0.000 NA
ENDBRANCH   9  26
TORSDOF 3
ENDMDL
MODEL 9
REMARK VINA RESULT:      -7.5      2.909      9.635
REMARK  Name = 
REMARK  4 active torsions:
REMARK  status: ('A' for Active; 'I' for Inactive)
REMARK    1  A    between atoms: C_1  and  N_2
REMARK    2  A    between atoms: C_4  and  C_5
REMARK    3  A    between atoms: C_8  and  N_9
REMARK    4  A    between atoms: N_17  and  C_18
REMARK                            x       y       z     vdW  Elec       q    Type
REMARK                         _______ _______ _______ _____ _____    ______ ____
ROOT
ATOM      1  N   UNL     1       0.269  10.311  20.304  0.00  0.00    +0.000 N 
ATOM      2  C   UNL     1       0.631  11.605  20.591  0.00  0.00    +0.000 C 
ATOM      3  O   UNL     1       1.716  12.107  20.302  0.00  0.00    +0.000 OA
ATOM      4  N   UNL     1      -0.306  12.360  21.260  0.00  0.00    +0.000 N 
ATOM      5  C   UNL     1      -1.588  11.930  21.801  0.00  0.00    +0.000 C 
ATOM      6  C   UNL     1      -2.007  13.037  22.765  0.00  0.00    +0.000 C 
ATOM      7  C   UNL     1      -1.225  14.260  22.308  0.00  0.00    +0.000 C 
ATOM      8  C   UNL     1      -1.821  14.985  21.102  0.00  0.00    +0.000 C 
ATOM      9  N   UNL     1      -0.652  15.538  20.385  0.00  0.00    +0.000 N 
ATOM     10  C   UNL     1       0.552  14.730  20.747  0.00  0.00    +0.000 C 
ATOM     11  C   UNL     1       0.074  13.682  21.765  0.00  0.00    +0.000 C 
ATOM     12  H   UNL     1      -0.687  10.033  20.470  0.00  0.00    +0.000 HD
ENDROOT
BRANCH   1  16
ATOM     13  C   UNL     1       2.615   7.302  18.447  0.00  0.00    +0.000 A 
ATOM     14  C   UNL     1       2.203   8.417  17.712  0.00  0.00    +0.000 A 
ATOM     15  C   UNL     1       1.453   9.432  18.312  0.00  0.00    +0.000 A 
ATOM     16  C   UNL     1       1.081   9.349  19.655  0.00  0.00    +0.000 A 
ATOM     17  C   UNL     1       1.532   8.249  20.392  0.00  0.00    +0.000 A 
ATOM     18  F   UNL     1       1.218   8.152  21.696  0.00  0.00    +0.000 F 
ATOM     19  C   UNL     1       2.291   7.234  19.806  0.00  0.00    +0.000 A 
BRANCH  13  23
ATOM     20  C   UNL     1       6.041   4.859  15.821  0.00  0.00    +0.000 C 
ATOM     21  N   UNL     1       4.898   5.183  16.640  0.00  0.00    +0.000 N 
ATOM     22  C   UNL     1       4.529   6.420  17.083  0.00  0.00    +0.000 A 
ATOM     23  C   UNL     1       3.367   6.240  17.808  0.00  0.00    +0.000 A 
ATOM     24  C   UNL     1       3.131   4.849  17.735  0.00  0.00    +0.000 A 
ATOM     25  N   UNL     1       4.062   4.203  17.028  0.00  0.00    +0.000 NA
ENDBRANCH  13  23
ENDBRANCH   1  16
BRANCH   9  26
ATOM     26  C   UNL     1      -0.720  16.318  19.302  0.00  0.00    +0.000 C 
ATOM     27  N   UNL     1      -0.781  16.997  18.364  0.00  0.00    +0.000 NA
ENDBRANCH   9  26
TORSDOF 3
ENDMDL
