MODEL 1
REMARK VINA RESULT:      -8.0      0.000      0.000
REMARK  Name = 
REMARK  10 active torsions:
REMARK  status: ('A' for Active; 'I' for Inactive)
REMARK    1  A    between atoms: C_1  and  C_2
REMARK    2  A    between atoms: C_4  and  C_5
REMARK    3  A    between atoms: C_7  and  S_8
REMARK    4  A    between atoms: S_8  and  C_9
REMARK    5  A    between atoms: C_9  and  C_10
REMARK    6  A    between atoms: C_14  and  O_15
REMARK    7  A    between atoms: O_15  and  C_16
REMARK    8  A    between atoms: C_16  and  C_18
REMARK    9  A    between atoms: C_22  and  N_23
REMARK   10  A    between atoms: C_26  and  C_27
REMARK                            x       y       z     vdW  Elec       q    Type
REMARK                         _______ _______ _______ _____ _____    ______ ____
ROOT
ATOM      1  C   UNL     1       7.881   8.067  17.811  0.00  0.00    +0.000 A 
ATOM      2  C   UNL     1       8.241   7.198  18.770  0.00  0.00    +0.000 A 
ATOM      3  C   UNL     1       7.860   5.769  18.646  0.00  0.00    +0.000 A 
ATOM      4  O   UNL     1       8.269   4.938  19.448  0.00  0.00    +0.000 OA
ATOM      5  C   UNL     1       6.942   5.414  17.531  0.00  0.00    +0.000 A 
ATOM      6  C   UNL     1       6.733   6.363  16.605  0.00  0.00    +0.000 A 
ATOM      7  O   UNL     1       7.228   7.648  16.653  0.00  0.00    +0.000 OA
ENDROOT
BRANCH   1   8
ATOM      8  C   UNL     1       8.146   9.559  17.889  0.00  0.00    +0.000 C 
BRANCH   8   9
ATOM      9  S   UNL     1       9.226   9.904  19.319  0.00  0.00    +0.000 S 
BRANCH   9  16
ATOM     10  C   UNL     1      11.504  13.459  16.408  0.00  0.00    +0.000 C 
ATOM     11  C   UNL     1      10.778  13.135  17.681  0.00  0.00    +0.000 A 
ATOM     12  C   UNL     1      10.608  14.104  18.652  0.00  0.00    +0.000 A 
ATOM     13  C   UNL     1       9.942  13.723  19.798  0.00  0.00    +0.000 A 
ATOM     14  C   UNL     1       9.698  14.696  20.911  0.00  0.00    +0.000 C 
ATOM     15  N   UNL     1       9.496  12.463  19.979  0.00  0.00    +0.000 NA
ATOM     16  C   UNL     1       9.711  11.580  18.987  0.00  0.00    +0.000 A 
ATOM     17  N   UNL     1      10.334  11.865  17.830  0.00  0.00    +0.000 NA
ENDBRANCH   9  16
ENDBRANCH   8   9
ENDBRANCH   1   8
BRANCH   5  18
ATOM     18  O   UNL     1       6.382   4.115  17.484  0.00  0.00    +0.000 OA
BRANCH  18  19
ATOM     19  C   UNL     1       5.102   4.103  17.001  0.00  0.00    +0.000 C 
ATOM     20  O   UNL     1       4.756   4.398  15.864  0.00  0.00    +0.000 OA
BRANCH  19  21
ATOM     21  C   UNL     1       4.106   3.566  17.985  0.00  0.00    +0.000 A 
ATOM     22  C   UNL     1       3.703   2.233  17.750  0.00  0.00    +0.000 A 
ATOM     23  C   UNL     1       2.758   1.593  18.555  0.00  0.00    +0.000 A 
ATOM     24  C   UNL     1       2.224   2.265  19.644  0.00  0.00    +0.000 A 
ATOM     25  C   UNL     1       2.618   3.587  19.887  0.00  0.00    +0.000 A 
ATOM     26  C   UNL     1       3.508   4.289  19.039  0.00  0.00    +0.000 A 
ATOM     27  C   UNL     1       3.775   5.757  19.257  0.00  0.00    +0.000 C 
BRANCH  25  28
ATOM     28  N   UNL     1       2.067   4.215  21.082  0.00  0.00    +0.000 N 
ATOM     29  O   UNL     1       1.560   5.337  20.949  0.00  0.00    +0.000 OA
ATOM     30  O   UNL     1       2.118   3.564  22.133  0.00  0.00    +0.000 OA
ENDBRANCH  25  28
ENDBRANCH  19  21
ENDBRANCH  18  19
ENDBRANCH   5  18
TORSDOF 7
ENDMDL
MODEL 2
REMARK VINA RESULT:      -7.9      5.545      8.844
REMARK  Name = 
REMARK  10 active torsions:
REMARK  status: ('A' for Active; 'I' for Inactive)
REMARK    1  A    between atoms: C_1  and  C_2
REMARK    2  A    between atoms: C_4  and  C_5
REMARK    3  A    between atoms: C_7  and  S_8
REMARK    4  A    between atoms: S_8  and  C_9
REMARK    5  A    between atoms: C_9  and  C_10
REMARK    6  A    between atoms: C_14  and  O_15
REMARK    7  A    between atoms: O_15  and  C_16
REMARK    8  A    between atoms: C_16  and  C_18
REMARK    9  A    between atoms: C_22  and  N_23
REMARK   10  A    between atoms: C_26  and  C_27
REMARK                            x       y       z     vdW  Elec       q    Type
REMARK                         _______ _______ _______ _____ _____    ______ ____
ROOT
ATOM      1  C   UNL     1       2.253   5.353  18.692  0.00  0.00    +0.000 A 
ATOM      2  C   UNL     1       2.402   6.473  17.966  0.00  0.00    +0.000 A 
ATOM      3  C   UNL     1       2.289   7.797  18.628  0.00  0.00    +0.000 A 
ATOM      4  O   UNL     1       2.528   8.830  18.013  0.00  0.00    +0.000 OA
ATOM      5  C   UNL     1       1.845   7.802  20.047  0.00  0.00    +0.000 A 
ATOM      6  C   UNL     1       1.815   6.612  20.667  0.00  0.00    +0.000 A 
ATOM      7  O   UNL     1       2.080   5.397  20.075  0.00  0.00    +0.000 OA
ENDROOT
BRANCH   1   8
ATOM      8  C   UNL     1       2.264   3.959  18.094  0.00  0.00    +0.000 C 
BRANCH   8   9
ATOM      9  S   UNL     1       3.624   2.996  18.836  0.00  0.00    +0.000 S 
BRANCH   9  16
ATOM     10  C   UNL     1       7.901   5.811  19.126  0.00  0.00    +0.000 C 
ATOM     11  C   UNL     1       6.923   5.073  18.259  0.00  0.00    +0.000 A 
ATOM     12  C   UNL     1       7.044   5.113  16.882  0.00  0.00    +0.000 A 
ATOM     13  C   UNL     1       6.098   4.419  16.157  0.00  0.00    +0.000 A 
ATOM     14  C   UNL     1       6.140   4.391  14.659  0.00  0.00    +0.000 C 
ATOM     15  N   UNL     1       5.088   3.753  16.753  0.00  0.00    +0.000 NA
ATOM     16  C   UNL     1       5.039   3.774  18.097  0.00  0.00    +0.000 A 
ATOM     17  N   UNL     1       5.926   4.406  18.885  0.00  0.00    +0.000 NA
ENDBRANCH   9  16
ENDBRANCH   8   9
ENDBRANCH   1   8
BRANCH   5  18
ATOM     18  O   UNL     1       1.521   9.033  20.666  0.00  0.00    +0.000 OA
BRANCH  18  19
ATOM     19  C   UNL     1       0.173   9.220  20.810  0.00  0.00    +0.000 C 
ATOM     20  O   UNL     1      -0.551   8.658  21.622  0.00  0.00    +0.000 OA
BRANCH  19  21
ATOM     21  C   UNL     1      -0.369  10.304  19.928  0.00  0.00    +0.000 A 
ATOM     22  C   UNL     1      -1.055   9.844  18.781  0.00  0.00    +0.000 A 
ATOM     23  C   UNL     1      -1.593  10.724  17.839  0.00  0.00    +0.000 A 
ATOM     24  C   UNL     1      -1.491  12.091  18.048  0.00  0.00    +0.000 A 
ATOM     25  C   UNL     1      -0.814  12.558  19.181  0.00  0.00    +0.000 A 
ATOM     26  C   UNL     1      -0.185  11.691  20.108  0.00  0.00    +0.000 A 
ATOM     27  C   UNL     1       0.664  12.249  21.223  0.00  0.00    +0.000 C 
BRANCH  25  28
ATOM     28  N   UNL     1      -0.796  14.002  19.374  0.00  0.00    +0.000 N 
ATOM     29  O   UNL     1       0.022  14.652  18.708  0.00  0.00    +0.000 OA
ATOM     30  O   UNL     1      -1.624  14.475  20.163  0.00  0.00    +0.000 OA
ENDBRANCH  25  28
ENDBRANCH  19  21
ENDBRANCH  18  19
ENDBRANCH   5  18
TORSDOF 7
ENDMDL
MODEL 3
REMARK VINA RESULT:      -7.9      5.530      8.775
REMARK  Name = 
REMARK  10 active torsions:
REMARK  status: ('A' for Active; 'I' for Inactive)
REMARK    1  A    between atoms: C_1  and  C_2
REMARK    2  A    between atoms: C_4  and  C_5
REMARK    3  A    between atoms: C_7  and  S_8
REMARK    4  A    between atoms: S_8  and  C_9
REMARK    5  A    between atoms: C_9  and  C_10
REMARK    6  A    between atoms: C_14  and  O_15
REMARK    7  A    between atoms: O_15  and  C_16
REMARK    8  A    between atoms: C_16  and  C_18
REMARK    9  A    between atoms: C_22  and  N_23
REMARK   10  A    between atoms: C_26  and  C_27
REMARK                            x       y       z     vdW  Elec       q    Type
REMARK                         _______ _______ _______ _____ _____    ______ ____
ROOT
ATOM      1  C   UNL     1       2.220   5.110  18.799  0.00  0.00    +0.000 A 
ATOM      2  C   UNL     1       2.403   6.260  18.127  0.00  0.00    +0.000 A 
ATOM      3  C   UNL     1       2.266   7.555  18.839  0.00  0.00    +0.000 A 
ATOM      4  O   UNL     1       2.534   8.612  18.279  0.00  0.00    +0.000 OA
ATOM      5  C   UNL     1       1.762   7.502  20.237  0.00  0.00    +0.000 A 
ATOM      6  C   UNL     1       1.702   6.287  20.804  0.00  0.00    +0.000 A 
ATOM      7  O   UNL     1       1.988   5.097  20.173  0.00  0.00    +0.000 OA
ENDROOT
BRANCH   1   8
ATOM      8  C   UNL     1       2.252   3.743  18.143  0.00  0.00    +0.000 C 
BRANCH   8   9
ATOM      9  S   UNL     1       3.727   2.835  18.716  0.00  0.00    +0.000 S 
BRANCH   9  16
ATOM     10  C   UNL     1       6.347   4.291  14.555  0.00  0.00    +0.000 C 
ATOM     11  C   UNL     1       6.201   4.349  16.047  0.00  0.00    +0.000 A 
ATOM     12  C   UNL     1       7.148   5.000  16.816  0.00  0.00    +0.000 A 
ATOM     13  C   UNL     1       6.947   4.996  18.180  0.00  0.00    +0.000 A 
ATOM     14  C   UNL     1       7.910   5.678  19.105  0.00  0.00    +0.000 C 
ATOM     15  N   UNL     1       5.894   4.372  18.746  0.00  0.00    +0.000 NA
ATOM     16  C   UNL     1       5.025   3.755  17.925  0.00  0.00    +0.000 A 
ATOM     17  N   UNL     1       5.130   3.721  16.585  0.00  0.00    +0.000 NA
ENDBRANCH   9  16
ENDBRANCH   8   9
ENDBRANCH   1   8
BRANCH   5  18
ATOM     18  O   UNL     1       1.416   8.708  20.893  0.00  0.00    +0.000 OA
BRANCH  18  19
ATOM     19  C   UNL     1       0.066   8.853  21.065  0.00  0.00    +0.000 C 
ATOM     20  O   UNL     1      -0.666   8.105  21.699  0.00  0.00    +0.000 OA
BRANCH  19  21
ATOM     21  C   UNL     1      -0.468  10.127  20.483  0.00  0.00    +0.000 A 
ATOM     22  C   UNL     1      -0.455  10.182  19.071  0.00  0.00    +0.000 A 
ATOM     23  C   UNL     1      -0.887  11.310  18.370  0.00  0.00    +0.000 A 
ATOM     24  C   UNL     1      -1.384  12.398  19.071  0.00  0.00    +0.000 A 
ATOM     25  C   UNL     1      -1.404  12.354  20.471  0.00  0.00    +0.000 A 
ATOM     26  C   UNL     1      -0.893  11.260  21.210  0.00  0.00    +0.000 A 
ATOM     27  C   UNL     1      -0.793  11.330  22.713  0.00  0.00    +0.000 C 
BRANCH  25  28
ATOM     28  N   UNL     1      -1.995  13.503  21.145  0.00  0.00    +0.000 N 
ATOM     29  O   UNL     1      -1.281  14.505  21.289  0.00  0.00    +0.000 OA
ATOM     30  O   UNL     1      -3.179  13.403  21.492  0.00  0.00    +0.000 OA
ENDBRANCH  25  28
ENDBRANCH  19  21
ENDBRANCH  18  19
ENDBRANCH   5  18
TORSDOF 7
ENDMDL
MODEL 4
REMARK VINA RESULT:      -7.8      6.616      9.683
REMARK  Name = 
REMARK  10 active torsions:
REMARK  status: ('A' for Active; 'I' for Inactive)
REMARK    1  A    between atoms: C_1  and  C_2
REMARK    2  A    between atoms: C_4  and  C_5
REMARK    3  A    between atoms: C_7  and  S_8
REMARK    4  A    between atoms: S_8  and  C_9
REMARK    5  A    between atoms: C_9  and  C_10
REMARK    6  A    between atoms: C_14  and  O_15
REMARK    7  A    between atoms: O_15  and  C_16
REMARK    8  A    between atoms: C_16  and  C_18
REMARK    9  A    between atoms: C_22  and  N_23
REMARK   10  A    between atoms: C_26  and  C_27
REMARK                            x       y       z     vdW  Elec       q    Type
REMARK                         _______ _______ _______ _____ _____    ______ ____
ROOT
ATOM      1  C   UNL     1       2.274   7.125  19.657  0.00  0.00    +0.000 A 
ATOM      2  C   UNL     1       2.371   7.886  18.554  0.00  0.00    +0.000 A 
ATOM      3  C   UNL     1       1.737   9.227  18.531  0.00  0.00    +0.000 A 
ATOM      4  O   UNL     1       1.903   9.984  17.581  0.00  0.00    +0.000 OA
ATOM      5  C   UNL     1       0.874   9.582  19.689  0.00  0.00    +0.000 A 
ATOM      6  C   UNL     1       0.937   8.765  20.751  0.00  0.00    +0.000 A 
ATOM      7  O   UNL     1       1.662   7.596  20.817  0.00  0.00    +0.000 OA
ENDROOT
BRANCH   1   8
ATOM      8  C   UNL     1       2.812   5.709  19.749  0.00  0.00    +0.000 C 
BRANCH   8   9
ATOM      9  S   UNL     1       2.703   4.917  18.109  0.00  0.00    +0.000 S 
BRANCH   9  16
ATOM     10  C   UNL     1       7.677   5.744  19.048  0.00  0.00    +0.000 C 
ATOM     11  C   UNL     1       6.631   5.238  18.097  0.00  0.00    +0.000 A 
ATOM     12  C   UNL     1       6.987   4.820  16.828  0.00  0.00    +0.000 A 
ATOM     13  C   UNL     1       5.965   4.382  16.012  0.00  0.00    +0.000 A 
ATOM     14  C   UNL     1       6.241   3.902  14.620  0.00  0.00    +0.000 C 
ATOM     15  N   UNL     1       4.679   4.381  16.416  0.00  0.00    +0.000 NA
ATOM     16  C   UNL     1       4.420   4.813  17.663  0.00  0.00    +0.000 A 
ATOM     17  N   UNL     1       5.350   5.240  18.534  0.00  0.00    +0.000 NA
ENDBRANCH   9  16
ENDBRANCH   8   9
ENDBRANCH   1   8
BRANCH   5  18
ATOM     18  O   UNL     1       0.083  10.754  19.627  0.00  0.00    +0.000 OA
BRANCH  18  19
ATOM     19  C   UNL     1       0.460  11.702  20.540  0.00  0.00    +0.000 C 
ATOM     20  O   UNL     1       1.603  11.931  20.913  0.00  0.00    +0.000 OA
BRANCH  19  21
ATOM     21  C   UNL     1      -0.678  12.565  20.996  0.00  0.00    +0.000 A 
ATOM     22  C   UNL     1      -0.824  13.775  20.282  0.00  0.00    +0.000 A 
ATOM     23  C   UNL     1      -1.814  14.708  20.601  0.00  0.00    +0.000 A 
ATOM     24  C   UNL     1      -2.710  14.427  21.622  0.00  0.00    +0.000 A 
ATOM     25  C   UNL     1      -2.575  13.230  22.336  0.00  0.00    +0.000 A 
ATOM     26  C   UNL     1      -1.530  12.307  22.091  0.00  0.00    +0.000 A 
ATOM     27  C   UNL     1      -1.337  11.113  22.991  0.00  0.00    +0.000 C 
BRANCH  25  28
ATOM     28  N   UNL     1      -3.584  12.968  23.353  0.00  0.00    +0.000 N 
ATOM     29  O   UNL     1      -4.546  12.259  23.027  0.00  0.00    +0.000 OA
ATOM     30  O   UNL     1      -3.387  13.446  24.478  0.00  0.00    +0.000 OA
ENDBRANCH  25  28
ENDBRANCH  19  21
ENDBRANCH  18  19
ENDBRANCH   5  18
TORSDOF 7
ENDMDL
MODEL 5
REMARK VINA RESULT:      -7.8      5.763      8.868
REMARK  Name = 
REMARK  10 active torsions:
REMARK  status: ('A' for Active; 'I' for Inactive)
REMARK    1  A    between atoms: C_1  and  C_2
REMARK    2  A    between atoms: C_4  and  C_5
REMARK    3  A    between atoms: C_7  and  S_8
REMARK    4  A    between atoms: S_8  and  C_9
REMARK    5  A    between atoms: C_9  and  C_10
REMARK    6  A    between atoms: C_14  and  O_15
REMARK    7  A    between atoms: O_15  and  C_16
REMARK    8  A    between atoms: C_16  and  C_18
REMARK    9  A    between atoms: C_22  and  N_23
REMARK   10  A    between atoms: C_26  and  C_27
REMARK                            x       y       z     vdW  Elec       q    Type
REMARK                         _______ _______ _______ _____ _____    ______ ____
ROOT
ATOM      1  C   UNL     1       2.269   5.604  18.879  0.00  0.00    +0.000 A 
ATOM      2  C   UNL     1       2.402   6.473  17.863  0.00  0.00    +0.000 A 
ATOM      3  C   UNL     1       2.289   7.930  18.125  0.00  0.00    +0.000 A 
ATOM      4  O   UNL     1       2.513   8.747  17.239  0.00  0.00    +0.000 OA
ATOM      5  C   UNL     1       1.861   8.335  19.490  0.00  0.00    +0.000 A 
ATOM      6  C   UNL     1       1.847   7.369  20.422  0.00  0.00    +0.000 A 
ATOM      7  O   UNL     1       2.112   6.037  20.194  0.00  0.00    +0.000 OA
ENDROOT
BRANCH   1   8
ATOM      8  C   UNL     1       2.282   4.097  18.699  0.00  0.00    +0.000 C 
BRANCH   8   9
ATOM      9  S   UNL     1       3.716   3.398  19.583  0.00  0.00    +0.000 S 
BRANCH   9  16
ATOM     10  C   UNL     1       8.031   6.119  19.059  0.00  0.00    +0.000 C 
ATOM     11  C   UNL     1       6.965   5.290  18.403  0.00  0.00    +0.000 A 
ATOM     12  C   UNL     1       6.952   5.131  17.029  0.00  0.00    +0.000 A 
ATOM     13  C   UNL     1       5.932   4.366  16.505  0.00  0.00    +0.000 A 
ATOM     14  C   UNL     1       5.828   4.125  15.029  0.00  0.00    +0.000 C 
ATOM     15  N   UNL     1       4.978   3.816  17.283  0.00  0.00    +0.000 NA
ATOM     16  C   UNL     1       5.061   4.028  18.609  0.00  0.00    +0.000 A 
ATOM     17  N   UNL     1       6.027   4.744  19.210  0.00  0.00    +0.000 NA
ENDBRANCH   9  16
ENDBRANCH   8   9
ENDBRANCH   1   8
BRANCH   5  18
ATOM     18  O   UNL     1       1.537   9.690  19.739  0.00  0.00    +0.000 OA
BRANCH  18  19
ATOM     19  C   UNL     1       0.214   9.969  19.530  0.00  0.00    +0.000 C 
ATOM     20  O   UNL     1      -0.437   9.680  18.535  0.00  0.00    +0.000 OA
BRANCH  19  21
ATOM     21  C   UNL     1      -0.451  10.594  20.721  0.00  0.00    +0.000 A 
ATOM     22  C   UNL     1      -0.298   9.874  21.927  0.00  0.00    +0.000 A 
ATOM     23  C   UNL     1      -0.882  10.301  23.122  0.00  0.00    +0.000 A 
ATOM     24  C   UNL     1      -1.601  11.487  23.143  0.00  0.00    +0.000 A 
ATOM     25  C   UNL     1      -1.757  12.209  21.953  0.00  0.00    +0.000 A 
ATOM     26  C   UNL     1      -1.250  11.757  20.711  0.00  0.00    +0.000 A 
ATOM     27  C   UNL     1      -1.582  12.490  19.436  0.00  0.00    +0.000 C 
BRANCH  25  28
ATOM     28  N   UNL     1      -2.470  13.476  22.056  0.00  0.00    +0.000 N 
ATOM     29  O   UNL     1      -1.796  14.512  21.984  0.00  0.00    +0.000 OA
ATOM     30  O   UNL     1      -3.701  13.420  22.173  0.00  0.00    +0.000 OA
ENDBRANCH  25  28
ENDBRANCH  19  21
ENDBRANCH  18  19
ENDBRANCH   5  18
TORSDOF 7
ENDMDL
MODEL 6
REMARK VINA RESULT:      -7.8      4.955      8.052
REMARK  Name = 
REMARK  10 active torsions:
REMARK  status: ('A' for Active; 'I' for Inactive)
REMARK    1  A    between atoms: C_1  and  C_2
REMARK    2  A    between atoms: C_4  and  C_5
REMARK    3  A    between atoms: C_7  and  S_8
REMARK    4  A    between atoms: S_8  and  C_9
REMARK    5  A    between atoms: C_9  and  C_10
REMARK    6  A    between atoms: C_14  and  O_15
REMARK    7  A    between atoms: O_15  and  C_16
REMARK    8  A    between atoms: C_16  and  C_18
REMARK    9  A    between atoms: C_22  and  N_23
REMARK   10  A    between atoms: C_26  and  C_27
REMARK                            x       y       z     vdW  Elec       q    Type
REMARK                         _______ _______ _______ _____ _____    ______ ____
ROOT
ATOM      1  C   UNL     1       1.680   7.688  19.897  0.00  0.00    +0.000 A 
ATOM      2  C   UNL     1       1.580   6.552  20.606  0.00  0.00    +0.000 A 
ATOM      3  C   UNL     1       1.990   5.265  19.990  0.00  0.00    +0.000 A 
ATOM      4  O   UNL     1       2.012   4.231  20.650  0.00  0.00    +0.000 OA
ATOM      5  C   UNL     1       2.334   5.292  18.544  0.00  0.00    +0.000 A 
ATOM      6  C   UNL     1       2.472   6.505  17.987  0.00  0.00    +0.000 A 
ATOM      7  O   UNL     1       2.241   7.706  18.621  0.00  0.00    +0.000 OA
ENDROOT
BRANCH   1   8
ATOM      8  C   UNL     1       1.207   9.037  20.405  0.00  0.00    +0.000 C 
BRANCH   8   9
ATOM      9  S   UNL     1       1.311  10.259  19.055  0.00  0.00    +0.000 S 
BRANCH   9  16
ATOM     10  C   UNL     1      -2.945   9.815  16.228  0.00  0.00    +0.000 C 
ATOM     11  C   UNL     1      -2.281  10.402  17.440  0.00  0.00    +0.000 A 
ATOM     12  C   UNL     1      -2.962  11.300  18.242  0.00  0.00    +0.000 A 
ATOM     13  C   UNL     1      -2.276  11.802  19.328  0.00  0.00    +0.000 A 
ATOM     14  C   UNL     1      -2.922  12.777  20.265  0.00  0.00    +0.000 C 
ATOM     15  N   UNL     1      -0.999  11.458  19.588  0.00  0.00    +0.000 NA
ATOM     16  C   UNL     1      -0.409  10.585  18.752  0.00  0.00    +0.000 A 
ATOM     17  N   UNL     1      -1.002  10.030  17.681  0.00  0.00    +0.000 NA
ENDBRANCH   9  16
ENDBRANCH   8   9
ENDBRANCH   1   8
BRANCH   5  18
ATOM     18  O   UNL     1       2.530   4.070  17.857  0.00  0.00    +0.000 OA
BRANCH  18  19
ATOM     19  C   UNL     1       3.761   3.519  18.090  0.00  0.00    +0.000 C 
ATOM     20  O   UNL     1       3.985   2.487  18.708  0.00  0.00    +0.000 OA
BRANCH  19  21
ATOM     21  C   UNL     1       4.873   4.252  17.401  0.00  0.00    +0.000 A 
ATOM     22  C   UNL     1       5.045   3.918  16.039  0.00  0.00    +0.000 A 
ATOM     23  C   UNL     1       6.057   4.486  15.261  0.00  0.00    +0.000 A 
ATOM     24  C   UNL     1       6.897   5.435  15.823  0.00  0.00    +0.000 A 
ATOM     25  C   UNL     1       6.734   5.775  17.171  0.00  0.00    +0.000 A 
ATOM     26  C   UNL     1       5.774   5.154  18.007  0.00  0.00    +0.000 A 
ATOM     27  C   UNL     1       5.746   5.441  19.487  0.00  0.00    +0.000 C 
BRANCH  25  28
ATOM     28  N   UNL     1       7.607   6.823  17.683  0.00  0.00    +0.000 N 
ATOM     29  O   UNL     1       8.223   6.586  18.731  0.00  0.00    +0.000 OA
ATOM     30  O   UNL     1       7.693   7.860  17.013  0.00  0.00    +0.000 OA
ENDBRANCH  25  28
ENDBRANCH  19  21
ENDBRANCH  18  19
ENDBRANCH   5  18
TORSDOF 7
ENDMDL
MODEL 7
REMARK VINA RESULT:      -7.8      5.019      7.346
REMARK  Name = 
REMARK  10 active torsions:
REMARK  status: ('A' for Active; 'I' for Inactive)
REMARK    1  A    between atoms: C_1  and  C_2
REMARK    2  A    between atoms: C_4  and  C_5
REMARK    3  A    between atoms: C_7  and  S_8
REMARK    4  A    between atoms: S_8  and  C_9
REMARK    5  A    between atoms: C_9  and  C_10
REMARK    6  A    between atoms: C_14  and  O_15
REMARK    7  A    between atoms: O_15  and  C_16
REMARK    8  A    between atoms: C_16  and  C_18
REMARK    9  A    between atoms: C_22  and  N_23
REMARK   10  A    between atoms: C_26  and  C_27
REMARK                            x       y       z     vdW  Elec       q    Type
REMARK                         _______ _______ _______ _____ _____    ______ ____
ROOT
ATOM      1  C   UNL     1       1.846   7.100  20.463  0.00  0.00    +0.000 A 
ATOM      2  C   UNL     1       1.534   5.824  20.744  0.00  0.00    +0.000 A 
ATOM      3  C   UNL     1       1.769   4.770  19.726  0.00  0.00    +0.000 A 
ATOM      4  O   UNL     1       1.596   3.586  19.994  0.00  0.00    +0.000 OA
ATOM      5  C   UNL     1       2.186   5.226  18.373  0.00  0.00    +0.000 A 
ATOM      6  C   UNL     1       2.539   6.515  18.261  0.00  0.00    +0.000 A 
ATOM      7  O   UNL     1       2.467   7.453  19.267  0.00  0.00    +0.000 OA
ENDROOT
BRANCH   1   8
ATOM      8  C   UNL     1       1.564   8.258  21.403  0.00  0.00    +0.000 C 
BRANCH   8   9
ATOM      9  S   UNL     1      -0.188   8.740  21.253  0.00  0.00    +0.000 S 
BRANCH   9  16
ATOM     10  C   UNL     1       1.989  13.163  19.841  0.00  0.00    +0.000 C 
ATOM     11  C   UNL     1       0.904  12.151  19.610  0.00  0.00    +0.000 A 
ATOM     12  C   UNL     1      -0.075  12.384  18.662  0.00  0.00    +0.000 A 
ATOM     13  C   UNL     1      -1.042  11.411  18.521  0.00  0.00    +0.000 A 
ATOM     14  C   UNL     1      -2.147  11.559  17.519  0.00  0.00    +0.000 C 
ATOM     15  N   UNL     1      -1.052  10.297  19.281  0.00  0.00    +0.000 NA
ATOM     16  C   UNL     1      -0.066  10.155  20.185  0.00  0.00    +0.000 A 
ATOM     17  N   UNL     1       0.927  11.040  20.381  0.00  0.00    +0.000 NA
ENDBRANCH   9  16
ENDBRANCH   8   9
ENDBRANCH   1   8
BRANCH   5  18
ATOM     18  O   UNL     1       2.223   4.291  17.310  0.00  0.00    +0.000 OA
BRANCH  18  19
ATOM     19  C   UNL     1       3.269   3.413  17.409  0.00  0.00    +0.000 C 
ATOM     20  O   UNL     1       3.187   2.216  17.647  0.00  0.00    +0.000 OA
BRANCH  19  21
ATOM     21  C   UNL     1       4.592   4.035  17.075  0.00  0.00    +0.000 A 
ATOM     22  C   UNL     1       4.893   4.079  15.695  0.00  0.00    +0.000 A 
ATOM     23  C   UNL     1       6.099   4.596  15.217  0.00  0.00    +0.000 A 
ATOM     24  C   UNL     1       7.017   5.122  16.114  0.00  0.00    +0.000 A 
ATOM     25  C   UNL     1       6.729   5.085  17.483  0.00  0.00    +0.000 A 
ATOM     26  C   UNL     1       5.554   4.490  18.002  0.00  0.00    +0.000 A 
ATOM     27  C   UNL     1       5.367   4.335  19.491  0.00  0.00    +0.000 C 
BRANCH  25  28
ATOM     28  N   UNL     1       7.707   5.708  18.366  0.00  0.00    +0.000 N 
ATOM     29  O   UNL     1       7.812   6.941  18.313  0.00  0.00    +0.000 OA
ATOM     30  O   UNL     1       8.335   4.961  19.127  0.00  0.00    +0.000 OA
ENDBRANCH  25  28
ENDBRANCH  19  21
ENDBRANCH  18  19
ENDBRANCH   5  18
TORSDOF 7
ENDMDL
MODEL 8
REMARK VINA RESULT:      -7.8      6.658      9.635
REMARK  Name = 
REMARK  10 active torsions:
REMARK  status: ('A' for Active; 'I' for Inactive)
REMARK    1  A    between atoms: C_1  and  C_2
REMARK    2  A    between atoms: C_4  and  C_5
REMARK    3  A    between atoms: C_7  and  S_8
REMARK    4  A    between atoms: S_8  and  C_9
REMARK    5  A    between atoms: C_9  and  C_10
REMARK    6  A    between atoms: C_14  and  O_15
REMARK    7  A    between atoms: O_15  and  C_16
REMARK    8  A    between atoms: C_16  and  C_18
REMARK    9  A    between atoms: C_22  and  N_23
REMARK   10  A    between atoms: C_26  and  C_27
REMARK                            x       y       z     vdW  Elec       q    Type
REMARK                         _______ _______ _______ _____ _____    ______ ____
ROOT
ATOM      1  C   UNL     1       2.391   6.961  19.565  0.00  0.00    +0.000 A 
ATOM      2  C   UNL     1       2.470   7.704  18.448  0.00  0.00    +0.000 A 
ATOM      3  C   UNL     1       1.825   9.040  18.409  0.00  0.00    +0.000 A 
ATOM      4  O   UNL     1       1.974   9.782  17.445  0.00  0.00    +0.000 OA
ATOM      5  C   UNL     1       0.973   9.408  19.572  0.00  0.00    +0.000 A 
ATOM      6  C   UNL     1       1.055   8.610  20.647  0.00  0.00    +0.000 A 
ATOM      7  O   UNL     1       1.790   7.448  20.724  0.00  0.00    +0.000 OA
ENDROOT
BRANCH   1   8
ATOM      8  C   UNL     1       2.941   5.551  19.674  0.00  0.00    +0.000 C 
BRANCH   8   9
ATOM      9  S   UNL     1       2.813   4.729  18.051  0.00  0.00    +0.000 S 
BRANCH   9  16
ATOM     10  C   UNL     1       7.793   5.623  18.890  0.00  0.00    +0.000 C 
ATOM     11  C   UNL     1       6.732   5.128  17.949  0.00  0.00    +0.000 A 
ATOM     12  C   UNL     1       7.063   4.760  16.658  0.00  0.00    +0.000 A 
ATOM     13  C   UNL     1       6.029   4.329  15.854  0.00  0.00    +0.000 A 
ATOM     14  C   UNL     1       6.278   3.901  14.440  0.00  0.00    +0.000 C 
ATOM     15  N   UNL     1       4.754   4.289  16.290  0.00  0.00    +0.000 NA
ATOM     16  C   UNL     1       4.519   4.673  17.558  0.00  0.00    +0.000 A 
ATOM     17  N   UNL     1       5.464   5.090  18.419  0.00  0.00    +0.000 NA
ENDBRANCH   9  16
ENDBRANCH   8   9
ENDBRANCH   1   8
BRANCH   5  18
ATOM     18  O   UNL     1       0.172  10.573  19.500  0.00  0.00    +0.000 OA
BRANCH  18  19
ATOM     19  C   UNL     1       0.593  11.563  20.346  0.00  0.00    +0.000 C 
ATOM     20  O   UNL     1       1.694  12.097  20.343  0.00  0.00    +0.000 OA
BRANCH  19  21
ATOM     21  C   UNL     1      -0.490  12.054  21.260  0.00  0.00    +0.000 A 
ATOM     22  C   UNL     1      -0.815  11.174  22.317  0.00  0.00    +0.000 A 
ATOM     23  C   UNL     1      -1.823  11.466  23.239  0.00  0.00    +0.000 A 
ATOM     24  C   UNL     1      -2.503  12.671  23.146  0.00  0.00    +0.000 A 
ATOM     25  C   UNL     1      -2.188  13.551  22.103  0.00  0.00    +0.000 A 
ATOM     26  C   UNL     1      -1.231  13.245  21.105  0.00  0.00    +0.000 A 
ATOM     27  C   UNL     1      -1.044  14.156  19.918  0.00  0.00    +0.000 C 
BRANCH  25  28
ATOM     28  N   UNL     1      -2.895  14.826  22.098  0.00  0.00    +0.000 N 
ATOM     29  O   UNL     1      -4.010  14.852  21.562  0.00  0.00    +0.000 OA
ATOM     30  O   UNL     1      -2.340  15.778  22.662  0.00  0.00    +0.000 OA
ENDBRANCH  25  28
ENDBRANCH  19  21
ENDBRANCH  18  19
ENDBRANCH   5  18
TORSDOF 7
ENDMDL
MODEL 9
REMARK VINA RESULT:      -7.7      6.617      9.552
REMARK  Name = 
REMARK  10 active torsions:
REMARK  status: ('A' for Active; 'I' for Inactive)
REMARK    1  A    between atoms: C_1  and  C_2
REMARK    2  A    between atoms: C_4  and  C_5
REMARK    3  A    between atoms: C_7  and  S_8
REMARK    4  A    between atoms: S_8  and  C_9
REMARK    5  A    between atoms: C_9  and  C_10
REMARK    6  A    between atoms: C_14  and  O_15
REMARK    7  A    between atoms: O_15  and  C_16
REMARK    8  A    between atoms: C_16  and  C_18
REMARK    9  A    between atoms: C_22  and  N_23
REMARK   10  A    between atoms: C_26  and  C_27
REMARK                            x       y       z     vdW  Elec       q    Type
REMARK                         _______ _______ _______ _____ _____    ______ ____
ROOT
ATOM      1  C   UNL     1       2.313   7.176  19.563  0.00  0.00    +0.000 A 
ATOM      2  C   UNL     1       2.400   7.944  18.464  0.00  0.00    +0.000 A 
ATOM      3  C   UNL     1       1.728   9.267  18.438  0.00  0.00    +0.000 A 
ATOM      4  O   UNL     1       1.882  10.032  17.493  0.00  0.00    +0.000 OA
ATOM      5  C   UNL     1       0.843   9.592  19.588  0.00  0.00    +0.000 A 
ATOM      6  C   UNL     1       0.917   8.773  20.648  0.00  0.00    +0.000 A 
ATOM      7  O   UNL     1       1.675   7.625  20.718  0.00  0.00    +0.000 OA
ENDROOT
BRANCH   1   8
ATOM      8  C   UNL     1       2.891   5.777  19.655  0.00  0.00    +0.000 C 
BRANCH   8   9
ATOM      9  S   UNL     1       2.737   4.955  18.034  0.00  0.00    +0.000 S 
BRANCH   9  16
ATOM     10  C   UNL     1       6.361   3.932  14.553  0.00  0.00    +0.000 C 
ATOM     11  C   UNL     1       6.025   4.454  15.919  0.00  0.00    +0.000 A 
ATOM     12  C   UNL     1       7.032   4.814  16.796  0.00  0.00    +0.000 A 
ATOM     13  C   UNL     1       6.639   5.271  18.036  0.00  0.00    +0.000 A 
ATOM     14  C   UNL     1       7.649   5.693  19.059  0.00  0.00    +0.000 C 
ATOM     15  N   UNL     1       5.340   5.345  18.392  0.00  0.00    +0.000 NA
ATOM     16  C   UNL     1       4.425   4.966  17.481  0.00  0.00    +0.000 A 
ATOM     17  N   UNL     1       4.713   4.525  16.245  0.00  0.00    +0.000 NA
ENDBRANCH   9  16
ENDBRANCH   8   9
ENDBRANCH   1   8
BRANCH   5  18
ATOM     18  O   UNL     1       0.018  10.741  19.522  0.00  0.00    +0.000 OA
BRANCH  18  19
ATOM     19  C   UNL     1       0.448  11.754  20.336  0.00  0.00    +0.000 C 
ATOM     20  O   UNL     1       1.613  12.042  20.577  0.00  0.00    +0.000 OA
BRANCH  19  21
ATOM     21  C   UNL     1      -0.671  12.606  20.856  0.00  0.00    +0.000 A 
ATOM     22  C   UNL     1      -0.858  13.822  20.162  0.00  0.00    +0.000 A 
ATOM     23  C   UNL     1      -1.837  14.746  20.539  0.00  0.00    +0.000 A 
ATOM     24  C   UNL     1      -2.680  14.450  21.599  0.00  0.00    +0.000 A 
ATOM     25  C   UNL     1      -2.505  13.246  22.292  0.00  0.00    +0.000 A 
ATOM     26  C   UNL     1      -1.468  12.331  21.988  0.00  0.00    +0.000 A 
ATOM     27  C   UNL     1      -1.226  11.129  22.865  0.00  0.00    +0.000 C 
BRANCH  25  28
ATOM     28  N   UNL     1      -3.463  12.967  23.355  0.00  0.00    +0.000 N 
ATOM     29  O   UNL     1      -4.421  12.234  23.075  0.00  0.00    +0.000 OA
ATOM     30  O   UNL     1      -3.228  13.458  24.466  0.00  0.00    +0.000 OA
ENDBRANCH  25  28
ENDBRANCH  19  21
ENDBRANCH  18  19
ENDBRANCH   5  18
TORSDOF 7
ENDMDL
