MODEL 1
REMARK VINA RESULT:      -7.3      0.000      0.000
REMARK  Name = 
REMARK  6 active torsions:
REMARK  status: ('A' for Active; 'I' for Inactive)
REMARK    1  A    between atoms: C_1  and  O_2
REMARK    2  A    between atoms: O_2  and  C_3
REMARK    3  A    between atoms: N_9  and  C_10
REMARK    4  A    between atoms: C_10  and  C_11
REMARK    5  A    between atoms: C_17  and  O_18
REMARK    6  A    between atoms: O_18  and  C_19
REMARK                            x       y       z     vdW  Elec       q    Type
REMARK                         _______ _______ _______ _____ _____    ______ ____
ROOT
ATOM      1  C   UNL     1       6.647   5.099  15.395  0.00  0.00    +0.000 A 
ATOM      2  C   UNL     1       6.158   3.795  15.220  0.00  0.00    +0.000 A 
ATOM      3  C   UNL     1       5.046   3.347  15.931  0.00  0.00    +0.000 A 
ATOM      4  C   UNL     1       4.397   4.209  16.815  0.00  0.00    +0.000 A 
ATOM      5  C   UNL     1       3.207   3.725  17.568  0.00  0.00    +0.000 A 
ATOM      6  O   UNL     1       2.856   2.553  17.447  0.00  0.00    +0.000 OA
ATOM      7  N   UNL     1       2.545   4.654  18.386  0.00  0.00    +0.000 N 
ATOM      8  C   UNL     1       2.993   5.953  18.514  0.00  0.00    +0.000 A 
ATOM      9  C   UNL     1       4.088   6.399  17.887  0.00  0.00    +0.000 A 
ATOM     10  C   UNL     1       4.860   5.517  17.001  0.00  0.00    +0.000 A 
ATOM     11  C   UNL     1       6.021   5.961  16.322  0.00  0.00    +0.000 A 
ENDROOT
BRANCH   1  13
ATOM     12  C   UNL     1       7.770   5.222  13.314  0.00  0.00    +0.000 C 
ATOM     13  O   UNL     1       7.750   5.532  14.707  0.00  0.00    +0.000 OA
ENDBRANCH   1  13
BRANCH  11  14
ATOM     14  O   UNL     1       6.405   7.238  16.655  0.00  0.00    +0.000 OA
ATOM     15  C   UNL     1       7.511   7.451  17.515  0.00  0.00    +0.000 C 
ENDBRANCH  11  14
BRANCH   7  16
ATOM     16  C   UNL     1       1.376   4.138  19.094  0.00  0.00    +0.000 C 
BRANCH  16  17
ATOM     17  C   UNL     1       1.446   4.062  20.591  0.00  0.00    +0.000 C 
ATOM     18  C   UNL     1       1.253   2.786  21.376  0.00  0.00    +0.000 C 
ATOM     19  C   UNL     1       2.628   3.364  21.221  0.00  0.00    +0.000 C 
ENDBRANCH  16  17
ENDBRANCH   7  16
TORSDOF 4
ENDMDL
MODEL 2
REMARK VINA RESULT:      -6.7      2.249      6.399
REMARK  Name = 
REMARK  6 active torsions:
REMARK  status: ('A' for Active; 'I' for Inactive)
REMARK    1  A    between atoms: C_1  and  O_2
REMARK    2  A    between atoms: O_2  and  C_3
REMARK    3  A    between atoms: N_9  and  C_10
REMARK    4  A    between atoms: C_10  and  C_11
REMARK    5  A    between atoms: C_17  and  O_18
REMARK    6  A    between atoms: O_18  and  C_19
REMARK                            x       y       z     vdW  Elec       q    Type
REMARK                         _______ _______ _______ _____ _____    ______ ____
ROOT
ATOM      1  C   UNL     1       2.508   6.340  19.515  0.00  0.00    +0.000 A 
ATOM      2  C   UNL     1       2.703   7.455  18.685  0.00  0.00    +0.000 A 
ATOM      3  C   UNL     1       3.514   7.371  17.555  0.00  0.00    +0.000 A 
ATOM      4  C   UNL     1       4.127   6.161  17.232  0.00  0.00    +0.000 A 
ATOM      5  C   UNL     1       4.990   6.078  16.022  0.00  0.00    +0.000 A 
ATOM      6  O   UNL     1       5.200   7.094  15.363  0.00  0.00    +0.000 OA
ATOM      7  N   UNL     1       5.522   4.820  15.699  0.00  0.00    +0.000 N 
ATOM      8  C   UNL     1       5.283   3.710  16.484  0.00  0.00    +0.000 A 
ATOM      9  C   UNL     1       4.552   3.768  17.604  0.00  0.00    +0.000 A 
ATOM     10  C   UNL     1       3.943   5.032  18.040  0.00  0.00    +0.000 A 
ATOM     11  C   UNL     1       3.162   5.124  19.219  0.00  0.00    +0.000 A 
ENDROOT
BRANCH   1  13
ATOM     12  C   UNL     1       1.342   7.749  21.020  0.00  0.00    +0.000 C 
ATOM     13  O   UNL     1       1.722   6.429  20.635  0.00  0.00    +0.000 OA
ENDBRANCH   1  13
BRANCH  11  14
ATOM     14  O   UNL     1       3.127   3.963  19.953  0.00  0.00    +0.000 OA
ATOM     15  C   UNL     1       1.947   3.180  19.995  0.00  0.00    +0.000 C 
ENDBRANCH  11  14
BRANCH   7  16
ATOM     16  C   UNL     1       6.350   4.784  14.495  0.00  0.00    +0.000 C 
BRANCH  16  17
ATOM     17  C   UNL     1       6.199   3.602  13.582  0.00  0.00    +0.000 C 
ATOM     18  C   UNL     1       5.245   3.565  12.411  0.00  0.00    +0.000 C 
ATOM     19  C   UNL     1       6.717   3.716  12.168  0.00  0.00    +0.000 C 
ENDBRANCH  16  17
ENDBRANCH   7  16
TORSDOF 4
ENDMDL
MODEL 3
REMARK VINA RESULT:      -6.6      1.813      2.537
REMARK  Name = 
REMARK  6 active torsions:
REMARK  status: ('A' for Active; 'I' for Inactive)
REMARK    1  A    between atoms: C_1  and  O_2
REMARK    2  A    between atoms: O_2  and  C_3
REMARK    3  A    between atoms: N_9  and  C_10
REMARK    4  A    between atoms: C_10  and  C_11
REMARK    5  A    between atoms: C_17  and  O_18
REMARK    6  A    between atoms: O_18  and  C_19
REMARK                            x       y       z     vdW  Elec       q    Type
REMARK                         _______ _______ _______ _____ _____    ______ ____
ROOT
ATOM      1  C   UNL     1       6.576   6.233  17.026  0.00  0.00    +0.000 A 
ATOM      2  C   UNL     1       5.397   6.451  16.297  0.00  0.00    +0.000 A 
ATOM      3  C   UNL     1       4.260   5.678  16.528  0.00  0.00    +0.000 A 
ATOM      4  C   UNL     1       4.286   4.686  17.508  0.00  0.00    +0.000 A 
ATOM      5  C   UNL     1       3.068   3.867  17.752  0.00  0.00    +0.000 A 
ATOM      6  O   UNL     1       2.079   4.033  17.041  0.00  0.00    +0.000 OA
ATOM      7  N   UNL     1       3.121   2.934  18.800  0.00  0.00    +0.000 N 
ATOM      8  C   UNL     1       4.264   2.760  19.555  0.00  0.00    +0.000 A 
ATOM      9  C   UNL     1       5.388   3.449  19.325  0.00  0.00    +0.000 A 
ATOM     10  C   UNL     1       5.448   4.454  18.255  0.00  0.00    +0.000 A 
ATOM     11  C   UNL     1       6.623   5.200  17.988  0.00  0.00    +0.000 A 
ENDROOT
BRANCH   1  13
ATOM     12  C   UNL     1       7.786   8.211  17.509  0.00  0.00    +0.000 C 
ATOM     13  O   UNL     1       7.698   6.984  16.786  0.00  0.00    +0.000 OA
ENDBRANCH   1  13
BRANCH  11  14
ATOM     14  O   UNL     1       7.706   4.818  18.742  0.00  0.00    +0.000 OA
ATOM     15  C   UNL     1       8.096   5.580  19.871  0.00  0.00    +0.000 C 
ENDBRANCH  11  14
BRANCH   7  16
ATOM     16  C   UNL     1       1.898   2.164  19.012  0.00  0.00    +0.000 C 
BRANCH  16  17
ATOM     17  C   UNL     1       0.932   2.663  20.046  0.00  0.00    +0.000 C 
ATOM     18  C   UNL     1       1.268   2.792  21.514  0.00  0.00    +0.000 C 
ATOM     19  C   UNL     1       1.175   4.021  20.660  0.00  0.00    +0.000 C 
ENDBRANCH  16  17
ENDBRANCH   7  16
TORSDOF 4
ENDMDL
MODEL 4
REMARK VINA RESULT:      -6.5      3.888      6.092
REMARK  Name = 
REMARK  6 active torsions:
REMARK  status: ('A' for Active; 'I' for Inactive)
REMARK    1  A    between atoms: C_1  and  O_2
REMARK    2  A    between atoms: O_2  and  C_3
REMARK    3  A    between atoms: N_9  and  C_10
REMARK    4  A    between atoms: C_10  and  C_11
REMARK    5  A    between atoms: C_17  and  O_18
REMARK    6  A    between atoms: O_18  and  C_19
REMARK                            x       y       z     vdW  Elec       q    Type
REMARK                         _______ _______ _______ _____ _____    ______ ____
ROOT
ATOM      1  C   UNL     1       3.729   5.062  18.931  0.00  0.00    +0.000 A 
ATOM      2  C   UNL     1       3.980   5.846  17.793  0.00  0.00    +0.000 A 
ATOM      3  C   UNL     1       3.381   7.094  17.638  0.00  0.00    +0.000 A 
ATOM      4  C   UNL     1       2.534   7.583  18.632  0.00  0.00    +0.000 A 
ATOM      5  C   UNL     1       1.900   8.918  18.462  0.00  0.00    +0.000 A 
ATOM      6  O   UNL     1       2.081   9.541  17.418  0.00  0.00    +0.000 OA
ATOM      7  N   UNL     1       1.117   9.397  19.525  0.00  0.00    +0.000 N 
ATOM      8  C   UNL     1       0.917   8.650  20.668  0.00  0.00    +0.000 A 
ATOM      9  C   UNL     1       1.435   7.427  20.826  0.00  0.00    +0.000 A 
ATOM     10  C   UNL     1       2.273   6.824  19.780  0.00  0.00    +0.000 A 
ATOM     11  C   UNL     1       2.837   5.532  19.919  0.00  0.00    +0.000 A 
ENDROOT
BRANCH   1  13
ATOM     12  C   UNL     1       3.789   2.802  18.227  0.00  0.00    +0.000 C 
ATOM     13  O   UNL     1       4.308   3.828  19.073  0.00  0.00    +0.000 OA
ENDBRANCH   1  13
BRANCH  11  14
ATOM     14  O   UNL     1       2.439   4.871  21.057  0.00  0.00    +0.000 OA
ATOM     15  C   UNL     1       1.476   3.834  20.981  0.00  0.00    +0.000 C 
ENDBRANCH  11  14
BRANCH   7  16
ATOM     16  C   UNL     1       0.527  10.718  19.318  0.00  0.00    +0.000 C 
BRANCH  16  17
ATOM     17  C   UNL     1      -0.961  10.794  19.136  0.00  0.00    +0.000 C 
ATOM     18  C   UNL     1      -1.637  11.707  18.139  0.00  0.00    +0.000 C 
ATOM     19  C   UNL     1      -1.558  10.235  17.867  0.00  0.00    +0.000 C 
ENDBRANCH  16  17
ENDBRANCH   7  16
TORSDOF 4
ENDMDL
MODEL 5
REMARK VINA RESULT:      -6.5      1.779      2.856
REMARK  Name = 
REMARK  6 active torsions:
REMARK  status: ('A' for Active; 'I' for Inactive)
REMARK    1  A    between atoms: C_1  and  O_2
REMARK    2  A    between atoms: O_2  and  C_3
REMARK    3  A    between atoms: N_9  and  C_10
REMARK    4  A    between atoms: C_10  and  C_11
REMARK    5  A    between atoms: C_17  and  O_18
REMARK    6  A    between atoms: O_18  and  C_19
REMARK                            x       y       z     vdW  Elec       q    Type
REMARK                         _______ _______ _______ _____ _____    ______ ____
ROOT
ATOM      1  C   UNL     1       7.057   6.315  17.473  0.00  0.00    +0.000 A 
ATOM      2  C   UNL     1       7.295   5.883  18.786  0.00  0.00    +0.000 A 
ATOM      3  C   UNL     1       6.465   4.939  19.389  0.00  0.00    +0.000 A 
ATOM      4  C   UNL     1       5.394   4.402  18.676  0.00  0.00    +0.000 A 
ATOM      5  C   UNL     1       4.515   3.392  19.325  0.00  0.00    +0.000 A 
ATOM      6  O   UNL     1       4.707   3.096  20.502  0.00  0.00    +0.000 OA
ATOM      7  N   UNL     1       3.498   2.828  18.539  0.00  0.00    +0.000 N 
ATOM      8  C   UNL     1       3.300   3.212  17.228  0.00  0.00    +0.000 A 
ATOM      9  C   UNL     1       4.045   4.153  16.636  0.00  0.00    +0.000 A 
ATOM     10  C   UNL     1       5.140   4.812  17.361  0.00  0.00    +0.000 A 
ATOM     11  C   UNL     1       5.947   5.809  16.760  0.00  0.00    +0.000 A 
ENDROOT
BRANCH   1  13
ATOM     12  C   UNL     1       7.993   8.487  17.596  0.00  0.00    +0.000 C 
ATOM     13  O   UNL     1       7.864   7.256  16.887  0.00  0.00    +0.000 OA
ENDBRANCH   1  13
BRANCH  11  14
ATOM     14  O   UNL     1       5.540   6.168  15.497  0.00  0.00    +0.000 OA
ATOM     15  C   UNL     1       6.005   5.451  14.367  0.00  0.00    +0.000 C 
ENDBRANCH  11  14
BRANCH   7  16
ATOM     16  C   UNL     1       2.669   1.831  19.214  0.00  0.00    +0.000 C 
BRANCH  16  17
ATOM     17  C   UNL     1       1.371   2.293  19.809  0.00  0.00    +0.000 C 
ATOM     18  C   UNL     1       1.239   2.834  21.213  0.00  0.00    +0.000 C 
ATOM     19  C   UNL     1       1.176   3.772  20.045  0.00  0.00    +0.000 C 
ENDBRANCH  16  17
ENDBRANCH   7  16
TORSDOF 4
ENDMDL
MODEL 6
REMARK VINA RESULT:      -6.4      1.290      1.552
REMARK  Name = 
REMARK  6 active torsions:
REMARK  status: ('A' for Active; 'I' for Inactive)
REMARK    1  A    between atoms: C_1  and  O_2
REMARK    2  A    between atoms: O_2  and  C_3
REMARK    3  A    between atoms: N_9  and  C_10
REMARK    4  A    between atoms: C_10  and  C_11
REMARK    5  A    between atoms: C_17  and  O_18
REMARK    6  A    between atoms: O_18  and  C_19
REMARK                            x       y       z     vdW  Elec       q    Type
REMARK                         _______ _______ _______ _____ _____    ______ ____
ROOT
ATOM      1  C   UNL     1       6.858   5.031  15.236  0.00  0.00    +0.000 A 
ATOM      2  C   UNL     1       5.898   4.112  14.785  0.00  0.00    +0.000 A 
ATOM      3  C   UNL     1       5.006   3.515  15.674  0.00  0.00    +0.000 A 
ATOM      4  C   UNL     1       5.053   3.847  17.028  0.00  0.00    +0.000 A 
ATOM      5  C   UNL     1       4.095   3.209  17.971  0.00  0.00    +0.000 A 
ATOM      6  O   UNL     1       3.321   2.351  17.553  0.00  0.00    +0.000 OA
ATOM      7  N   UNL     1       4.133   3.634  19.309  0.00  0.00    +0.000 N 
ATOM      8  C   UNL     1       5.040   4.581  19.741  0.00  0.00    +0.000 A 
ATOM      9  C   UNL     1       5.944   5.134  18.924  0.00  0.00    +0.000 A 
ATOM     10  C   UNL     1       5.996   4.768  17.502  0.00  0.00    +0.000 A 
ATOM     11  C   UNL     1       6.940   5.337  16.612  0.00  0.00    +0.000 A 
ENDROOT
BRANCH   1  13
ATOM     12  C   UNL     1       7.727   5.083  13.033  0.00  0.00    +0.000 C 
ATOM     13  O   UNL     1       7.745   5.605  14.361  0.00  0.00    +0.000 OA
ENDBRANCH   1  13
BRANCH  11  14
ATOM     14  O   UNL     1       7.851   6.164  17.224  0.00  0.00    +0.000 OA
ATOM     15  C   UNL     1       7.574   7.546  17.374  0.00  0.00    +0.000 C 
ENDBRANCH  11  14
BRANCH   7  16
ATOM     16  C   UNL     1       3.166   2.991  20.195  0.00  0.00    +0.000 C 
BRANCH  16  17
ATOM     17  C   UNL     1       2.200   3.875  20.928  0.00  0.00    +0.000 C 
ATOM     18  C   UNL     1       1.671   5.178  20.376  0.00  0.00    +0.000 C 
ATOM     19  C   UNL     1       0.782   3.971  20.416  0.00  0.00    +0.000 C 
ENDBRANCH  16  17
ENDBRANCH   7  16
TORSDOF 4
ENDMDL
MODEL 7
REMARK VINA RESULT:      -6.2      2.791      4.136
REMARK  Name = 
REMARK  6 active torsions:
REMARK  status: ('A' for Active; 'I' for Inactive)
REMARK    1  A    between atoms: C_1  and  O_2
REMARK    2  A    between atoms: O_2  and  C_3
REMARK    3  A    between atoms: N_9  and  C_10
REMARK    4  A    between atoms: C_10  and  C_11
REMARK    5  A    between atoms: C_17  and  O_18
REMARK    6  A    between atoms: O_18  and  C_19
REMARK                            x       y       z     vdW  Elec       q    Type
REMARK                         _______ _______ _______ _____ _____    ______ ____
ROOT
ATOM      1  C   UNL     1       5.152   4.654  16.512  0.00  0.00    +0.000 A 
ATOM      2  C   UNL     1       5.115   5.953  15.981  0.00  0.00    +0.000 A 
ATOM      3  C   UNL     1       4.347   6.949  16.580  0.00  0.00    +0.000 A 
ATOM      4  C   UNL     1       3.618   6.660  17.734  0.00  0.00    +0.000 A 
ATOM      5  C   UNL     1       2.803   7.730  18.371  0.00  0.00    +0.000 A 
ATOM      6  O   UNL     1       2.732   8.833  17.833  0.00  0.00    +0.000 OA
ATOM      7  N   UNL     1       2.149   7.409  19.571  0.00  0.00    +0.000 N 
ATOM      8  C   UNL     1       2.233   6.147  20.125  0.00  0.00    +0.000 A 
ATOM      9  C   UNL     1       2.919   5.154  19.547  0.00  0.00    +0.000 A 
ATOM     10  C   UNL     1       3.645   5.375  18.288  0.00  0.00    +0.000 A 
ATOM     11  C   UNL     1       4.381   4.344  17.654  0.00  0.00    +0.000 A 
ENDROOT
BRANCH   1  13
ATOM     12  C   UNL     1       6.369   3.971  14.599  0.00  0.00    +0.000 C 
ATOM     13  O   UNL     1       5.896   3.671  15.912  0.00  0.00    +0.000 OA
ENDBRANCH   1  13
BRANCH  11  14
ATOM     14  O   UNL     1       4.259   3.118  18.263  0.00  0.00    +0.000 OA
ATOM     15  C   UNL     1       3.334   2.164  17.770  0.00  0.00    +0.000 C 
ENDBRANCH  11  14
BRANCH   7  16
ATOM     16  C   UNL     1       1.373   8.494  20.167  0.00  0.00    +0.000 C 
BRANCH  16  17
ATOM     17  C   UNL     1       0.840   8.287  21.555  0.00  0.00    +0.000 C 
ATOM     18  C   UNL     1       0.906   9.334  22.643  0.00  0.00    +0.000 C 
ATOM     19  C   UNL     1      -0.401   9.042  21.968  0.00  0.00    +0.000 C 
ENDBRANCH  16  17
ENDBRANCH   7  16
TORSDOF 4
ENDMDL
MODEL 8
REMARK VINA RESULT:      -6.2      3.672      6.037
REMARK  Name = 
REMARK  6 active torsions:
REMARK  status: ('A' for Active; 'I' for Inactive)
REMARK    1  A    between atoms: C_1  and  O_2
REMARK    2  A    between atoms: O_2  and  C_3
REMARK    3  A    between atoms: N_9  and  C_10
REMARK    4  A    between atoms: C_10  and  C_11
REMARK    5  A    between atoms: C_17  and  O_18
REMARK    6  A    between atoms: O_18  and  C_19
REMARK                            x       y       z     vdW  Elec       q    Type
REMARK                         _______ _______ _______ _____ _____    ______ ____
ROOT
ATOM      1  C   UNL     1       1.130   9.553  19.166  0.00  0.00    +0.000 A 
ATOM      2  C   UNL     1       1.827   9.546  17.948  0.00  0.00    +0.000 A 
ATOM      3  C   UNL     1       2.643   8.472  17.597  0.00  0.00    +0.000 A 
ATOM      4  C   UNL     1       2.757   7.380  18.458  0.00  0.00    +0.000 A 
ATOM      5  C   UNL     1       3.628   6.235  18.076  0.00  0.00    +0.000 A 
ATOM      6  O   UNL     1       4.283   6.299  17.038  0.00  0.00    +0.000 OA
ATOM      7  N   UNL     1       3.649   5.129  18.940  0.00  0.00    +0.000 N 
ATOM      8  C   UNL     1       2.918   5.113  20.111  0.00  0.00    +0.000 A 
ATOM      9  C   UNL     1       2.167   6.149  20.502  0.00  0.00    +0.000 A 
ATOM     10  C   UNL     1       2.067   7.360  19.676  0.00  0.00    +0.000 A 
ATOM     11  C   UNL     1       1.278   8.472  20.062  0.00  0.00    +0.000 A 
ENDROOT
BRANCH   1  13
ATOM     12  C   UNL     1      -1.019  10.546  19.087  0.00  0.00    +0.000 C 
ATOM     13  O   UNL     1       0.340  10.618  19.516  0.00  0.00    +0.000 OA
ENDBRANCH   1  13
BRANCH  11  14
ATOM     14  O   UNL     1       0.718   8.348  21.311  0.00  0.00    +0.000 OA
ATOM     15  C   UNL     1       1.192   9.137  22.388  0.00  0.00    +0.000 C 
ENDBRANCH  11  14
BRANCH   7  16
ATOM     16  C   UNL     1       4.506   4.024  18.517  0.00  0.00    +0.000 C 
BRANCH  16  17
ATOM     17  C   UNL     1       3.891   2.957  17.659  0.00  0.00    +0.000 C 
ATOM     18  C   UNL     1       3.165   1.753  18.212  0.00  0.00    +0.000 C 
ATOM     19  C   UNL     1       2.385   2.872  17.588  0.00  0.00    +0.000 C 
ENDBRANCH  16  17
ENDBRANCH   7  16
TORSDOF 4
ENDMDL
MODEL 9
REMARK VINA RESULT:      -6.0      3.592      5.532
REMARK  Name = 
REMARK  6 active torsions:
REMARK  status: ('A' for Active; 'I' for Inactive)
REMARK    1  A    between atoms: C_1  and  O_2
REMARK    2  A    between atoms: O_2  and  C_3
REMARK    3  A    between atoms: N_9  and  C_10
REMARK    4  A    between atoms: C_10  and  C_11
REMARK    5  A    between atoms: C_17  and  O_18
REMARK    6  A    between atoms: O_18  and  C_19
REMARK                            x       y       z     vdW  Elec       q    Type
REMARK                         _______ _______ _______ _____ _____    ______ ____
ROOT
ATOM      1  C   UNL     1       3.522   4.002  19.165  0.00  0.00    +0.000 A 
ATOM      2  C   UNL     1       2.800   4.134  20.361  0.00  0.00    +0.000 A 
ATOM      3  C   UNL     1       2.182   5.337  20.694  0.00  0.00    +0.000 A 
ATOM      4  C   UNL     1       2.264   6.422  19.822  0.00  0.00    +0.000 A 
ATOM      5  C   UNL     1       1.599   7.703  20.182  0.00  0.00    +0.000 A 
ATOM      6  O   UNL     1       1.042   7.805  21.273  0.00  0.00    +0.000 OA
ATOM      7  N   UNL     1       1.647   8.740  19.236  0.00  0.00    +0.000 N 
ATOM      8  C   UNL     1       2.310   8.590  18.034  0.00  0.00    +0.000 A 
ATOM      9  C   UNL     1       2.958   7.466  17.707  0.00  0.00    +0.000 A 
ATOM     10  C   UNL     1       2.973   6.314  18.619  0.00  0.00    +0.000 A 
ATOM     11  C   UNL     1       3.648   5.110  18.299  0.00  0.00    +0.000 A 
ENDROOT
BRANCH   1  13
ATOM     12  C   UNL     1       3.319   1.840  18.220  0.00  0.00    +0.000 C 
ATOM     13  O   UNL     1       4.143   2.822  18.847  0.00  0.00    +0.000 OA
ENDBRANCH   1  13
BRANCH  11  14
ATOM     14  O   UNL     1       4.363   5.169  17.127  0.00  0.00    +0.000 OA
ATOM     15  C   UNL     1       5.777   5.260  17.156  0.00  0.00    +0.000 C 
ENDBRANCH  11  14
BRANCH   7  16
ATOM     16  C   UNL     1       0.968   9.973  19.628  0.00  0.00    +0.000 C 
BRANCH  16  17
ATOM     17  C   UNL     1       0.111  10.651  18.599  0.00  0.00    +0.000 C 
ATOM     18  C   UNL     1      -1.308  10.237  18.287  0.00  0.00    +0.000 C 
ATOM     19  C   UNL     1      -1.053  11.488  19.073  0.00  0.00    +0.000 C 
ENDBRANCH  16  17
ENDBRANCH   7  16
TORSDOF 4
ENDMDL
