MODEL 1
REMARK VINA RESULT:      -8.8      0.000      0.000
REMARK  Name = 
REMARK  4 active torsions:
REMARK  status: ('A' for Active; 'I' for Inactive)
REMARK    1  A    between atoms: C_1  and  C_2
REMARK    2  A    between atoms: C_4  and  N_5
REMARK    3  A    between atoms: C_9  and  C_11
REMARK    4  A    between atoms: C_20  and  C_21
REMARK                            x       y       z     vdW  Elec       q    Type
REMARK                         _______ _______ _______ _____ _____    ______ ____
ROOT
ATOM      1  C   UNL     1       2.664   2.425  21.530  0.00  0.00    +0.000 C 
ATOM      2  C   UNL     1       2.683   3.753  20.816  0.00  0.00    +0.000 A 
ATOM      3  C   UNL     1       3.531   3.851  19.600  0.00  0.00    +0.000 A 
ATOM      4  C   UNL     1       3.531   5.006  18.904  0.00  0.00    +0.000 A 
ATOM      5  N   UNL     1       2.734   6.076  19.419  0.00  0.00    +0.000 N 
ATOM      6  N   UNL     1       2.533   7.335  18.915  0.00  0.00    +0.000 NA
ATOM      7  C   UNL     1       1.701   7.942  19.777  0.00  0.00    +0.000 A 
ATOM      8  C   UNL     1       1.324   7.070  20.821  0.00  0.00    +0.000 A 
ATOM      9  C   UNL     1       1.981   5.890  20.590  0.00  0.00    +0.000 A 
ATOM     10  N   UNL     1       1.954   4.718  21.289  0.00  0.00    +0.000 NA
ENDROOT
BRANCH   4  11
ATOM     11  N   UNL     1       4.286   5.123  17.717  0.00  0.00    +0.000 N 
ATOM     12  C   UNL     1       5.306   6.170  17.453  0.00  0.00    +0.000 C 
ATOM     13  C   UNL     1       6.546   5.571  16.727  0.00  0.00    +0.000 C 
ATOM     14  N   UNL     1       6.178   4.691  15.606  0.00  0.00    +0.000 N 
ATOM     15  C   UNL     1       6.826   4.800  14.374  0.00  0.00    +0.000 C 
ATOM     16  O   UNL     1       7.798   5.547  14.247  0.00  0.00    +0.000 OA
ATOM     17  C   UNL     1       5.198   3.667  15.974  0.00  0.00    +0.000 C 
ATOM     18  C   UNL     1       3.937   4.351  16.500  0.00  0.00    +0.000 C 
BRANCH  15  19
ATOM     19  C   UNL     1       6.352   3.999  13.254  0.00  0.00    +0.000 A 
ATOM     20  C   UNL     1       7.055   3.259  12.318  0.00  0.00    +0.000 A 
ATOM     21  C   UNL     1       6.101   2.646  11.470  0.00  0.00    +0.000 A 
ATOM     22  C   UNL     1       4.874   3.090  11.896  0.00  0.00    +0.000 A 
ATOM     23  O   UNL     1       5.016   3.939  12.944  0.00  0.00    +0.000 OA
ENDBRANCH  15  19
ENDBRANCH   4  11
BRANCH   7  24
ATOM     24  C   UNL     1       1.258   9.328  19.600  0.00  0.00    +0.000 A 
ATOM     25  C   UNL     1       1.700  10.089  18.509  0.00  0.00    +0.000 A 
ATOM     26  C   UNL     1       1.249  11.401  18.328  0.00  0.00    +0.000 A 
ATOM     27  C   UNL     1       0.363  11.955  19.244  0.00  0.00    +0.000 A 
ATOM     28  F   UNL     1      -0.071  13.211  19.071  0.00  0.00    +0.000 F 
ATOM     29  C   UNL     1      -0.081  11.225  20.339  0.00  0.00    +0.000 A 
ATOM     30  C   UNL     1       0.365   9.912  20.517  0.00  0.00    +0.000 A 
ENDBRANCH   7  24
TORSDOF 3
ENDMDL
MODEL 2
REMARK VINA RESULT:      -8.1      3.931      8.605
REMARK  Name = 
REMARK  4 active torsions:
REMARK  status: ('A' for Active; 'I' for Inactive)
REMARK    1  A    between atoms: C_1  and  C_2
REMARK    2  A    between atoms: C_4  and  N_5
REMARK    3  A    between atoms: C_9  and  C_11
REMARK    4  A    between atoms: C_20  and  C_21
REMARK                            x       y       z     vdW  Elec       q    Type
REMARK                         _______ _______ _______ _____ _____    ______ ____
ROOT
ATOM      1  C   UNL     1       1.475   2.850  21.729  0.00  0.00    +0.000 C 
ATOM      2  C   UNL     1       2.107   3.604  20.586  0.00  0.00    +0.000 A 
ATOM      3  C   UNL     1       1.823   5.060  20.501  0.00  0.00    +0.000 A 
ATOM      4  C   UNL     1       2.414   5.778  19.525  0.00  0.00    +0.000 A 
ATOM      5  N   UNL     1       3.251   5.066  18.609  0.00  0.00    +0.000 N 
ATOM      6  N   UNL     1       3.982   5.535  17.549  0.00  0.00    +0.000 NA
ATOM      7  C   UNL     1       4.587   4.459  17.020  0.00  0.00    +0.000 A 
ATOM      8  C   UNL     1       4.288   3.293  17.758  0.00  0.00    +0.000 A 
ATOM      9  C   UNL     1       3.441   3.682  18.762  0.00  0.00    +0.000 A 
ATOM     10  N   UNL     1       2.867   2.950  19.760  0.00  0.00    +0.000 NA
ENDROOT
BRANCH   4  11
ATOM     11  N   UNL     1       2.208   7.172  19.441  0.00  0.00    +0.000 N 
ATOM     12  C   UNL     1       2.876   8.076  18.469  0.00  0.00    +0.000 C 
ATOM     13  C   UNL     1       1.878   9.135  17.916  0.00  0.00    +0.000 C 
ATOM     14  N   UNL     1       1.068   9.761  18.973  0.00  0.00    +0.000 N 
ATOM     15  C   UNL     1       0.883  11.145  19.002  0.00  0.00    +0.000 C 
ATOM     16  O   UNL     1       1.290  11.846  18.075  0.00  0.00    +0.000 OA
ATOM     17  C   UNL     1       0.417   8.788  19.853  0.00  0.00    +0.000 C 
ATOM     18  C   UNL     1       1.487   7.912  20.504  0.00  0.00    +0.000 C 
BRANCH  15  19
ATOM     19  C   UNL     1       0.180  11.739  20.131  0.00  0.00    +0.000 A 
ATOM     20  C   UNL     1      -1.174  11.944  20.337  0.00  0.00    +0.000 A 
ATOM     21  C   UNL     1      -1.315  12.528  21.620  0.00  0.00    +0.000 A 
ATOM     22  C   UNL     1      -0.041  12.701  22.100  0.00  0.00    +0.000 A 
ATOM     23  O   UNL     1       0.869  12.267  21.194  0.00  0.00    +0.000 OA
ENDBRANCH  15  19
ENDBRANCH   4  11
BRANCH   7  24
ATOM     24  C   UNL     1       5.452   4.543  15.840  0.00  0.00    +0.000 A 
ATOM     25  C   UNL     1       5.101   3.896  14.646  0.00  0.00    +0.000 A 
ATOM     26  C   UNL     1       5.915   4.006  13.513  0.00  0.00    +0.000 A 
ATOM     27  C   UNL     1       7.083   4.756  13.577  0.00  0.00    +0.000 A 
ATOM     28  F   UNL     1       7.862   4.862  12.492  0.00  0.00    +0.000 F 
ATOM     29  C   UNL     1       7.457   5.397  14.750  0.00  0.00    +0.000 A 
ATOM     30  C   UNL     1       6.642   5.292  15.880  0.00  0.00    +0.000 A 
ENDBRANCH   7  24
TORSDOF 3
ENDMDL
MODEL 3
REMARK VINA RESULT:      -7.7      3.742      6.409
REMARK  Name = 
REMARK  4 active torsions:
REMARK  status: ('A' for Active; 'I' for Inactive)
REMARK    1  A    between atoms: C_1  and  C_2
REMARK    2  A    between atoms: C_4  and  N_5
REMARK    3  A    between atoms: C_9  and  C_11
REMARK    4  A    between atoms: C_20  and  C_21
REMARK                            x       y       z     vdW  Elec       q    Type
REMARK                         _______ _______ _______ _____ _____    ______ ____
ROOT
ATOM      1  C   UNL     1      -3.423  10.701  18.067  0.00  0.00    +0.000 C 
ATOM      2  C   UNL     1      -1.992  11.109  18.315  0.00  0.00    +0.000 A 
ATOM      3  C   UNL     1      -1.011  10.017  18.545  0.00  0.00    +0.000 A 
ATOM      4  C   UNL     1       0.287  10.340  18.715  0.00  0.00    +0.000 A 
ATOM      5  N   UNL     1       0.619  11.731  18.700  0.00  0.00    +0.000 N 
ATOM      6  N   UNL     1       1.841  12.338  18.826  0.00  0.00    +0.000 NA
ATOM      7  C   UNL     1       1.602  13.657  18.742  0.00  0.00    +0.000 A 
ATOM      8  C   UNL     1       0.231  13.913  18.520  0.00  0.00    +0.000 A 
ATOM      9  C   UNL     1      -0.387  12.690  18.494  0.00  0.00    +0.000 A 
ATOM     10  N   UNL     1      -1.699  12.374  18.296  0.00  0.00    +0.000 NA
ENDROOT
BRANCH   4  11
ATOM     11  N   UNL     1       1.256   9.329  18.888  0.00  0.00    +0.000 N 
ATOM     12  C   UNL     1       1.603   8.692  20.185  0.00  0.00    +0.000 C 
ATOM     13  C   UNL     1       1.818   7.159  20.014  0.00  0.00    +0.000 C 
ATOM     14  N   UNL     1       2.660   6.829  18.853  0.00  0.00    +0.000 N 
ATOM     15  C   UNL     1       3.692   5.895  18.967  0.00  0.00    +0.000 C 
ATOM     16  O   UNL     1       3.830   5.244  20.004  0.00  0.00    +0.000 OA
ATOM     17  C   UNL     1       2.214   7.470  17.615  0.00  0.00    +0.000 C 
ATOM     18  C   UNL     1       2.216   8.986  17.812  0.00  0.00    +0.000 C 
BRANCH  15  19
ATOM     19  C   UNL     1       4.582   5.685  17.833  0.00  0.00    +0.000 A 
ATOM     20  C   UNL     1       5.724   6.367  17.450  0.00  0.00    +0.000 A 
ATOM     21  C   UNL     1       6.222   5.727  16.289  0.00  0.00    +0.000 A 
ATOM     22  C   UNL     1       5.328   4.728  15.994  0.00  0.00    +0.000 A 
ATOM     23  O   UNL     1       4.313   4.720  16.894  0.00  0.00    +0.000 OA
ENDBRANCH  15  19
ENDBRANCH   4  11
BRANCH   7  24
ATOM     24  C   UNL     1       2.666  14.659  18.857  0.00  0.00    +0.000 A 
ATOM     25  C   UNL     1       3.924  14.439  18.279  0.00  0.00    +0.000 A 
ATOM     26  C   UNL     1       4.925  15.413  18.364  0.00  0.00    +0.000 A 
ATOM     27  C   UNL     1       4.670  16.603  19.034  0.00  0.00    +0.000 A 
ATOM     28  F   UNL     1       5.627  17.537  19.114  0.00  0.00    +0.000 F 
ATOM     29  C   UNL     1       3.434  16.840  19.623  0.00  0.00    +0.000 A 
ATOM     30  C   UNL     1       2.433  15.870  19.533  0.00  0.00    +0.000 A 
ENDBRANCH   7  24
TORSDOF 3
ENDMDL
MODEL 4
REMARK VINA RESULT:      -7.7      6.003      9.994
REMARK  Name = 
REMARK  4 active torsions:
REMARK  status: ('A' for Active; 'I' for Inactive)
REMARK    1  A    between atoms: C_1  and  C_2
REMARK    2  A    between atoms: C_4  and  N_5
REMARK    3  A    between atoms: C_9  and  C_11
REMARK    4  A    between atoms: C_20  and  C_21
REMARK                            x       y       z     vdW  Elec       q    Type
REMARK                         _______ _______ _______ _____ _____    ______ ____
ROOT
ATOM      1  C   UNL     1      -2.297  13.407  23.823  0.00  0.00    +0.000 C 
ATOM      2  C   UNL     1      -1.383  12.716  22.842  0.00  0.00    +0.000 A 
ATOM      3  C   UNL     1      -0.589  13.585  21.936  0.00  0.00    +0.000 A 
ATOM      4  C   UNL     1       0.280  13.006  21.082  0.00  0.00    +0.000 A 
ATOM      5  N   UNL     1       0.343  11.576  21.089  0.00  0.00    +0.000 N 
ATOM      6  N   UNL     1       1.137  10.735  20.354  0.00  0.00    +0.000 NA
ATOM      7  C   UNL     1       0.803   9.493  20.739  0.00  0.00    +0.000 A 
ATOM      8  C   UNL     1      -0.177   9.520  21.755  0.00  0.00    +0.000 A 
ATOM      9  C   UNL     1      -0.465  10.842  21.972  0.00  0.00    +0.000 A 
ATOM     10  N   UNL     1      -1.330  11.419  22.856  0.00  0.00    +0.000 NA
ENDROOT
BRANCH   4  11
ATOM     11  N   UNL     1       1.088  13.799  20.239  0.00  0.00    +0.000 N 
ATOM     12  C   UNL     1       0.641  14.419  18.965  0.00  0.00    +0.000 C 
ATOM     13  C   UNL     1       1.210  15.861  18.817  0.00  0.00    +0.000 C 
ATOM     14  N   UNL     1       2.643  15.942  19.140  0.00  0.00    +0.000 N 
ATOM     15  C   UNL     1       3.520  16.644  18.310  0.00  0.00    +0.000 C 
ATOM     16  O   UNL     1       3.086  17.307  17.367  0.00  0.00    +0.000 OA
ATOM     17  C   UNL     1       2.978  15.341  20.433  0.00  0.00    +0.000 C 
ATOM     18  C   UNL     1       2.557  13.872  20.422  0.00  0.00    +0.000 C 
BRANCH  15  19
ATOM     19  C   UNL     1       4.948  16.600  18.595  0.00  0.00    +0.000 A 
ATOM     20  C   UNL     1       5.859  15.567  18.453  0.00  0.00    +0.000 A 
ATOM     21  C   UNL     1       7.124  16.072  18.842  0.00  0.00    +0.000 A 
ATOM     22  C   UNL     1       6.906  17.363  19.254  0.00  0.00    +0.000 A 
ATOM     23  O   UNL     1       5.591  17.679  19.149  0.00  0.00    +0.000 OA
ENDBRANCH  15  19
ENDBRANCH   4  11
BRANCH   7  24
ATOM     24  C   UNL     1       1.421   8.296  20.160  0.00  0.00    +0.000 A 
ATOM     25  C   UNL     1       1.453   7.089  20.873  0.00  0.00    +0.000 A 
ATOM     26  C   UNL     1       2.015   5.942  20.302  0.00  0.00    +0.000 A 
ATOM     27  C   UNL     1       2.553   6.005  19.022  0.00  0.00    +0.000 A 
ATOM     28  F   UNL     1       3.090   4.906  18.474  0.00  0.00    +0.000 F 
ATOM     29  C   UNL     1       2.541   7.191  18.300  0.00  0.00    +0.000 A 
ATOM     30  C   UNL     1       1.975   8.335  18.867  0.00  0.00    +0.000 A 
ENDBRANCH   7  24
TORSDOF 3
ENDMDL
MODEL 5
REMARK VINA RESULT:      -7.7      5.592      9.655
REMARK  Name = 
REMARK  4 active torsions:
REMARK  status: ('A' for Active; 'I' for Inactive)
REMARK    1  A    between atoms: C_1  and  C_2
REMARK    2  A    between atoms: C_4  and  N_5
REMARK    3  A    between atoms: C_9  and  C_11
REMARK    4  A    between atoms: C_20  and  C_21
REMARK                            x       y       z     vdW  Elec       q    Type
REMARK                         _______ _______ _______ _____ _____    ______ ____
ROOT
ATOM      1  C   UNL     1      -2.240  13.210  23.801  0.00  0.00    +0.000 C 
ATOM      2  C   UNL     1      -1.333  12.520  22.814  0.00  0.00    +0.000 A 
ATOM      3  C   UNL     1      -0.549  13.388  21.899  0.00  0.00    +0.000 A 
ATOM      4  C   UNL     1       0.315  12.809  21.039  0.00  0.00    +0.000 A 
ATOM      5  N   UNL     1       0.381  11.380  21.048  0.00  0.00    +0.000 N 
ATOM      6  N   UNL     1       1.170  10.538  20.308  0.00  0.00    +0.000 NA
ATOM      7  C   UNL     1       0.843   9.296  20.699  0.00  0.00    +0.000 A 
ATOM      8  C   UNL     1      -0.129   9.324  21.723  0.00  0.00    +0.000 A 
ATOM      9  C   UNL     1      -0.418  10.646  21.940  0.00  0.00    +0.000 A 
ATOM     10  N   UNL     1      -1.277  11.222  22.830  0.00  0.00    +0.000 NA
ENDROOT
BRANCH   4  11
ATOM     11  N   UNL     1       1.113  13.602  20.188  0.00  0.00    +0.000 N 
ATOM     12  C   UNL     1       0.606  14.399  19.041  0.00  0.00    +0.000 C 
ATOM     13  C   UNL     1       1.316  15.783  18.966  0.00  0.00    +0.000 C 
ATOM     14  N   UNL     1       2.776  15.682  19.125  0.00  0.00    +0.000 N 
ATOM     15  C   UNL     1       3.634  16.377  18.269  0.00  0.00    +0.000 C 
ATOM     16  O   UNL     1       3.180  17.179  17.451  0.00  0.00    +0.000 OA
ATOM     17  C   UNL     1       3.176  14.914  20.305  0.00  0.00    +0.000 C 
ATOM     18  C   UNL     1       2.592  13.505  20.203  0.00  0.00    +0.000 C 
BRANCH  15  19
ATOM     19  C   UNL     1       5.070  16.156  18.379  0.00  0.00    +0.000 A 
ATOM     20  C   UNL     1       6.056  16.939  18.953  0.00  0.00    +0.000 A 
ATOM     21  C   UNL     1       7.278  16.238  18.812  0.00  0.00    +0.000 A 
ATOM     22  C   UNL     1       6.982  15.096  18.110  0.00  0.00    +0.000 A 
ATOM     23  O   UNL     1       5.661  15.057  17.807  0.00  0.00    +0.000 OA
ENDBRANCH  15  19
ENDBRANCH   4  11
BRANCH   7  24
ATOM     24  C   UNL     1       1.458   8.100  20.118  0.00  0.00    +0.000 A 
ATOM     25  C   UNL     1       2.070   8.148  18.857  0.00  0.00    +0.000 A 
ATOM     26  C   UNL     1       2.684   7.011  18.321  0.00  0.00    +0.000 A 
ATOM     27  C   UNL     1       2.678   5.823  19.043  0.00  0.00    +0.000 A 
ATOM     28  F   UNL     1       3.267   4.734  18.531  0.00  0.00    +0.000 F 
ATOM     29  C   UNL     1       2.069   5.748  20.289  0.00  0.00    +0.000 A 
ATOM     30  C   UNL     1       1.461   6.885  20.827  0.00  0.00    +0.000 A 
ENDBRANCH   7  24
TORSDOF 3
ENDMDL
MODEL 6
REMARK VINA RESULT:      -7.7      3.725      6.448
REMARK  Name = 
REMARK  4 active torsions:
REMARK  status: ('A' for Active; 'I' for Inactive)
REMARK    1  A    between atoms: C_1  and  C_2
REMARK    2  A    between atoms: C_4  and  N_5
REMARK    3  A    between atoms: C_9  and  C_11
REMARK    4  A    between atoms: C_20  and  C_21
REMARK                            x       y       z     vdW  Elec       q    Type
REMARK                         _______ _______ _______ _____ _____    ______ ____
ROOT
ATOM      1  C   UNL     1      -3.426  10.581  17.885  0.00  0.00    +0.000 C 
ATOM      2  C   UNL     1      -2.015  11.012  18.199  0.00  0.00    +0.000 A 
ATOM      3  C   UNL     1      -1.021   9.936  18.445  0.00  0.00    +0.000 A 
ATOM      4  C   UNL     1       0.262  10.281  18.675  0.00  0.00    +0.000 A 
ATOM      5  N   UNL     1       0.564  11.679  18.704  0.00  0.00    +0.000 N 
ATOM      6  N   UNL     1       1.768  12.308  18.893  0.00  0.00    +0.000 NA
ATOM      7  C   UNL     1       1.504  13.623  18.829  0.00  0.00    +0.000 A 
ATOM      8  C   UNL     1       0.138  13.856  18.556  0.00  0.00    +0.000 A 
ATOM      9  C   UNL     1      -0.452  12.621  18.478  0.00  0.00    +0.000 A 
ATOM     10  N   UNL     1      -1.749  12.283  18.221  0.00  0.00    +0.000 NA
ENDROOT
BRANCH   4  11
ATOM     11  N   UNL     1       1.245   9.286  18.865  0.00  0.00    +0.000 N 
ATOM     12  C   UNL     1       1.594   8.670  20.171  0.00  0.00    +0.000 C 
ATOM     13  C   UNL     1       1.832   7.138  20.020  0.00  0.00    +0.000 C 
ATOM     14  N   UNL     1       2.685   6.807  18.867  0.00  0.00    +0.000 N 
ATOM     15  C   UNL     1       3.730   5.889  18.998  0.00  0.00    +0.000 C 
ATOM     16  O   UNL     1       3.872   5.253  20.043  0.00  0.00    +0.000 OA
ATOM     17  C   UNL     1       2.236   7.427  17.619  0.00  0.00    +0.000 C 
ATOM     18  C   UNL     1       2.216   8.945  17.798  0.00  0.00    +0.000 C 
BRANCH  15  19
ATOM     19  C   UNL     1       4.628   5.678  17.870  0.00  0.00    +0.000 A 
ATOM     20  C   UNL     1       4.618   4.707  16.884  0.00  0.00    +0.000 A 
ATOM     21  C   UNL     1       5.699   4.987  16.013  0.00  0.00    +0.000 A 
ATOM     22  C   UNL     1       6.343   6.076  16.545  0.00  0.00    +0.000 A 
ATOM     23  O   UNL     1       5.731   6.475  17.688  0.00  0.00    +0.000 OA
ENDBRANCH  15  19
ENDBRANCH   4  11
BRANCH   7  24
ATOM     24  C   UNL     1       2.540  14.643  19.009  0.00  0.00    +0.000 A 
ATOM     25  C   UNL     1       2.598  15.409  20.182  0.00  0.00    +0.000 A 
ATOM     26  C   UNL     1       3.610  16.359  20.361  0.00  0.00    +0.000 A 
ATOM     27  C   UNL     1       4.558  16.550  19.363  0.00  0.00    +0.000 A 
ATOM     28  F   UNL     1       5.527  17.458  19.534  0.00  0.00    +0.000 F 
ATOM     29  C   UNL     1       4.515  15.810  18.188  0.00  0.00    +0.000 A 
ATOM     30  C   UNL     1       3.509  14.857  18.011  0.00  0.00    +0.000 A 
ENDBRANCH   7  24
TORSDOF 3
ENDMDL
MODEL 7
REMARK VINA RESULT:      -7.6      4.288      7.462
REMARK  Name = 
REMARK  4 active torsions:
REMARK  status: ('A' for Active; 'I' for Inactive)
REMARK    1  A    between atoms: C_1  and  C_2
REMARK    2  A    between atoms: C_4  and  N_5
REMARK    3  A    between atoms: C_9  and  C_11
REMARK    4  A    between atoms: C_20  and  C_21
REMARK                            x       y       z     vdW  Elec       q    Type
REMARK                         _______ _______ _______ _____ _____    ______ ____
ROOT
ATOM      1  C   UNL     1       3.058  14.082  20.876  0.00  0.00    +0.000 C 
ATOM      2  C   UNL     1       1.865  13.287  20.408  0.00  0.00    +0.000 A 
ATOM      3  C   UNL     1       2.112  11.879  20.004  0.00  0.00    +0.000 A 
ATOM      4  C   UNL     1       1.062  11.119  19.632  0.00  0.00    +0.000 A 
ATOM      5  N   UNL     1      -0.223  11.748  19.619  0.00  0.00    +0.000 N 
ATOM      6  N   UNL     1      -1.450  11.221  19.308  0.00  0.00    +0.000 NA
ATOM      7  C   UNL     1      -2.325  12.228  19.452  0.00  0.00    +0.000 A 
ATOM      8  C   UNL     1      -1.681  13.403  19.898  0.00  0.00    +0.000 A 
ATOM      9  C   UNL     1      -0.350  13.093  20.001  0.00  0.00    +0.000 A 
ATOM     10  N   UNL     1       0.702  13.864  20.402  0.00  0.00    +0.000 NA
ENDROOT
BRANCH   4  11
ATOM     11  N   UNL     1       1.249   9.763  19.288  0.00  0.00    +0.000 N 
ATOM     12  C   UNL     1       1.518   9.261  17.915  0.00  0.00    +0.000 C 
ATOM     13  C   UNL     1       2.586   8.128  17.936  0.00  0.00    +0.000 C 
ATOM     14  N   UNL     1       2.333   7.126  18.984  0.00  0.00    +0.000 N 
ATOM     15  C   UNL     1       2.421   5.762  18.698  0.00  0.00    +0.000 C 
ATOM     16  O   UNL     1       2.834   5.381  17.602  0.00  0.00    +0.000 OA
ATOM     17  C   UNL     1       2.121   7.716  20.307  0.00  0.00    +0.000 C 
ATOM     18  C   UNL     1       0.930   8.673  20.240  0.00  0.00    +0.000 C 
BRANCH  15  19
ATOM     19  C   UNL     1       2.044   4.801  19.726  0.00  0.00    +0.000 A 
ATOM     20  C   UNL     1       0.910   4.015  19.847  0.00  0.00    +0.000 A 
ATOM     21  C   UNL     1       1.068   3.234  21.017  0.00  0.00    +0.000 A 
ATOM     22  C   UNL     1       2.259   3.626  21.577  0.00  0.00    +0.000 A 
ATOM     23  O   UNL     1       2.835   4.600  20.830  0.00  0.00    +0.000 OA
ENDBRANCH  15  19
ENDBRANCH   4  11
BRANCH   7  24
ATOM     24  C   UNL     1      -3.758  12.071  19.186  0.00  0.00    +0.000 A 
ATOM     25  C   UNL     1      -4.714  12.568  20.083  0.00  0.00    +0.000 A 
ATOM     26  C   UNL     1      -6.080  12.444  19.807  0.00  0.00    +0.000 A 
ATOM     27  C   UNL     1      -6.490  11.812  18.639  0.00  0.00    +0.000 A 
ATOM     28  F   UNL     1      -7.797  11.694  18.374  0.00  0.00    +0.000 F 
ATOM     29  C   UNL     1      -5.562  11.302  17.740  0.00  0.00    +0.000 A 
ATOM     30  C   UNL     1      -4.198  11.432  18.012  0.00  0.00    +0.000 A 
ENDBRANCH   7  24
TORSDOF 3
ENDMDL
MODEL 8
REMARK VINA RESULT:      -7.4      4.609      7.553
REMARK  Name = 
REMARK  4 active torsions:
REMARK  status: ('A' for Active; 'I' for Inactive)
REMARK    1  A    between atoms: C_1  and  C_2
REMARK    2  A    between atoms: C_4  and  N_5
REMARK    3  A    between atoms: C_9  and  C_11
REMARK    4  A    between atoms: C_20  and  C_21
REMARK                            x       y       z     vdW  Elec       q    Type
REMARK                         _______ _______ _______ _____ _____    ______ ____
ROOT
ATOM      1  C   UNL     1      -2.818  12.258  23.447  0.00  0.00    +0.000 C 
ATOM      2  C   UNL     1      -1.545  12.290  22.637  0.00  0.00    +0.000 A 
ATOM      3  C   UNL     1      -1.114  11.015  22.009  0.00  0.00    +0.000 A 
ATOM      4  C   UNL     1      -0.011  11.017  21.233  0.00  0.00    +0.000 A 
ATOM      5  N   UNL     1       0.691  12.257  21.104  0.00  0.00    +0.000 N 
ATOM      6  N   UNL     1       1.813  12.552  20.375  0.00  0.00    +0.000 NA
ATOM      7  C   UNL     1       2.059  13.853  20.597  0.00  0.00    +0.000 A 
ATOM      8  C   UNL     1       1.076  14.421  21.437  0.00  0.00    +0.000 A 
ATOM      9  C   UNL     1       0.212  13.405  21.755  0.00  0.00    +0.000 A 
ATOM     10  N   UNL     1      -0.916  13.420  22.523  0.00  0.00    +0.000 NA
ENDROOT
BRANCH   4  11
ATOM     11  N   UNL     1       0.403   9.836  20.580  0.00  0.00    +0.000 N 
ATOM     12  C   UNL     1       0.683   9.719  19.125  0.00  0.00    +0.000 C 
ATOM     13  C   UNL     1       1.941   8.839  18.869  0.00  0.00    +0.000 C 
ATOM     14  N   UNL     1       1.937   7.596  19.658  0.00  0.00    +0.000 N 
ATOM     15  C   UNL     1       2.259   6.375  19.062  0.00  0.00    +0.000 C 
ATOM     16  O   UNL     1       2.673   6.339  17.902  0.00  0.00    +0.000 OA
ATOM     17  C   UNL     1       1.694   7.819  21.084  0.00  0.00    +0.000 C 
ATOM     18  C   UNL     1       0.346   8.519  21.256  0.00  0.00    +0.000 C 
BRANCH  15  19
ATOM     19  C   UNL     1       2.125   5.152  19.842  0.00  0.00    +0.000 A 
ATOM     20  C   UNL     1       0.999   4.551  20.381  0.00  0.00    +0.000 A 
ATOM     21  C   UNL     1       1.428   3.360  21.016  0.00  0.00    +0.000 A 
ATOM     22  C   UNL     1       2.794   3.329  20.883  0.00  0.00    +0.000 A 
ATOM     23  O   UNL     1       3.229   4.425  20.213  0.00  0.00    +0.000 OA
ENDBRANCH  15  19
ENDBRANCH   4  11
BRANCH   7  24
ATOM     24  C   UNL     1       3.205  14.550  20.006  0.00  0.00    +0.000 A 
ATOM     25  C   UNL     1       3.638  14.246  18.708  0.00  0.00    +0.000 A 
ATOM     26  C   UNL     1       4.712  14.938  18.137  0.00  0.00    +0.000 A 
ATOM     27  C   UNL     1       5.358  15.928  18.868  0.00  0.00    +0.000 A 
ATOM     28  F   UNL     1       6.385  16.591  18.321  0.00  0.00    +0.000 F 
ATOM     29  C   UNL     1       4.953  16.240  20.160  0.00  0.00    +0.000 A 
ATOM     30  C   UNL     1       3.877  15.554  20.728  0.00  0.00    +0.000 A 
ENDBRANCH   7  24
TORSDOF 3
ENDMDL
MODEL 9
REMARK VINA RESULT:      -7.3      5.441      9.755
REMARK  Name = 
REMARK  4 active torsions:
REMARK  status: ('A' for Active; 'I' for Inactive)
REMARK    1  A    between atoms: C_1  and  C_2
REMARK    2  A    between atoms: C_4  and  N_5
REMARK    3  A    between atoms: C_9  and  C_11
REMARK    4  A    between atoms: C_20  and  C_21
REMARK                            x       y       z     vdW  Elec       q    Type
REMARK                         _______ _______ _______ _____ _____    ______ ____
ROOT
ATOM      1  C   UNL     1      -2.124  12.202  23.554  0.00  0.00    +0.000 C 
ATOM      2  C   UNL     1      -1.138  11.563  22.608  0.00  0.00    +0.000 A 
ATOM      3  C   UNL     1      -0.307  12.477  21.783  0.00  0.00    +0.000 A 
ATOM      4  C   UNL     1       0.624  11.945  20.965  0.00  0.00    +0.000 A 
ATOM      5  N   UNL     1       0.715  10.517  20.926  0.00  0.00    +0.000 N 
ATOM      6  N   UNL     1       1.568   9.716  20.213  0.00  0.00    +0.000 NA
ATOM      7  C   UNL     1       1.237   8.456  20.534  0.00  0.00    +0.000 A 
ATOM      8  C   UNL     1       0.196   8.430  21.487  0.00  0.00    +0.000 A 
ATOM      9  C   UNL     1      -0.131   9.738  21.732  0.00  0.00    +0.000 A 
ATOM     10  N   UNL     1      -1.060  10.267  22.580  0.00  0.00    +0.000 NA
ENDROOT
BRANCH   4  11
ATOM     11  N   UNL     1       1.465  12.782  20.201  0.00  0.00    +0.000 N 
ATOM     12  C   UNL     1       1.482  12.849  18.717  0.00  0.00    +0.000 C 
ATOM     13  C   UNL     1       1.629  14.320  18.228  0.00  0.00    +0.000 C 
ATOM     14  N   UNL     1       2.679  15.058  18.949  0.00  0.00    +0.000 N 
ATOM     15  C   UNL     1       3.599  15.846  18.254  0.00  0.00    +0.000 C 
ATOM     16  O   UNL     1       3.467  16.033  17.043  0.00  0.00    +0.000 OA
ATOM     17  C   UNL     1       2.553  14.965  20.405  0.00  0.00    +0.000 C 
ATOM     18  C   UNL     1       2.611  13.494  20.816  0.00  0.00    +0.000 C 
BRANCH  15  19
ATOM     19  C   UNL     1       4.697  16.461  18.988  0.00  0.00    +0.000 A 
ATOM     20  C   UNL     1       5.997  16.028  19.187  0.00  0.00    +0.000 A 
ATOM     21  C   UNL     1       6.655  17.025  19.947  0.00  0.00    +0.000 A 
ATOM     22  C   UNL     1       5.709  17.981  20.219  0.00  0.00    +0.000 A 
ATOM     23  O   UNL     1       4.514  17.631  19.681  0.00  0.00    +0.000 OA
ENDBRANCH  15  19
ENDBRANCH   4  11
BRANCH   7  24
ATOM     24  C   UNL     1       1.912   7.292  19.953  0.00  0.00    +0.000 A 
ATOM     25  C   UNL     1       1.863   6.042  20.588  0.00  0.00    +0.000 A 
ATOM     26  C   UNL     1       2.482   4.928  20.012  0.00  0.00    +0.000 A 
ATOM     27  C   UNL     1       3.159   5.065  18.806  0.00  0.00    +0.000 A 
ATOM     28  F   UNL     1       3.751   3.998  18.253  0.00  0.00    +0.000 F 
ATOM     29  C   UNL     1       3.230   6.294  18.163  0.00  0.00    +0.000 A 
ATOM     30  C   UNL     1       2.607   7.406  18.735  0.00  0.00    +0.000 A 
ENDBRANCH   7  24
TORSDOF 3
ENDMDL
