MODEL 1
REMARK VINA RESULT:      -8.1      0.000      0.000
REMARK  Name = 
REMARK  5 active torsions:
REMARK  status: ('A' for Active; 'I' for Inactive)
REMARK    1  A    between atoms: C_1  and  O_2
REMARK    2  A    between atoms: O_2  and  C_3
REMARK    3  A    between atoms: C_8  and  C_9
REMARK    4  A    between atoms: C_11  and  C_12
REMARK    5  A    between atoms: C_14  and  C_15
REMARK                            x       y       z     vdW  Elec       q    Type
REMARK                         _______ _______ _______ _____ _____    ______ ____
ROOT
ATOM      1  C   UNL     1       3.695   2.807  20.052  0.00  0.00    +0.000 A 
ATOM      2  C   UNL     1       2.760   2.746  21.077  0.00  0.00    +0.000 A 
ATOM      3  C   UNL     1       2.013   3.885  21.367  0.00  0.00    +0.000 A 
ATOM      4  C   UNL     1       2.197   5.050  20.628  0.00  0.00    +0.000 A 
ATOM      5  N   UNL     1       1.417   6.171  20.960  0.00  0.00    +0.000 NA
ATOM      6  C   UNL     1       1.544   7.254  20.258  0.00  0.00    +0.000 A 
ATOM      7  C   UNL     1       0.708   8.440  20.652  0.00  0.00    +0.000 C 
ATOM      8  C   UNL     1       2.455   7.311  19.143  0.00  0.00    +0.000 A 
ATOM      9  C   UNL     1       2.791   8.278  18.223  0.00  0.00    +0.000 A 
ATOM     10  C   UNL     1       2.360   9.685  18.044  0.00  0.00    +0.000 C 
ATOM     11  N   UNL     1       3.705   7.774  17.332  0.00  0.00    +0.000 NA
ATOM     12  C   UNL     1       4.005   6.540  17.710  0.00  0.00    +0.000 A 
ATOM     13  N   UNL     1       3.240   6.205  18.827  0.00  0.00    +0.000 N 
ATOM     14  C   UNL     1       3.151   5.019  19.606  0.00  0.00    +0.000 A 
ATOM     15  N   UNL     1       3.912   3.932  19.334  0.00  0.00    +0.000 NA
ENDROOT
BRANCH  12  16
ATOM     16  C   UNL     1       5.017   5.719  17.011  0.00  0.00    +0.000 A 
ATOM     17  C   UNL     1       4.814   5.310  15.684  0.00  0.00    +0.000 A 
ATOM     18  C   UNL     1       5.702   4.443  15.047  0.00  0.00    +0.000 A 
ATOM     19 CL   UNL     1       5.324   3.831  13.484  0.00  0.00    +0.000 Cl
ATOM     20  C   UNL     1       6.878   4.052  15.676  0.00  0.00    +0.000 A 
ATOM     21  C   UNL     1       7.159   4.533  16.953  0.00  0.00    +0.000 A 
ATOM     22  C   UNL     1       6.235   5.349  17.624  0.00  0.00    +0.000 A 
ATOM     23 CL   UNL     1       6.678   5.828  19.230  0.00  0.00    +0.000 Cl
ENDBRANCH  12  16
BRANCH   1  25
ATOM     24  C   UNL     1       4.055   0.984  18.592  0.00  0.00    +0.000 C 
ATOM     25  O   UNL     1       4.502   1.767  19.691  0.00  0.00    +0.000 OA
ENDBRANCH   1  25
TORSDOF 2
ENDMDL
MODEL 2
REMARK VINA RESULT:      -6.9      7.166      9.568
REMARK  Name = 
REMARK  5 active torsions:
REMARK  status: ('A' for Active; 'I' for Inactive)
REMARK    1  A    between atoms: C_1  and  O_2
REMARK    2  A    between atoms: O_2  and  C_3
REMARK    3  A    between atoms: C_8  and  C_9
REMARK    4  A    between atoms: C_11  and  C_12
REMARK    5  A    between atoms: C_14  and  C_15
REMARK                            x       y       z     vdW  Elec       q    Type
REMARK                         _______ _______ _______ _____ _____    ______ ____
ROOT
ATOM      1  C   UNL     1      -3.299  11.298  16.688  0.00  0.00    +0.000 A 
ATOM      2  C   UNL     1      -4.686  11.364  16.659  0.00  0.00    +0.000 A 
ATOM      3  C   UNL     1      -5.361  11.721  17.824  0.00  0.00    +0.000 A 
ATOM      4  C   UNL     1      -4.648  12.018  18.983  0.00  0.00    +0.000 A 
ATOM      5  N   UNL     1      -5.377  12.374  20.131  0.00  0.00    +0.000 NA
ATOM      6  C   UNL     1      -4.732  12.694  21.209  0.00  0.00    +0.000 A 
ATOM      7  C   UNL     1      -5.543  13.052  22.424  0.00  0.00    +0.000 C 
ATOM      8  C   UNL     1      -3.291  12.704  21.234  0.00  0.00    +0.000 A 
ATOM      9  C   UNL     1      -2.348  13.006  22.190  0.00  0.00    +0.000 A 
ATOM     10  C   UNL     1      -2.454  13.411  23.612  0.00  0.00    +0.000 C 
ATOM     11  N   UNL     1      -1.090  12.886  21.655  0.00  0.00    +0.000 NA
ATOM     12  C   UNL     1      -1.216  12.449  20.410  0.00  0.00    +0.000 A 
ATOM     13  N   UNL     1      -2.572  12.333  20.101  0.00  0.00    +0.000 N 
ATOM     14  C   UNL     1      -3.254  11.938  18.919  0.00  0.00    +0.000 A 
ATOM     15  N   UNL     1      -2.583  11.557  17.805  0.00  0.00    +0.000 NA
ENDROOT
BRANCH  12  16
ATOM     16  C   UNL     1      -0.051  12.140  19.554  0.00  0.00    +0.000 A 
ATOM     17  C   UNL     1       0.290  10.810  19.263  0.00  0.00    +0.000 A 
ATOM     18  C   UNL     1       1.450  10.497  18.553  0.00  0.00    +0.000 A 
ATOM     19 CL   UNL     1       1.919   8.851  18.370  0.00  0.00    +0.000 Cl
ATOM     20  C   UNL     1       2.240  11.504  18.013  0.00  0.00    +0.000 A 
ATOM     21  C   UNL     1       1.863  12.833  18.193  0.00  0.00    +0.000 A 
ATOM     22  C   UNL     1       0.737  13.155  18.965  0.00  0.00    +0.000 A 
ATOM     23 CL   UNL     1       0.414  14.847  19.162  0.00  0.00    +0.000 Cl
ENDBRANCH  12  16
BRANCH   1  25
ATOM     24  C   UNL     1      -3.168  10.136  14.634  0.00  0.00    +0.000 C 
ATOM     25  O   UNL     1      -2.529  10.937  15.620  0.00  0.00    +0.000 OA
ENDBRANCH   1  25
TORSDOF 2
ENDMDL
MODEL 3
REMARK VINA RESULT:      -6.7      7.684      9.863
REMARK  Name = 
REMARK  5 active torsions:
REMARK  status: ('A' for Active; 'I' for Inactive)
REMARK    1  A    between atoms: C_1  and  O_2
REMARK    2  A    between atoms: O_2  and  C_3
REMARK    3  A    between atoms: C_8  and  C_9
REMARK    4  A    between atoms: C_11  and  C_12
REMARK    5  A    between atoms: C_14  and  C_15
REMARK                            x       y       z     vdW  Elec       q    Type
REMARK                         _______ _______ _______ _____ _____    ______ ____
ROOT
ATOM      1  C   UNL     1      -3.245  11.351  16.926  0.00  0.00    +0.000 A 
ATOM      2  C   UNL     1      -4.630  11.319  16.825  0.00  0.00    +0.000 A 
ATOM      3  C   UNL     1      -5.389  11.648  17.945  0.00  0.00    +0.000 A 
ATOM      4  C   UNL     1      -4.762  12.014  19.133  0.00  0.00    +0.000 A 
ATOM      5  N   UNL     1      -5.574  12.339  20.234  0.00  0.00    +0.000 NA
ATOM      6  C   UNL     1      -5.011  12.721  21.337  0.00  0.00    +0.000 A 
ATOM      7  C   UNL     1      -5.908  13.042  22.500  0.00  0.00    +0.000 C 
ATOM      8  C   UNL     1      -3.577  12.832  21.437  0.00  0.00    +0.000 A 
ATOM      9  C   UNL     1      -2.709  13.216  22.434  0.00  0.00    +0.000 A 
ATOM     10  C   UNL     1      -2.919  13.638  23.839  0.00  0.00    +0.000 C 
ATOM     11  N   UNL     1      -1.419  13.176  21.967  0.00  0.00    +0.000 NA
ATOM     12  C   UNL     1      -1.449  12.710  20.727  0.00  0.00    +0.000 A 
ATOM     13  N   UNL     1      -2.774  12.494  20.351  0.00  0.00    +0.000 N 
ATOM     14  C   UNL     1      -3.364  12.031  19.143  0.00  0.00    +0.000 A 
ATOM     15  N   UNL     1      -2.610  11.680  18.074  0.00  0.00    +0.000 NA
ENDROOT
BRANCH  12  16
ATOM     16  C   UNL     1      -0.221  12.469  19.939  0.00  0.00    +0.000 A 
ATOM     17  C   UNL     1       0.562  13.543  19.489  0.00  0.00    +0.000 A 
ATOM     18  C   UNL     1       1.659  13.341  18.651  0.00  0.00    +0.000 A 
ATOM     19 CL   UNL     1       2.484  14.696  17.984  0.00  0.00    +0.000 Cl
ATOM     20  C   UNL     1       2.075  12.054  18.332  0.00  0.00    +0.000 A 
ATOM     21  C   UNL     1       1.382  10.966  18.857  0.00  0.00    +0.000 A 
ATOM     22  C   UNL     1       0.236  11.165  19.643  0.00  0.00    +0.000 A 
ATOM     23 CL   UNL     1      -0.569   9.727  20.182  0.00  0.00    +0.000 Cl
ENDBRANCH  12  16
BRANCH   1  25
ATOM     24  C   UNL     1      -2.970  10.300  14.828  0.00  0.00    +0.000 C 
ATOM     25  O   UNL     1      -2.397  11.027  15.908  0.00  0.00    +0.000 OA
ENDBRANCH   1  25
TORSDOF 2
ENDMDL
MODEL 4
REMARK VINA RESULT:      -6.6      8.663     12.299
REMARK  Name = 
REMARK  5 active torsions:
REMARK  status: ('A' for Active; 'I' for Inactive)
REMARK    1  A    between atoms: C_1  and  O_2
REMARK    2  A    between atoms: O_2  and  C_3
REMARK    3  A    between atoms: C_8  and  C_9
REMARK    4  A    between atoms: C_11  and  C_12
REMARK    5  A    between atoms: C_14  and  C_15
REMARK                            x       y       z     vdW  Elec       q    Type
REMARK                         _______ _______ _______ _____ _____    ______ ____
ROOT
ATOM      1  C   UNL     1      -6.824  13.436  19.649  0.00  0.00    +0.000 A 
ATOM      2  C   UNL     1      -7.475  12.996  18.504  0.00  0.00    +0.000 A 
ATOM      3  C   UNL     1      -6.755  12.257  17.568  0.00  0.00    +0.000 A 
ATOM      4  C   UNL     1      -5.414  11.959  17.794  0.00  0.00    +0.000 A 
ATOM      5  N   UNL     1      -4.733  11.209  16.820  0.00  0.00    +0.000 NA
ATOM      6  C   UNL     1      -3.495  10.887  17.029  0.00  0.00    +0.000 A 
ATOM      7  C   UNL     1      -2.791  10.100  15.958  0.00  0.00    +0.000 C 
ATOM      8  C   UNL     1      -2.825  11.271  18.246  0.00  0.00    +0.000 A 
ATOM      9  C   UNL     1      -1.561  11.069  18.754  0.00  0.00    +0.000 A 
ATOM     10  C   UNL     1      -0.358  10.394  18.211  0.00  0.00    +0.000 C 
ATOM     11  N   UNL     1      -1.468  11.629  20.003  0.00  0.00    +0.000 NA
ATOM     12  C   UNL     1      -2.617  12.237  20.264  0.00  0.00    +0.000 A 
ATOM     13  N   UNL     1      -3.496  12.029  19.202  0.00  0.00    +0.000 N 
ATOM     14  C   UNL     1      -4.841  12.432  18.979  0.00  0.00    +0.000 A 
ATOM     15  N   UNL     1      -5.516  13.182  19.882  0.00  0.00    +0.000 NA
ENDROOT
BRANCH  12  16
ATOM     16  C   UNL     1      -2.843  13.008  21.505  0.00  0.00    +0.000 A 
ATOM     17  C   UNL     1      -3.399  12.393  22.638  0.00  0.00    +0.000 A 
ATOM     18  C   UNL     1      -3.724  13.130  23.778  0.00  0.00    +0.000 A 
ATOM     19 CL   UNL     1      -4.561  12.370  25.075  0.00  0.00    +0.000 Cl
ATOM     20  C   UNL     1      -3.398  14.478  23.863  0.00  0.00    +0.000 A 
ATOM     21  C   UNL     1      -2.744  15.088  22.794  0.00  0.00    +0.000 A 
ATOM     22  C   UNL     1      -2.478  14.369  21.619  0.00  0.00    +0.000 A 
ATOM     23 CL   UNL     1      -1.717  15.261  20.343  0.00  0.00    +0.000 Cl
ENDBRANCH  12  16
BRANCH   1  25
ATOM     24  C   UNL     1      -6.532  14.850  21.519  0.00  0.00    +0.000 C 
ATOM     25  O   UNL     1      -7.415  14.187  20.623  0.00  0.00    +0.000 OA
ENDBRANCH   1  25
TORSDOF 2
ENDMDL
MODEL 5
REMARK VINA RESULT:      -6.6      7.282     10.496
REMARK  Name = 
REMARK  5 active torsions:
REMARK  status: ('A' for Active; 'I' for Inactive)
REMARK    1  A    between atoms: C_1  and  O_2
REMARK    2  A    between atoms: O_2  and  C_3
REMARK    3  A    between atoms: C_8  and  C_9
REMARK    4  A    between atoms: C_11  and  C_12
REMARK    5  A    between atoms: C_14  and  C_15
REMARK                            x       y       z     vdW  Elec       q    Type
REMARK                         _______ _______ _______ _____ _____    ______ ____
ROOT
ATOM      1  C   UNL     1       0.431  10.570  20.343  0.00  0.00    +0.000 A 
ATOM      2  C   UNL     1       0.940   9.843  19.275  0.00  0.00    +0.000 A 
ATOM      3  C   UNL     1       0.154   9.692  18.136  0.00  0.00    +0.000 A 
ATOM      4  C   UNL     1      -1.108  10.276  18.074  0.00  0.00    +0.000 A 
ATOM      5  N   UNL     1      -1.861  10.095  16.900  0.00  0.00    +0.000 NA
ATOM      6  C   UNL     1      -3.023  10.664  16.806  0.00  0.00    +0.000 A 
ATOM      7  C   UNL     1      -3.808  10.435  15.545  0.00  0.00    +0.000 C 
ATOM      8  C   UNL     1      -3.534  11.485  17.874  0.00  0.00    +0.000 A 
ATOM      9  C   UNL     1      -4.686  12.214  18.060  0.00  0.00    +0.000 A 
ATOM     10  C   UNL     1      -5.895  12.411  17.225  0.00  0.00    +0.000 C 
ATOM     11  N   UNL     1      -4.640  12.855  19.273  0.00  0.00    +0.000 NA
ATOM     12  C   UNL     1      -3.521  12.492  19.883  0.00  0.00    +0.000 A 
ATOM     13  N   UNL     1      -2.795  11.648  19.043  0.00  0.00    +0.000 N 
ATOM     14  C   UNL     1      -1.537  11.001  19.189  0.00  0.00    +0.000 A 
ATOM     15  N   UNL     1      -0.801  11.128  20.320  0.00  0.00    +0.000 NA
ENDROOT
BRANCH  12  16
ATOM     16  C   UNL     1      -3.179  12.942  21.249  0.00  0.00    +0.000 A 
ATOM     17  C   UNL     1      -3.818  12.384  22.367  0.00  0.00    +0.000 A 
ATOM     18  C   UNL     1      -3.591  12.876  23.654  0.00  0.00    +0.000 A 
ATOM     19 CL   UNL     1      -4.525  12.280  24.971  0.00  0.00    +0.000 Cl
ATOM     20  C   UNL     1      -2.634  13.859  23.875  0.00  0.00    +0.000 A 
ATOM     21  C   UNL     1      -1.905  14.352  22.795  0.00  0.00    +0.000 A 
ATOM     22  C   UNL     1      -2.179  13.911  21.491  0.00  0.00    +0.000 A 
ATOM     23 CL   UNL     1      -1.243  14.649  20.232  0.00  0.00    +0.000 Cl
ENDBRANCH  12  16
BRANCH   1  25
ATOM     24  C   UNL     1       1.210   9.629  22.366  0.00  0.00    +0.000 C 
ATOM     25  O   UNL     1       1.094  10.766  21.520  0.00  0.00    +0.000 OA
ENDBRANCH   1  25
TORSDOF 2
ENDMDL
MODEL 6
REMARK VINA RESULT:      -6.6      6.211      9.002
REMARK  Name = 
REMARK  5 active torsions:
REMARK  status: ('A' for Active; 'I' for Inactive)
REMARK    1  A    between atoms: C_1  and  O_2
REMARK    2  A    between atoms: O_2  and  C_3
REMARK    3  A    between atoms: C_8  and  C_9
REMARK    4  A    between atoms: C_11  and  C_12
REMARK    5  A    between atoms: C_14  and  C_15
REMARK                            x       y       z     vdW  Elec       q    Type
REMARK                         _______ _______ _______ _____ _____    ______ ____
ROOT
ATOM      1  C   UNL     1      -3.107  10.818  16.821  0.00  0.00    +0.000 A 
ATOM      2  C   UNL     1      -4.425  11.250  16.750  0.00  0.00    +0.000 A 
ATOM      3  C   UNL     1      -4.974  11.900  17.853  0.00  0.00    +0.000 A 
ATOM      4  C   UNL     1      -4.204  12.119  18.991  0.00  0.00    +0.000 A 
ATOM      5  N   UNL     1      -4.805  12.781  20.076  0.00  0.00    +0.000 NA
ATOM      6  C   UNL     1      -4.094  13.030  21.131  0.00  0.00    +0.000 A 
ATOM      7  C   UNL     1      -4.774  13.723  22.280  0.00  0.00    +0.000 C 
ATOM      8  C   UNL     1      -2.704  12.656  21.192  0.00  0.00    +0.000 A 
ATOM      9  C   UNL     1      -1.710  12.797  22.134  0.00  0.00    +0.000 A 
ATOM     10  C   UNL     1      -1.698  13.368  23.502  0.00  0.00    +0.000 C 
ATOM     11  N   UNL     1      -0.533  12.286  21.647  0.00  0.00    +0.000 NA
ATOM     12  C   UNL     1      -0.777  11.767  20.453  0.00  0.00    +0.000 A 
ATOM     13  N   UNL     1      -2.115  11.986  20.123  0.00  0.00    +0.000 N 
ATOM     14  C   UNL     1      -2.883  11.662  18.972  0.00  0.00    +0.000 A 
ATOM     15  N   UNL     1      -2.343  10.996  17.923  0.00  0.00    +0.000 NA
ENDROOT
BRANCH  12  16
ATOM     16  C   UNL     1       0.259  11.066  19.665  0.00  0.00    +0.000 A 
ATOM     17  C   UNL     1       0.495   9.695  19.854  0.00  0.00    +0.000 A 
ATOM     18  C   UNL     1       1.543   9.043  19.203  0.00  0.00    +0.000 A 
ATOM     19 CL   UNL     1       1.905   7.406  19.596  0.00  0.00    +0.000 Cl
ATOM     20  C   UNL     1       2.311   9.711  18.257  0.00  0.00    +0.000 A 
ATOM     21  C   UNL     1       2.025  11.043  17.968  0.00  0.00    +0.000 A 
ATOM     22  C   UNL     1       1.018  11.723  18.671  0.00  0.00    +0.000 A 
ATOM     23 CL   UNL     1       0.805  13.394  18.259  0.00  0.00    +0.000 Cl
ENDBRANCH  12  16
BRANCH   1  25
ATOM     24  C   UNL     1      -3.103  10.179  14.546  0.00  0.00    +0.000 C 
ATOM     25  O   UNL     1      -2.467  10.151  15.818  0.00  0.00    +0.000 OA
ENDBRANCH   1  25
TORSDOF 2
ENDMDL
MODEL 7
REMARK VINA RESULT:      -6.6      8.615     10.485
REMARK  Name = 
REMARK  5 active torsions:
REMARK  status: ('A' for Active; 'I' for Inactive)
REMARK    1  A    between atoms: C_1  and  O_2
REMARK    2  A    between atoms: O_2  and  C_3
REMARK    3  A    between atoms: C_8  and  C_9
REMARK    4  A    between atoms: C_11  and  C_12
REMARK    5  A    between atoms: C_14  and  C_15
REMARK                            x       y       z     vdW  Elec       q    Type
REMARK                         _______ _______ _______ _____ _____    ______ ____
ROOT
ATOM      1  C   UNL     1      -3.020  13.583  22.855  0.00  0.00    +0.000 A 
ATOM      2  C   UNL     1      -4.329  13.472  23.303  0.00  0.00    +0.000 A 
ATOM      3  C   UNL     1      -5.296  12.986  22.426  0.00  0.00    +0.000 A 
ATOM      4  C   UNL     1      -4.942  12.609  21.134  0.00  0.00    +0.000 A 
ATOM      5  N   UNL     1      -5.955  12.124  20.288  0.00  0.00    +0.000 NA
ATOM      6  C   UNL     1      -5.641  11.730  19.094  0.00  0.00    +0.000 A 
ATOM      7  C   UNL     1      -6.752  11.234  18.210  0.00  0.00    +0.000 C 
ATOM      8  C   UNL     1      -4.274  11.768  18.638  0.00  0.00    +0.000 A 
ATOM      9  C   UNL     1      -3.640  11.413  17.469  0.00  0.00    +0.000 A 
ATOM     10  C   UNL     1      -4.138  10.875  16.181  0.00  0.00    +0.000 C 
ATOM     11  N   UNL     1      -2.289  11.625  17.591  0.00  0.00    +0.000 NA
ATOM     12  C   UNL     1      -2.067  12.169  18.779  0.00  0.00    +0.000 A 
ATOM     13  N   UNL     1      -3.275  12.265  19.471  0.00  0.00    +0.000 N 
ATOM     14  C   UNL     1      -3.599  12.743  20.770  0.00  0.00    +0.000 A 
ATOM     15  N   UNL     1      -2.652  13.247  21.597  0.00  0.00    +0.000 NA
ENDROOT
BRANCH  12  16
ATOM     16  C   UNL     1      -0.722  12.595  19.219  0.00  0.00    +0.000 A 
ATOM     17  C   UNL     1      -0.230  13.867  18.885  0.00  0.00    +0.000 A 
ATOM     18  C   UNL     1       1.078  14.242  19.193  0.00  0.00    +0.000 A 
ATOM     19 CL   UNL     1       1.694  15.741  18.613  0.00  0.00    +0.000 Cl
ATOM     20  C   UNL     1       1.894  13.406  19.945  0.00  0.00    +0.000 A 
ATOM     21  C   UNL     1       1.392  12.183  20.385  0.00  0.00    +0.000 A 
ATOM     22  C   UNL     1       0.102  11.771  20.018  0.00  0.00    +0.000 A 
ATOM     23 CL   UNL     1      -0.378  10.203  20.580  0.00  0.00    +0.000 Cl
ENDBRANCH  12  16
BRANCH   1  25
ATOM     24  C   UNL     1      -0.738  14.190  22.951  0.00  0.00    +0.000 C 
ATOM     25  O   UNL     1      -1.992  14.066  23.611  0.00  0.00    +0.000 OA
ENDBRANCH   1  25
TORSDOF 2
ENDMDL
MODEL 8
REMARK VINA RESULT:      -6.5      6.948      9.835
REMARK  Name = 
REMARK  5 active torsions:
REMARK  status: ('A' for Active; 'I' for Inactive)
REMARK    1  A    between atoms: C_1  and  O_2
REMARK    2  A    between atoms: O_2  and  C_3
REMARK    3  A    between atoms: C_8  and  C_9
REMARK    4  A    between atoms: C_11  and  C_12
REMARK    5  A    between atoms: C_14  and  C_15
REMARK                            x       y       z     vdW  Elec       q    Type
REMARK                         _______ _______ _______ _____ _____    ______ ____
ROOT
ATOM      1  C   UNL     1      -3.623  11.152  16.918  0.00  0.00    +0.000 A 
ATOM      2  C   UNL     1      -4.948  11.506  16.699  0.00  0.00    +0.000 A 
ATOM      3  C   UNL     1      -5.669  12.072  17.747  0.00  0.00    +0.000 A 
ATOM      4  C   UNL     1      -5.059  12.287  18.980  0.00  0.00    +0.000 A 
ATOM      5  N   UNL     1      -5.831  12.863  20.005  0.00  0.00    +0.000 NA
ATOM      6  C   UNL     1      -5.272  13.109  21.148  0.00  0.00    +0.000 A 
ATOM      7  C   UNL     1      -6.130  13.708  22.228  0.00  0.00    +0.000 C 
ATOM      8  C   UNL     1      -3.878  12.817  21.368  0.00  0.00    +0.000 A 
ATOM      9  C   UNL     1      -3.018  12.976  22.432  0.00  0.00    +0.000 A 
ATOM     10  C   UNL     1      -3.210  13.486  23.810  0.00  0.00    +0.000 C 
ATOM     11  N   UNL     1      -1.759  12.560  22.077  0.00  0.00    +0.000 NA
ATOM     12  C   UNL     1      -1.821  12.079  20.843  0.00  0.00    +0.000 A 
ATOM     13  N   UNL     1      -3.120  12.231  20.358  0.00  0.00    +0.000 N 
ATOM     14  C   UNL     1      -3.719  11.912  19.109  0.00  0.00    +0.000 A 
ATOM     15  N   UNL     1      -3.012  11.327  18.111  0.00  0.00    +0.000 NA
ENDROOT
BRANCH  12  16
ATOM     16  C   UNL     1      -0.653  11.478  20.166  0.00  0.00    +0.000 A 
ATOM     17  C   UNL     1      -0.249  10.167  20.465  0.00  0.00    +0.000 A 
ATOM     18  C   UNL     1       0.915   9.624  19.921  0.00  0.00    +0.000 A 
ATOM     19 CL   UNL     1       1.464   8.081  20.449  0.00  0.00    +0.000 Cl
ATOM     20  C   UNL     1       1.647  10.329  18.973  0.00  0.00    +0.000 A 
ATOM     21  C   UNL     1       1.206  11.589  18.575  0.00  0.00    +0.000 A 
ATOM     22  C   UNL     1       0.075  12.168  19.170  0.00  0.00    +0.000 A 
ATOM     23 CL   UNL     1      -0.330  13.764  18.629  0.00  0.00    +0.000 Cl
ENDBRANCH  12  16
BRANCH   1  25
ATOM     24  C   UNL     1      -3.411  10.364  14.700  0.00  0.00    +0.000 C 
ATOM     25  O   UNL     1      -2.823  10.569  15.978  0.00  0.00    +0.000 OA
ENDBRANCH   1  25
TORSDOF 2
ENDMDL
MODEL 9
REMARK VINA RESULT:      -6.4      7.967     10.596
REMARK  Name = 
REMARK  5 active torsions:
REMARK  status: ('A' for Active; 'I' for Inactive)
REMARK    1  A    between atoms: C_1  and  O_2
REMARK    2  A    between atoms: O_2  and  C_3
REMARK    3  A    between atoms: C_8  and  C_9
REMARK    4  A    between atoms: C_11  and  C_12
REMARK    5  A    between atoms: C_14  and  C_15
REMARK                            x       y       z     vdW  Elec       q    Type
REMARK                         _______ _______ _______ _____ _____    ______ ____
ROOT
ATOM      1  C   UNL     1      -3.583  11.461  17.160  0.00  0.00    +0.000 A 
ATOM      2  C   UNL     1      -4.897  11.534  16.716  0.00  0.00    +0.000 A 
ATOM      3  C   UNL     1      -5.889  11.899  17.623  0.00  0.00    +0.000 A 
ATOM      4  C   UNL     1      -5.557  12.198  18.941  0.00  0.00    +0.000 A 
ATOM      5  N   UNL     1      -6.595  12.563  19.815  0.00  0.00    +0.000 NA
ATOM      6  C   UNL     1      -6.303  12.884  21.037  0.00  0.00    +0.000 A 
ATOM      7  C   UNL     1      -7.439  13.251  21.950  0.00  0.00    +0.000 C 
ATOM      8  C   UNL     1      -4.936  12.887  21.494  0.00  0.00    +0.000 A 
ATOM      9  C   UNL     1      -4.322  13.190  22.689  0.00  0.00    +0.000 A 
ATOM     10  C   UNL     1      -4.849  13.602  24.012  0.00  0.00    +0.000 C 
ATOM     11  N   UNL     1      -2.962  13.061  22.557  0.00  0.00    +0.000 NA
ATOM     12  C   UNL     1      -2.711  12.620  21.333  0.00  0.00    +0.000 A 
ATOM     13  N   UNL     1      -3.911  12.509  20.632  0.00  0.00    +0.000 N 
ATOM     14  C   UNL     1      -4.209  12.111  19.299  0.00  0.00    +0.000 A 
ATOM     15  N   UNL     1      -3.235  11.723  18.441  0.00  0.00    +0.000 NA
ENDROOT
BRANCH  12  16
ATOM     16  C   UNL     1      -1.344  12.302  20.869  0.00  0.00    +0.000 A 
ATOM     17  C   UNL     1      -0.824  11.005  21.010  0.00  0.00    +0.000 A 
ATOM     18  C   UNL     1       0.501  10.715  20.682  0.00  0.00    +0.000 A 
ATOM     19 CL   UNL     1       1.145   9.158  21.034  0.00  0.00    +0.000 Cl
ATOM     20  C   UNL     1       1.311  11.681  20.096  0.00  0.00    +0.000 A 
ATOM     21  C   UNL     1       0.785  12.945  19.842  0.00  0.00    +0.000 A 
ATOM     22  C   UNL     1      -0.525  13.263  20.234  0.00  0.00    +0.000 A 
ATOM     23 CL   UNL     1      -1.036  14.888  19.915  0.00  0.00    +0.000 Cl
ENDBRANCH  12  16
BRANCH   1  25
ATOM     24  C   UNL     1      -2.862  10.443  15.154  0.00  0.00    +0.000 C 
ATOM     25  O   UNL     1      -2.530  11.092  16.375  0.00  0.00    +0.000 OA
ENDBRANCH   1  25
TORSDOF 2
ENDMDL
