MODEL 1
REMARK VINA RESULT:      -8.6      0.000      0.000
REMARK  Name = 
REMARK  8 active torsions:
REMARK  status: ('A' for Active; 'I' for Inactive)
REMARK    1  A    between atoms: C_1  and  C_2
REMARK    2  A    between atoms: C_5  and  C_6
REMARK    3  A    between atoms: C_7  and  N_8
REMARK    4  A    between atoms: N_11  and  CA_12
REMARK    5  A    between atoms: C_18  and  C_19
REMARK    6  A    between atoms: C_18  and  C_20
REMARK    7  A    between atoms: CA_21  and  C_22
REMARK    8  A    between atoms: C_22  and  OXT_24
REMARK                            x       y       z     vdW  Elec       q    Type
REMARK                         _______ _______ _______ _____ _____    ______ ____
ROOT
ATOM      1  N   UNL     1       8.326   7.836  18.559  0.00  0.00    +0.000 N 
ATOM      2  C   UNL     1       7.173   7.422  17.934  0.00  0.00    +0.000 C 
ATOM      3  O   UNL     1       6.590   8.061  17.065  0.00  0.00    +0.000 OA
ATOM      4  N   UNL     1       6.681   6.228  18.399  0.00  0.00    +0.000 N 
ATOM      5  H   UNL     1       8.749   7.257  19.269  0.00  0.00    +0.000 HD
ATOM      6  H   UNL     1       7.219   5.688  19.060  0.00  0.00    +0.000 HD
ENDROOT
BRANCH   4   7
ATOM      7  CA  UNL     1       5.349   5.744  17.915  0.00  0.00    +0.000 C 
ATOM      8  C   UNL     1       5.342   4.296  17.273  0.00  0.00    +0.000 C 
ATOM      9  O   UNL     1       5.830   3.668  16.370  0.00  0.00    +0.000 OA
ATOM     10  N   UNL     1       4.443   3.904  18.182  0.00  0.00    +0.000 N 
ATOM     11  C   UNL     1       4.487   5.070  19.028  0.00  0.00    +0.000 C 
ATOM     12  S   UNL     1       2.715   5.413  19.185  0.00  0.00    +0.000 S 
ATOM     13  C   UNL     1       2.275   3.572  19.074  0.00  0.00    +0.000 C 
ATOM     14  C   UNL     1       1.860   3.100  20.467  0.00  0.00    +0.000 C 
ATOM     15  C   UNL     1       1.052   3.515  18.143  0.00  0.00    +0.000 C 
ATOM     16  CA  UNL     1       3.499   2.852  18.434  0.00  0.00    +0.000 C 
BRANCH  16  17
ATOM     17  C   UNL     1       4.355   1.872  19.248  0.00  0.00    +0.000 C 
ATOM     18  O   UNL     1       4.988   2.124  20.262  0.00  0.00    +0.000 OA
BRANCH  17  19
ATOM     19  OXT UNL     1       4.413   0.636  18.676  0.00  0.00    +0.000 OA
ATOM     20  HXT UNL     1       3.705   0.025  18.982  0.00  0.00    +0.000 HD
ENDBRANCH  17  19
ENDBRANCH  16  17
ENDBRANCH   4   7
BRANCH   1  22
ATOM     21  C   UNL     1       9.258   9.969  19.136  0.00  0.00    +0.000 C 
ATOM     22  C   UNL     1       8.919   9.035  18.238  0.00  0.00    +0.000 C 
BRANCH  21  27
ATOM     23  C   UNL     1      11.936  14.893  17.630  0.00  0.00    +0.000 C 
ATOM     24  C   UNL     1      11.251  13.618  18.023  0.00  0.00    +0.000 A 
ATOM     25  C   UNL     1      11.873  12.680  18.854  0.00  0.00    +0.000 A 
ATOM     26  C   UNL     1      11.215  11.497  19.213  0.00  0.00    +0.000 A 
ATOM     27  C   UNL     1       9.920  11.231  18.755  0.00  0.00    +0.000 A 
ATOM     28  C   UNL     1       9.312  12.166  17.904  0.00  0.00    +0.000 A 
ATOM     29  C   UNL     1       9.965  13.349  17.548  0.00  0.00    +0.000 A 
ENDBRANCH  21  27
ENDBRANCH   1  22
TORSDOF 5
ENDMDL
MODEL 2
REMARK VINA RESULT:      -8.2      1.043      1.128
REMARK  Name = 
REMARK  8 active torsions:
REMARK  status: ('A' for Active; 'I' for Inactive)
REMARK    1  A    between atoms: C_1  and  C_2
REMARK    2  A    between atoms: C_5  and  C_6
REMARK    3  A    between atoms: C_7  and  N_8
REMARK    4  A    between atoms: N_11  and  CA_12
REMARK    5  A    between atoms: C_18  and  C_19
REMARK    6  A    between atoms: C_18  and  C_20
REMARK    7  A    between atoms: CA_21  and  C_22
REMARK    8  A    between atoms: C_22  and  OXT_24
REMARK                            x       y       z     vdW  Elec       q    Type
REMARK                         _______ _______ _______ _____ _____    ______ ____
ROOT
ATOM      1  N   UNL     1       7.783   7.575  17.739  0.00  0.00    +0.000 N 
ATOM      2  C   UNL     1       6.440   7.282  17.666  0.00  0.00    +0.000 C 
ATOM      3  O   UNL     1       5.546   8.118  17.733  0.00  0.00    +0.000 OA
ATOM      4  N   UNL     1       6.164   5.942  17.558  0.00  0.00    +0.000 N 
ATOM      5  H   UNL     1       8.463   6.833  17.680  0.00  0.00    +0.000 HD
ATOM      6  H   UNL     1       6.918   5.284  17.431  0.00  0.00    +0.000 HD
ENDROOT
BRANCH   4   7
ATOM      7  CA  UNL     1       4.742   5.477  17.630  0.00  0.00    +0.000 C 
ATOM      8  C   UNL     1       4.483   3.998  17.127  0.00  0.00    +0.000 C 
ATOM      9  O   UNL     1       4.595   3.306  16.148  0.00  0.00    +0.000 OA
ATOM     10  N   UNL     1       3.979   3.685  18.325  0.00  0.00    +0.000 N 
ATOM     11  C   UNL     1       4.345   4.893  19.022  0.00  0.00    +0.000 C 
ATOM     12  S   UNL     1       2.761   5.302  19.798  0.00  0.00    +0.000 S 
ATOM     13  C   UNL     1       2.290   3.474  19.972  0.00  0.00    +0.000 C 
ATOM     14  C   UNL     1       2.414   3.091  21.447  0.00  0.00    +0.000 C 
ATOM     15  C   UNL     1       0.809   3.407  19.562  0.00  0.00    +0.000 C 
ATOM     16  CA  UNL     1       3.183   2.681  18.972  0.00  0.00    +0.000 C 
BRANCH  16  17
ATOM     17  C   UNL     1       4.269   1.717  19.473  0.00  0.00    +0.000 C 
ATOM     18  O   UNL     1       5.012   1.888  20.427  0.00  0.00    +0.000 OA
BRANCH  17  19
ATOM     19  OXT UNL     1       4.393   0.618  18.678  0.00  0.00    +0.000 OA
ATOM     20  HXT UNL     1       5.280   0.194  18.724  0.00  0.00    +0.000 HD
ENDBRANCH  17  19
ENDBRANCH  16  17
ENDBRANCH   4   7
BRANCH   1  22
ATOM     21  C   UNL     1       8.972   9.288  18.923  0.00  0.00    +0.000 C 
ATOM     22  C   UNL     1       8.221   8.869  17.896  0.00  0.00    +0.000 C 
BRANCH  21  27
ATOM     23  C   UNL     1      10.888  14.741  19.455  0.00  0.00    +0.000 C 
ATOM     24  C   UNL     1      10.394  13.330  19.327  0.00  0.00    +0.000 A 
ATOM     25  C   UNL     1      10.031  12.578  20.449  0.00  0.00    +0.000 A 
ATOM     26  C   UNL     1       9.567  11.263  20.307  0.00  0.00    +0.000 A 
ATOM     27  C   UNL     1       9.448  10.679  19.041  0.00  0.00    +0.000 A 
ATOM     28  C   UNL     1       9.834  11.433  17.923  0.00  0.00    +0.000 A 
ATOM     29  C   UNL     1      10.294  12.746  18.062  0.00  0.00    +0.000 A 
ENDBRANCH  21  27
ENDBRANCH   1  22
TORSDOF 5
ENDMDL
MODEL 3
REMARK VINA RESULT:      -8.1      0.981      1.295
REMARK  Name = 
REMARK  8 active torsions:
REMARK  status: ('A' for Active; 'I' for Inactive)
REMARK    1  A    between atoms: C_1  and  C_2
REMARK    2  A    between atoms: C_5  and  C_6
REMARK    3  A    between atoms: C_7  and  N_8
REMARK    4  A    between atoms: N_11  and  CA_12
REMARK    5  A    between atoms: C_18  and  C_19
REMARK    6  A    between atoms: C_18  and  C_20
REMARK    7  A    between atoms: CA_21  and  C_22
REMARK    8  A    between atoms: C_22  and  OXT_24
REMARK                            x       y       z     vdW  Elec       q    Type
REMARK                         _______ _______ _______ _____ _____    ______ ____
ROOT
ATOM      1  N   UNL     1       7.896   7.683  17.772  0.00  0.00    +0.000 N 
ATOM      2  C   UNL     1       6.597   7.329  17.491  0.00  0.00    +0.000 C 
ATOM      3  O   UNL     1       5.670   8.125  17.389  0.00  0.00    +0.000 OA
ATOM      4  N   UNL     1       6.396   5.976  17.376  0.00  0.00    +0.000 N 
ATOM      5  H   UNL     1       8.607   6.971  17.844  0.00  0.00    +0.000 HD
ATOM      6  H   UNL     1       7.188   5.349  17.390  0.00  0.00    +0.000 HD
ENDROOT
BRANCH   4   7
ATOM      7  CA  UNL     1       5.002   5.450  17.229  0.00  0.00    +0.000 C 
ATOM      8  C   UNL     1       4.890   3.924  16.819  0.00  0.00    +0.000 C 
ATOM      9  O   UNL     1       5.204   3.162  15.941  0.00  0.00    +0.000 OA
ATOM     10  N   UNL     1       4.184   3.684  17.929  0.00  0.00    +0.000 N 
ATOM     11  C   UNL     1       4.375   4.960  18.572  0.00  0.00    +0.000 C 
ATOM     12  S   UNL     1       2.662   5.352  19.009  0.00  0.00    +0.000 S 
ATOM     13  C   UNL     1       2.228   3.523  19.254  0.00  0.00    +0.000 C 
ATOM     14  C   UNL     1       2.090   3.266  20.755  0.00  0.00    +0.000 C 
ATOM     15  C   UNL     1       0.851   3.352  18.591  0.00  0.00    +0.000 C 
ATOM     16  CA  UNL     1       3.316   2.697  18.506  0.00  0.00    +0.000 C 
BRANCH  16  17
ATOM     17  C   UNL     1       4.322   1.830  19.279  0.00  0.00    +0.000 C 
ATOM     18  O   UNL     1       4.994   2.174  20.239  0.00  0.00    +0.000 OA
BRANCH  17  19
ATOM     19  OXT UNL     1       4.467   0.591  18.730  0.00  0.00    +0.000 OA
ATOM     20  HXT UNL     1       4.103   0.517  17.819  0.00  0.00    +0.000 HD
ENDBRANCH  17  19
ENDBRANCH  16  17
ENDBRANCH   4   7
BRANCH   1  22
ATOM     21  C   UNL     1       9.016   9.431  18.973  0.00  0.00    +0.000 C 
ATOM     22  C   UNL     1       8.250   8.999  17.963  0.00  0.00    +0.000 C 
BRANCH  21  27
ATOM     23  C   UNL     1      10.460  15.025  19.526  0.00  0.00    +0.000 C 
ATOM     24  C   UNL     1      10.083  13.581  19.375  0.00  0.00    +0.000 A 
ATOM     25  C   UNL     1       9.646  13.064  18.151  0.00  0.00    +0.000 A 
ATOM     26  C   UNL     1       9.302  11.711  18.030  0.00  0.00    +0.000 A 
ATOM     27  C   UNL     1       9.399  10.847  19.127  0.00  0.00    +0.000 A 
ATOM     28  C   UNL     1       9.818  11.378  20.355  0.00  0.00    +0.000 A 
ATOM     29  C   UNL     1      10.164  12.727  20.478  0.00  0.00    +0.000 A 
ENDBRANCH  21  27
ENDBRANCH   1  22
TORSDOF 5
ENDMDL
MODEL 4
REMARK VINA RESULT:      -7.5      6.938      8.544
REMARK  Name = 
REMARK  8 active torsions:
REMARK  status: ('A' for Active; 'I' for Inactive)
REMARK    1  A    between atoms: C_1  and  C_2
REMARK    2  A    between atoms: C_5  and  C_6
REMARK    3  A    between atoms: C_7  and  N_8
REMARK    4  A    between atoms: N_11  and  CA_12
REMARK    5  A    between atoms: C_18  and  C_19
REMARK    6  A    between atoms: C_18  and  C_20
REMARK    7  A    between atoms: CA_21  and  C_22
REMARK    8  A    between atoms: C_22  and  OXT_24
REMARK                            x       y       z     vdW  Elec       q    Type
REMARK                         _______ _______ _______ _____ _____    ______ ____
ROOT
ATOM      1  N   UNL     1       1.278   9.341  22.042  0.00  0.00    +0.000 N 
ATOM      2  C   UNL     1       1.210   8.534  20.930  0.00  0.00    +0.000 C 
ATOM      3  O   UNL     1       0.508   8.764  19.951  0.00  0.00    +0.000 OA
ATOM      4  N   UNL     1       1.969   7.395  21.016  0.00  0.00    +0.000 N 
ATOM      5  H   UNL     1       1.876   9.085  22.813  0.00  0.00    +0.000 HD
ATOM      6  H   UNL     1       2.594   7.267  21.799  0.00  0.00    +0.000 HD
ENDROOT
BRANCH   4   7
ATOM      7  CA  UNL     1       1.861   6.356  19.943  0.00  0.00    +0.000 C 
ATOM      8  C   UNL     1       2.878   6.513  18.739  0.00  0.00    +0.000 C 
ATOM      9  O   UNL     1       3.196   7.287  17.873  0.00  0.00    +0.000 OA
ATOM     10  N   UNL     1       3.355   5.290  18.991  0.00  0.00    +0.000 N 
ATOM     11  C   UNL     1       2.677   5.060  20.242  0.00  0.00    +0.000 C 
ATOM     12  S   UNL     1       1.985   3.417  19.929  0.00  0.00    +0.000 S 
ATOM     13  C   UNL     1       3.448   2.929  18.827  0.00  0.00    +0.000 C 
ATOM     14  C   UNL     1       4.313   1.935  19.602  0.00  0.00    +0.000 C 
ATOM     15  C   UNL     1       2.814   2.208  17.626  0.00  0.00    +0.000 C 
ATOM     16  CA  UNL     1       4.140   4.252  18.384  0.00  0.00    +0.000 C 
BRANCH  16  17
ATOM     17  C   UNL     1       5.548   4.614  18.879  0.00  0.00    +0.000 C 
ATOM     18  O   UNL     1       5.827   5.390  19.780  0.00  0.00    +0.000 OA
BRANCH  17  19
ATOM     19  OXT UNL     1       6.526   4.015  18.143  0.00  0.00    +0.000 OA
ATOM     20  HXT UNL     1       7.409   4.024  18.577  0.00  0.00    +0.000 HD
ENDBRANCH  17  19
ENDBRANCH  16  17
ENDBRANCH   4   7
BRANCH   1  22
ATOM     21  C   UNL     1      -0.627  10.596  22.784  0.00  0.00    +0.000 C 
ATOM     22  C   UNL     1       0.538  10.497  22.129  0.00  0.00    +0.000 C 
BRANCH  21  27
ATOM     23  C   UNL     1      -3.609  15.554  23.236  0.00  0.00    +0.000 C 
ATOM     24  C   UNL     1      -2.845  14.268  23.125  0.00  0.00    +0.000 A 
ATOM     25  C   UNL     1      -3.400  13.050  23.529  0.00  0.00    +0.000 A 
ATOM     26  C   UNL     1      -2.671  11.859  23.413  0.00  0.00    +0.000 A 
ATOM     27  C   UNL     1      -1.376  11.862  22.881  0.00  0.00    +0.000 A 
ATOM     28  C   UNL     1      -0.819  13.091  22.497  0.00  0.00    +0.000 A 
ATOM     29  C   UNL     1      -1.546  14.280  22.609  0.00  0.00    +0.000 A 
ENDBRANCH  21  27
ENDBRANCH   1  22
TORSDOF 5
ENDMDL
MODEL 5
REMARK VINA RESULT:      -7.4      1.400      1.574
REMARK  Name = 
REMARK  8 active torsions:
REMARK  status: ('A' for Active; 'I' for Inactive)
REMARK    1  A    between atoms: C_1  and  C_2
REMARK    2  A    between atoms: C_5  and  C_6
REMARK    3  A    between atoms: C_7  and  N_8
REMARK    4  A    between atoms: N_11  and  CA_12
REMARK    5  A    between atoms: C_18  and  C_19
REMARK    6  A    between atoms: C_18  and  C_20
REMARK    7  A    between atoms: CA_21  and  C_22
REMARK    8  A    between atoms: C_22  and  OXT_24
REMARK                            x       y       z     vdW  Elec       q    Type
REMARK                         _______ _______ _______ _____ _____    ______ ____
ROOT
ATOM      1  N   UNL     1       7.894   7.962  17.330  0.00  0.00    +0.000 N 
ATOM      2  C   UNL     1       6.594   7.523  17.231  0.00  0.00    +0.000 C 
ATOM      3  O   UNL     1       5.652   8.006  17.850  0.00  0.00    +0.000 OA
ATOM      4  N   UNL     1       6.429   6.443  16.400  0.00  0.00    +0.000 N 
ATOM      5  H   UNL     1       8.619   7.512  16.791  0.00  0.00    +0.000 HD
ATOM      6  H   UNL     1       7.206   6.113  15.847  0.00  0.00    +0.000 HD
ENDROOT
BRANCH   4   7
ATOM      7  CA  UNL     1       5.093   5.771  16.327  0.00  0.00    +0.000 C 
ATOM      8  C   UNL     1       5.128   4.187  16.298  0.00  0.00    +0.000 C 
ATOM      9  O   UNL     1       5.557   3.269  15.649  0.00  0.00    +0.000 OA
ATOM     10  N   UNL     1       4.373   4.157  17.401  0.00  0.00    +0.000 N 
ATOM     11  C   UNL     1       4.421   5.563  17.720  0.00  0.00    +0.000 C 
ATOM     12  S   UNL     1       2.658   5.889  17.973  0.00  0.00    +0.000 S 
ATOM     13  C   UNL     1       2.355   4.140  18.640  0.00  0.00    +0.000 C 
ATOM     14  C   UNL     1       2.142   4.240  20.151  0.00  0.00    +0.000 C 
ATOM     15  C   UNL     1       1.041   3.688  17.980  0.00  0.00    +0.000 C 
ATOM     16  CA  UNL     1       3.551   3.262  18.166  0.00  0.00    +0.000 C 
BRANCH  16  17
ATOM     17  C   UNL     1       4.570   2.703  19.169  0.00  0.00    +0.000 C 
ATOM     18  O   UNL     1       5.399   3.342  19.799  0.00  0.00    +0.000 OA
BRANCH  17  19
ATOM     19  OXT UNL     1       4.521   1.344  19.256  0.00  0.00    +0.000 OA
ATOM     20  HXT UNL     1       3.607   0.980  19.244  0.00  0.00    +0.000 HD
ENDBRANCH  17  19
ENDBRANCH  16  17
ENDBRANCH   4   7
BRANCH   1  22
ATOM     21  C   UNL     1       8.983  10.050  17.784  0.00  0.00    +0.000 C 
ATOM     22  C   UNL     1       8.232   9.007  18.159  0.00  0.00    +0.000 C 
BRANCH  21  27
ATOM     23  C   UNL     1      10.288  14.401  21.397  0.00  0.00    +0.000 C 
ATOM     24  C   UNL     1       9.955  13.270  20.469  0.00  0.00    +0.000 A 
ATOM     25  C   UNL     1      10.074  11.935  20.870  0.00  0.00    +0.000 A 
ATOM     26  C   UNL     1       9.753  10.894  19.989  0.00  0.00    +0.000 A 
ATOM     27  C   UNL     1       9.299  11.167  18.694  0.00  0.00    +0.000 A 
ATOM     28  C   UNL     1       9.203  12.507  18.293  0.00  0.00    +0.000 A 
ATOM     29  C   UNL     1       9.518  13.548  19.171  0.00  0.00    +0.000 A 
ENDBRANCH  21  27
ENDBRANCH   1  22
TORSDOF 5
ENDMDL
MODEL 6
REMARK VINA RESULT:      -7.3      1.494      1.614
REMARK  Name = 
REMARK  8 active torsions:
REMARK  status: ('A' for Active; 'I' for Inactive)
REMARK    1  A    between atoms: C_1  and  C_2
REMARK    2  A    between atoms: C_5  and  C_6
REMARK    3  A    between atoms: C_7  and  N_8
REMARK    4  A    between atoms: N_11  and  CA_12
REMARK    5  A    between atoms: C_18  and  C_19
REMARK    6  A    between atoms: C_18  and  C_20
REMARK    7  A    between atoms: CA_21  and  C_22
REMARK    8  A    between atoms: C_22  and  OXT_24
REMARK                            x       y       z     vdW  Elec       q    Type
REMARK                         _______ _______ _______ _____ _____    ______ ____
ROOT
ATOM      1  N   UNL     1       8.432   8.372  17.965  0.00  0.00    +0.000 N 
ATOM      2  C   UNL     1       7.176   8.032  17.520  0.00  0.00    +0.000 C 
ATOM      3  O   UNL     1       6.216   8.795  17.508  0.00  0.00    +0.000 OA
ATOM      4  N   UNL     1       7.058   6.724  17.121  0.00  0.00    +0.000 N 
ATOM      5  H   UNL     1       9.174   7.689  17.948  0.00  0.00    +0.000 HD
ATOM      6  H   UNL     1       7.879   6.139  17.071  0.00  0.00    +0.000 HD
ENDROOT
BRANCH   4   7
ATOM      7  CA  UNL     1       5.708   6.183  16.765  0.00  0.00    +0.000 C 
ATOM      8  C   UNL     1       5.640   4.618  16.530  0.00  0.00    +0.000 C 
ATOM      9  O   UNL     1       6.102   3.753  15.832  0.00  0.00    +0.000 OA
ATOM     10  N   UNL     1       4.723   4.519  17.497  0.00  0.00    +0.000 N 
ATOM     11  C   UNL     1       4.815   5.865  18.005  0.00  0.00    +0.000 C 
ATOM     12  S   UNL     1       3.060   6.309  18.041  0.00  0.00    +0.000 S 
ATOM     13  C   UNL     1       2.540   4.525  18.416  0.00  0.00    +0.000 C 
ATOM     14  C   UNL     1       2.102   4.457  19.879  0.00  0.00    +0.000 C 
ATOM     15  C   UNL     1       1.318   4.272  17.518  0.00  0.00    +0.000 C 
ATOM     16  CA  UNL     1       3.733   3.612  18.007  0.00  0.00    +0.000 C 
BRANCH  16  17
ATOM     17  C   UNL     1       4.545   2.848  19.064  0.00  0.00    +0.000 C 
ATOM     18  O   UNL     1       5.383   3.316  19.818  0.00  0.00    +0.000 OA
BRANCH  17  19
ATOM     19  OXT UNL     1       4.290   1.509  19.045  0.00  0.00    +0.000 OA
ATOM     20  HXT UNL     1       4.218   1.133  18.138  0.00  0.00    +0.000 HD
ENDBRANCH  17  19
ENDBRANCH  16  17
ENDBRANCH   4   7
BRANCH   1  22
ATOM     21  C   UNL     1       9.577   9.896  19.421  0.00  0.00    +0.000 C 
ATOM     22  C   UNL     1       8.701   9.634  18.442  0.00  0.00    +0.000 C 
BRANCH  21  27
ATOM     23  C   UNL     1      10.725  15.310  21.171  0.00  0.00    +0.000 C 
ATOM     24  C   UNL     1      10.436  13.911  20.713  0.00  0.00    +0.000 A 
ATOM     25  C   UNL     1      11.346  13.195  19.929  0.00  0.00    +0.000 A 
ATOM     26  C   UNL     1      11.058  11.888  19.515  0.00  0.00    +0.000 A 
ATOM     27  C   UNL     1       9.860  11.267  19.884  0.00  0.00    +0.000 A 
ATOM     28  C   UNL     1       8.943  12.000  20.653  0.00  0.00    +0.000 A 
ATOM     29  C   UNL     1       9.229  13.303  21.070  0.00  0.00    +0.000 A 
ENDBRANCH  21  27
ENDBRANCH   1  22
TORSDOF 5
ENDMDL
MODEL 7
REMARK VINA RESULT:      -7.3      1.147      1.244
REMARK  Name = 
REMARK  8 active torsions:
REMARK  status: ('A' for Active; 'I' for Inactive)
REMARK    1  A    between atoms: C_1  and  C_2
REMARK    2  A    between atoms: C_5  and  C_6
REMARK    3  A    between atoms: C_7  and  N_8
REMARK    4  A    between atoms: N_11  and  CA_12
REMARK    5  A    between atoms: C_18  and  C_19
REMARK    6  A    between atoms: C_18  and  C_20
REMARK    7  A    between atoms: CA_21  and  C_22
REMARK    8  A    between atoms: C_22  and  OXT_24
REMARK                            x       y       z     vdW  Elec       q    Type
REMARK                         _______ _______ _______ _____ _____    ______ ____
ROOT
ATOM      1  N   UNL     1       8.584   8.346  18.477  0.00  0.00    +0.000 N 
ATOM      2  C   UNL     1       7.388   8.039  17.872  0.00  0.00    +0.000 C 
ATOM      3  O   UNL     1       6.533   8.865  17.571  0.00  0.00    +0.000 OA
ATOM      4  N   UNL     1       7.191   6.696  17.666  0.00  0.00    +0.000 N 
ATOM      5  H   UNL     1       9.238   7.611  18.700  0.00  0.00    +0.000 HD
ATOM      6  H   UNL     1       7.940   6.046  17.855  0.00  0.00    +0.000 HD
ENDROOT
BRANCH   4   7
ATOM      7  CA  UNL     1       5.866   6.216  17.161  0.00  0.00    +0.000 C 
ATOM      8  C   UNL     1       5.798   4.681  16.777  0.00  0.00    +0.000 C 
ATOM      9  O   UNL     1       6.302   3.875  16.038  0.00  0.00    +0.000 OA
ATOM     10  N   UNL     1       4.809   4.510  17.660  0.00  0.00    +0.000 N 
ATOM     11  C   UNL     1       4.877   5.802  18.296  0.00  0.00    +0.000 C 
ATOM     12  S   UNL     1       3.130   6.273  18.242  0.00  0.00    +0.000 S 
ATOM     13  C   UNL     1       2.563   4.472  18.410  0.00  0.00    +0.000 C 
ATOM     14  C   UNL     1       2.014   4.278  19.824  0.00  0.00    +0.000 C 
ATOM     15  C   UNL     1       1.409   4.326  17.403  0.00  0.00    +0.000 C 
ATOM     16  CA  UNL     1       3.773   3.578  18.007  0.00  0.00    +0.000 C 
BRANCH  16  17
ATOM     17  C   UNL     1       4.493   2.706  19.046  0.00  0.00    +0.000 C 
ATOM     18  O   UNL     1       5.255   3.090  19.920  0.00  0.00    +0.000 OA
BRANCH  17  19
ATOM     19  OXT UNL     1       4.254   1.377  18.862  0.00  0.00    +0.000 OA
ATOM     20  HXT UNL     1       3.314   1.168  18.661  0.00  0.00    +0.000 HD
ENDBRANCH  17  19
ENDBRANCH  16  17
ENDBRANCH   4   7
BRANCH   1  22
ATOM     21  C   UNL     1       9.593  10.465  17.985  0.00  0.00    +0.000 C 
ATOM     22  C   UNL     1       8.909   9.644  18.794  0.00  0.00    +0.000 C 
BRANCH  21  27
ATOM     23  C   UNL     1      10.812  15.936  19.489  0.00  0.00    +0.000 C 
ATOM     24  C   UNL     1      10.495  14.520  19.109  0.00  0.00    +0.000 A 
ATOM     25  C   UNL     1       9.923  13.629  20.022  0.00  0.00    +0.000 A 
ATOM     26  C   UNL     1       9.631  12.311  19.646  0.00  0.00    +0.000 A 
ATOM     27  C   UNL     1       9.897  11.862  18.348  0.00  0.00    +0.000 A 
ATOM     28  C   UNL     1      10.490  12.756  17.445  0.00  0.00    +0.000 A 
ATOM     29  C   UNL     1      10.779  14.072  17.816  0.00  0.00    +0.000 A 
ENDBRANCH  21  27
ENDBRANCH   1  22
TORSDOF 5
ENDMDL
MODEL 8
REMARK VINA RESULT:      -7.2      8.236     10.492
REMARK  Name = 
REMARK  8 active torsions:
REMARK  status: ('A' for Active; 'I' for Inactive)
REMARK    1  A    between atoms: C_1  and  C_2
REMARK    2  A    between atoms: C_5  and  C_6
REMARK    3  A    between atoms: C_7  and  N_8
REMARK    4  A    between atoms: N_11  and  CA_12
REMARK    5  A    between atoms: C_18  and  C_19
REMARK    6  A    between atoms: C_18  and  C_20
REMARK    7  A    between atoms: CA_21  and  C_22
REMARK    8  A    between atoms: C_22  and  OXT_24
REMARK                            x       y       z     vdW  Elec       q    Type
REMARK                         _______ _______ _______ _____ _____    ______ ____
ROOT
ATOM      1  N   UNL     1       1.580   8.494  19.516  0.00  0.00    +0.000 N 
ATOM      2  C   UNL     1       1.065   9.745  19.269  0.00  0.00    +0.000 C 
ATOM      3  O   UNL     1       1.245  10.376  18.233  0.00  0.00    +0.000 OA
ATOM      4  N   UNL     1       0.353  10.275  20.316  0.00  0.00    +0.000 N 
ATOM      5  H   UNL     1       1.392   8.037  20.395  0.00  0.00    +0.000 HD
ATOM      6  H   UNL     1       0.157   9.706  21.127  0.00  0.00    +0.000 HD
ENDROOT
BRANCH   4   7
ATOM      7  CA  UNL     1      -0.126  11.691  20.238  0.00  0.00    +0.000 C 
ATOM      8  C   UNL     1      -1.679  11.872  19.982  0.00  0.00    +0.000 C 
ATOM      9  O   UNL     1      -2.536  11.603  19.181  0.00  0.00    +0.000 OA
ATOM     10  N   UNL     1      -1.778  12.571  21.118  0.00  0.00    +0.000 N 
ATOM     11  C   UNL     1      -0.454  12.318  21.629  0.00  0.00    +0.000 C 
ATOM     12  S   UNL     1       0.052  14.007  22.044  0.00  0.00    +0.000 S 
ATOM     13  C   UNL     1      -1.725  14.512  22.474  0.00  0.00    +0.000 C 
ATOM     14  C   UNL     1      -1.826  14.637  23.994  0.00  0.00    +0.000 C 
ATOM     15  C   UNL     1      -1.902  15.904  21.846  0.00  0.00    +0.000 C 
ATOM     16  CA  UNL     1      -2.666  13.470  21.800  0.00  0.00    +0.000 C 
BRANCH  16  17
ATOM     17  C   UNL     1      -3.493  12.489  22.644  0.00  0.00    +0.000 C 
ATOM     18  O   UNL     1      -3.081  11.772  23.543  0.00  0.00    +0.000 OA
BRANCH  17  19
ATOM     19  OXT UNL     1      -4.793  12.425  22.238  0.00  0.00    +0.000 OA
ATOM     20  HXT UNL     1      -5.026  13.090  21.552  0.00  0.00    +0.000 HD
ENDBRANCH  17  19
ENDBRANCH  16  17
ENDBRANCH   4   7
BRANCH   1  22
ATOM     21  C   UNL     1       2.904   6.639  18.768  0.00  0.00    +0.000 C 
ATOM     22  C   UNL     1       2.357   7.848  18.582  0.00  0.00    +0.000 C 
BRANCH  21  27
ATOM     23  C   UNL     1       6.126   4.040  14.700  0.00  0.00    +0.000 C 
ATOM     24  C   UNL     1       5.298   4.720  15.750  0.00  0.00    +0.000 A 
ATOM     25  C   UNL     1       5.347   6.105  15.937  0.00  0.00    +0.000 A 
ATOM     26  C   UNL     1       4.563   6.721  16.921  0.00  0.00    +0.000 A 
ATOM     27  C   UNL     1       3.707   5.965  17.731  0.00  0.00    +0.000 A 
ATOM     28  C   UNL     1       3.679   4.575  17.551  0.00  0.00    +0.000 A 
ATOM     29  C   UNL     1       4.459   3.958  16.568  0.00  0.00    +0.000 A 
ENDBRANCH  21  27
ENDBRANCH   1  22
TORSDOF 5
ENDMDL
MODEL 9
REMARK VINA RESULT:      -7.2      3.943     10.676
REMARK  Name = 
REMARK  8 active torsions:
REMARK  status: ('A' for Active; 'I' for Inactive)
REMARK    1  A    between atoms: C_1  and  C_2
REMARK    2  A    between atoms: C_5  and  C_6
REMARK    3  A    between atoms: C_7  and  N_8
REMARK    4  A    between atoms: N_11  and  CA_12
REMARK    5  A    between atoms: C_18  and  C_19
REMARK    6  A    between atoms: C_18  and  C_20
REMARK    7  A    between atoms: CA_21  and  C_22
REMARK    8  A    between atoms: C_22  and  OXT_24
REMARK                            x       y       z     vdW  Elec       q    Type
REMARK                         _______ _______ _______ _____ _____    ______ ____
ROOT
ATOM      1  N   UNL     1       7.803   8.628  17.268  0.00  0.00    +0.000 N 
ATOM      2  C   UNL     1       8.595   9.314  18.159  0.00  0.00    +0.000 C 
ATOM      3  O   UNL     1       8.822   8.947  19.307  0.00  0.00    +0.000 OA
ATOM      4  N   UNL     1       9.090  10.498  17.674  0.00  0.00    +0.000 N 
ATOM      5  H   UNL     1       7.658   8.995  16.339  0.00  0.00    +0.000 HD
ATOM      6  H   UNL     1       8.950  10.740  16.704  0.00  0.00    +0.000 HD
ENDROOT
BRANCH   4   7
ATOM      7  CA  UNL     1       9.835  11.415  18.593  0.00  0.00    +0.000 C 
ATOM      8  C   UNL     1      10.643  12.581  17.887  0.00  0.00    +0.000 C 
ATOM      9  O   UNL     1      11.528  12.760  17.091  0.00  0.00    +0.000 OA
ATOM     10  N   UNL     1       9.944  13.480  18.586  0.00  0.00    +0.000 N 
ATOM     11  C   UNL     1       8.965  12.585  19.150  0.00  0.00    +0.000 C 
ATOM     12  S   UNL     1       9.051  13.079  20.890  0.00  0.00    +0.000 S 
ATOM     13  C   UNL     1       9.455  14.875  20.437  0.00  0.00    +0.000 C 
ATOM     14  C   UNL     1       8.214  15.724  20.712  0.00  0.00    +0.000 C 
ATOM     15  C   UNL     1      10.568  15.287  21.415  0.00  0.00    +0.000 C 
ATOM     16  CA  UNL     1       9.976  14.864  18.969  0.00  0.00    +0.000 C 
BRANCH  16  17
ATOM     17  C   UNL     1       9.162  15.506  17.835  0.00  0.00    +0.000 C 
ATOM     18  O   UNL     1       7.950  15.468  17.696  0.00  0.00    +0.000 OA
BRANCH  17  19
ATOM     19  OXT UNL     1       9.956  16.101  16.901  0.00  0.00    +0.000 OA
ATOM     20  HXT UNL     1       9.574  16.092  15.994  0.00  0.00    +0.000 HD
ENDBRANCH  17  19
ENDBRANCH  16  17
ENDBRANCH   4   7
BRANCH   1  22
ATOM     21  C   UNL     1       6.020   7.030  17.126  0.00  0.00    +0.000 C 
ATOM     22  C   UNL     1       7.194   7.446  17.620  0.00  0.00    +0.000 C 
BRANCH  21  27
ATOM     23  C   UNL     1       3.615   1.987  18.696  0.00  0.00    +0.000 C 
ATOM     24  C   UNL     1       4.238   3.292  18.299  0.00  0.00    +0.000 A 
ATOM     25  C   UNL     1       4.968   4.061  19.211  0.00  0.00    +0.000 A 
ATOM     26  C   UNL     1       5.546   5.276  18.819  0.00  0.00    +0.000 A 
ATOM     27  C   UNL     1       5.414   5.740  17.506  0.00  0.00    +0.000 A 
ATOM     28  C   UNL     1       4.662   4.974  16.603  0.00  0.00    +0.000 A 
ATOM     29  C   UNL     1       4.088   3.760  16.991  0.00  0.00    +0.000 A 
ENDBRANCH  21  27
ENDBRANCH   1  22
TORSDOF 5
ENDMDL
