MODEL 1
REMARK VINA RESULT:      -7.1      0.000      0.000
REMARK  Name = 
REMARK  9 active torsions:
REMARK  status: ('A' for Active; 'I' for Inactive)
REMARK    1  A    between atoms: C_1  and  N_2
REMARK    2  A    between atoms: N_2  and  C_3
REMARK    3  A    between atoms: N_9  and  C_10
REMARK    4  A    between atoms: C_10  and  C_11
REMARK    5  A    between atoms: C_12  and  C_13
REMARK    6  A    between atoms: C_12  and  C_14
REMARK    7  A    between atoms: C_15  and  C_16
REMARK    8  A    between atoms: C_16  and  C_17
REMARK    9  A    between atoms: C_17  and  O_18
REMARK                            x       y       z     vdW  Elec       q    Type
REMARK                         _______ _______ _______ _____ _____    ______ ____
ROOT
ATOM      1  C   UNL     1       2.530   4.747  20.433  0.00  0.00    +0.000 A 
ATOM      2  N   UNL     1       2.130   6.035  20.452  0.00  0.00    +0.000 NA
ATOM      3  C   UNL     1       2.314   6.811  19.354  0.00  0.00    +0.000 A 
ATOM      4  N   UNL     1       1.837   8.099  19.357  0.00  0.00    +0.000 N 
ATOM      5  C   UNL     1       1.948   8.934  18.167  0.00  0.00    +0.000 C 
ATOM      6  C   UNL     1       0.621   9.703  17.967  0.00  0.00    +0.000 C 
ATOM      7  N   UNL     1       0.165  10.504  19.138  0.00  0.00    +0.000 NA
ATOM      8  C   UNL     1       0.120   9.597  20.333  0.00  0.00    +0.000 C 
ATOM      9  C   UNL     1       1.425   8.769  20.584  0.00  0.00    +0.000 C 
ATOM     10  N   UNL     1       2.908   6.361  18.234  0.00  0.00    +0.000 NA
ATOM     11  C   UNL     1       3.297   5.087  18.250  0.00  0.00    +0.000 A 
ATOM     12  C   UNL     1       3.137   4.237  19.315  0.00  0.00    +0.000 A 
ATOM     13  C   UNL     1       3.580   2.856  18.985  0.00  0.00    +0.000 C 
ATOM     14  C   UNL     1       4.430   3.103  17.729  0.00  0.00    +0.000 C 
ATOM     15  C   UNL     1       3.874   4.370  17.065  0.00  0.00    +0.000 C 
ENDROOT
BRANCH   1  17
ATOM     16  C   UNL     1       1.249   2.899  21.324  0.00  0.00    +0.000 C 
ATOM     17  N   UNL     1       2.301   3.878  21.513  0.00  0.00    +0.000 N 
ATOM     18  H   UNL     1       2.175   4.424  22.362  0.00  0.00    +0.000 HD
ENDBRANCH   1  17
BRANCH   7  19
ATOM     19  C   UNL     1       1.009  11.692  19.343  0.00  0.00    +0.000 C 
BRANCH  19  20
ATOM     20  C   UNL     1       0.275  12.994  19.142  0.00  0.00    +0.000 C 
ATOM     21  C   UNL     1       0.804  14.202  18.855  0.00  0.00    +0.000 C 
ATOM     22  C   UNL     1       2.264  14.478  18.625  0.00  0.00    +0.000 C 
ATOM     23  C   UNL     1      -0.065  15.434  18.795  0.00  0.00    +0.000 C 
ENDBRANCH  19  20
ENDBRANCH   7  19
BRANCH   8  24
ATOM     24  C   UNL     1      -0.301  10.280  21.652  0.00  0.00    +0.000 C 
BRANCH  24  25
ATOM     25  C   UNL     1      -0.480   9.309  22.812  0.00  0.00    +0.000 C 
BRANCH  25  26
ATOM     26  O   UNL     1       0.395   9.680  23.874  0.00  0.00    +0.000 OA
ATOM     27  H   UNL     1       0.792   8.866  24.228  0.00  0.00    +0.000 HD
ENDBRANCH  25  26
ENDBRANCH  24  25
ENDBRANCH   8  24
TORSDOF 6
ENDMDL
MODEL 2
REMARK VINA RESULT:      -6.8      1.067      1.166
REMARK  Name = 
REMARK  9 active torsions:
REMARK  status: ('A' for Active; 'I' for Inactive)
REMARK    1  A    between atoms: C_1  and  N_2
REMARK    2  A    between atoms: N_2  and  C_3
REMARK    3  A    between atoms: N_9  and  C_10
REMARK    4  A    between atoms: C_10  and  C_11
REMARK    5  A    between atoms: C_12  and  C_13
REMARK    6  A    between atoms: C_12  and  C_14
REMARK    7  A    between atoms: C_15  and  C_16
REMARK    8  A    between atoms: C_16  and  C_17
REMARK    9  A    between atoms: C_17  and  O_18
REMARK                            x       y       z     vdW  Elec       q    Type
REMARK                         _______ _______ _______ _____ _____    ______ ____
ROOT
ATOM      1  C   UNL     1       2.734   4.601  19.533  0.00  0.00    +0.000 A 
ATOM      2  N   UNL     1       2.302   5.851  19.797  0.00  0.00    +0.000 NA
ATOM      3  C   UNL     1       2.618   6.864  18.950  0.00  0.00    +0.000 A 
ATOM      4  N   UNL     1       2.112   8.118  19.188  0.00  0.00    +0.000 N 
ATOM      5  C   UNL     1       2.366   9.210  18.256  0.00  0.00    +0.000 C 
ATOM      6  C   UNL     1       1.061  10.015  18.055  0.00  0.00    +0.000 C 
ATOM      7  N   UNL     1       0.425  10.520  19.305  0.00  0.00    +0.000 NA
ATOM      8  C   UNL     1       0.237   9.356  20.234  0.00  0.00    +0.000 C 
ATOM      9  C   UNL     1       1.515   8.482  20.467  0.00  0.00    +0.000 C 
ATOM     10  N   UNL     1       3.374   6.686  17.851  0.00  0.00    +0.000 NA
ATOM     11  C   UNL     1       3.790   5.442  17.623  0.00  0.00    +0.000 A 
ATOM     12  C   UNL     1       3.504   4.366  18.424  0.00  0.00    +0.000 A 
ATOM     13  C   UNL     1       4.025   3.098  17.845  0.00  0.00    +0.000 C 
ATOM     14  C   UNL     1       5.036   3.629  16.816  0.00  0.00    +0.000 C 
ATOM     15  C   UNL     1       4.545   5.020  16.397  0.00  0.00    +0.000 C 
ENDROOT
BRANCH   1  17
ATOM     16  C   UNL     1       1.059   2.953  20.101  0.00  0.00    +0.000 C 
ATOM     17  N   UNL     1       2.379   3.503  20.334  0.00  0.00    +0.000 N 
ATOM     18  H   UNL     1       2.535   3.737  21.312  0.00  0.00    +0.000 HD
ENDBRANCH   1  17
BRANCH   7  19
ATOM     19  C   UNL     1       1.201  11.619  19.901  0.00  0.00    +0.000 C 
BRANCH  19  20
ATOM     20  C   UNL     1       1.716  12.611  18.888  0.00  0.00    +0.000 C 
ATOM     21  C   UNL     1       2.535  13.661  19.105  0.00  0.00    +0.000 C 
ATOM     22  C   UNL     1       3.150  14.022  20.429  0.00  0.00    +0.000 C 
ATOM     23  C   UNL     1       2.868  14.627  17.996  0.00  0.00    +0.000 C 
ENDBRANCH  19  20
ENDBRANCH   7  19
BRANCH   8  24
ATOM     24  C   UNL     1      -0.382   9.712  21.603  0.00  0.00    +0.000 C 
BRANCH  24  25
ATOM     25  C   UNL     1       0.507   9.353  22.787  0.00  0.00    +0.000 C 
BRANCH  25  26
ATOM     26  O   UNL     1      -0.197   9.611  23.999  0.00  0.00    +0.000 OA
ATOM     27  H   UNL     1       0.306   9.205  24.725  0.00  0.00    +0.000 HD
ENDBRANCH  25  26
ENDBRANCH  24  25
ENDBRANCH   8  24
TORSDOF 6
ENDMDL
MODEL 3
REMARK VINA RESULT:      -6.8      2.465      4.187
REMARK  Name = 
REMARK  9 active torsions:
REMARK  status: ('A' for Active; 'I' for Inactive)
REMARK    1  A    between atoms: C_1  and  N_2
REMARK    2  A    between atoms: N_2  and  C_3
REMARK    3  A    between atoms: N_9  and  C_10
REMARK    4  A    between atoms: C_10  and  C_11
REMARK    5  A    between atoms: C_12  and  C_13
REMARK    6  A    between atoms: C_12  and  C_14
REMARK    7  A    between atoms: C_15  and  C_16
REMARK    8  A    between atoms: C_16  and  C_17
REMARK    9  A    between atoms: C_17  and  O_18
REMARK                            x       y       z     vdW  Elec       q    Type
REMARK                         _______ _______ _______ _____ _____    ______ ____
ROOT
ATOM      1  C   UNL     1       3.081   6.355  18.506  0.00  0.00    +0.000 A 
ATOM      2  N   UNL     1       2.416   7.477  18.850  0.00  0.00    +0.000 NA
ATOM      3  C   UNL     1       1.671   7.494  19.985  0.00  0.00    +0.000 A 
ATOM      4  N   UNL     1       1.057   8.663  20.365  0.00  0.00    +0.000 N 
ATOM      5  C   UNL     1       0.315   8.738  21.617  0.00  0.00    +0.000 C 
ATOM      6  C   UNL     1       0.651  10.074  22.321  0.00  0.00    +0.000 C 
ATOM      7  N   UNL     1       0.434  11.299  21.501  0.00  0.00    +0.000 NA
ATOM      8  C   UNL     1       1.184  11.133  20.211  0.00  0.00    +0.000 C 
ATOM      9  C   UNL     1       0.909   9.791  19.454  0.00  0.00    +0.000 C 
ATOM     10  N   UNL     1       1.540   6.423  20.787  0.00  0.00    +0.000 NA
ATOM     11  C   UNL     1       2.203   5.330  20.416  0.00  0.00    +0.000 A 
ATOM     12  C   UNL     1       2.984   5.237  19.292  0.00  0.00    +0.000 A 
ATOM     13  C   UNL     1       3.674   3.920  19.210  0.00  0.00    +0.000 C 
ATOM     14  C   UNL     1       2.852   3.087  20.207  0.00  0.00    +0.000 C 
ATOM     15  C   UNL     1       2.276   4.072  21.232  0.00  0.00    +0.000 C 
ENDROOT
BRANCH   1  17
ATOM     16  C   UNL     1       5.240   6.883  17.553  0.00  0.00    +0.000 C 
ATOM     17  N   UNL     1       3.923   6.301  17.383  0.00  0.00    +0.000 N 
ATOM     18  H   UNL     1       3.432   6.680  16.577  0.00  0.00    +0.000 HD
ENDBRANCH   1  17
BRANCH   7  19
ATOM     19  C   UNL     1      -0.999  11.574  21.308  0.00  0.00    +0.000 C 
BRANCH  19  20
ATOM     20  C   UNL     1      -1.749  11.796  22.598  0.00  0.00    +0.000 C 
ATOM     21  C   UNL     1      -2.980  12.326  22.755  0.00  0.00    +0.000 C 
ATOM     22  C   UNL     1      -3.885  12.764  21.637  0.00  0.00    +0.000 C 
ATOM     23  C   UNL     1      -3.543  12.582  24.130  0.00  0.00    +0.000 C 
ENDBRANCH  19  20
ENDBRANCH   7  19
BRANCH   8  24
ATOM     24  C   UNL     1       1.037  12.307  19.219  0.00  0.00    +0.000 C 
BRANCH  24  25
ATOM     25  C   UNL     1       2.366  12.823  18.683  0.00  0.00    +0.000 C 
BRANCH  25  26
ATOM     26  O   UNL     1       2.535  12.378  17.340  0.00  0.00    +0.000 OA
ATOM     27  H   UNL     1       2.892  11.474  17.371  0.00  0.00    +0.000 HD
ENDBRANCH  25  26
ENDBRANCH  24  25
ENDBRANCH   8  24
TORSDOF 6
ENDMDL
MODEL 4
REMARK VINA RESULT:      -6.8      1.195      1.463
REMARK  Name = 
REMARK  9 active torsions:
REMARK  status: ('A' for Active; 'I' for Inactive)
REMARK    1  A    between atoms: C_1  and  N_2
REMARK    2  A    between atoms: N_2  and  C_3
REMARK    3  A    between atoms: N_9  and  C_10
REMARK    4  A    between atoms: C_10  and  C_11
REMARK    5  A    between atoms: C_12  and  C_13
REMARK    6  A    between atoms: C_12  and  C_14
REMARK    7  A    between atoms: C_15  and  C_16
REMARK    8  A    between atoms: C_16  and  C_17
REMARK    9  A    between atoms: C_17  and  O_18
REMARK                            x       y       z     vdW  Elec       q    Type
REMARK                         _______ _______ _______ _____ _____    ______ ____
ROOT
ATOM      1  C   UNL     1       3.585   4.813  18.904  0.00  0.00    +0.000 A 
ATOM      2  N   UNL     1       2.934   5.920  19.319  0.00  0.00    +0.000 NA
ATOM      3  C   UNL     1       2.991   7.052  18.572  0.00  0.00    +0.000 A 
ATOM      4  N   UNL     1       2.265   8.150  18.965  0.00  0.00    +0.000 N 
ATOM      5  C   UNL     1       2.242   9.355  18.145  0.00  0.00    +0.000 C 
ATOM      6  C   UNL     1       0.794   9.897  18.088  0.00  0.00    +0.000 C 
ATOM      7  N   UNL     1       0.152  10.141  19.411  0.00  0.00    +0.000 NA
ATOM      8  C   UNL     1       0.255   8.879  20.217  0.00  0.00    +0.000 C 
ATOM      9  C   UNL     1       1.691   8.262  20.300  0.00  0.00    +0.000 C 
ATOM     10  N   UNL     1       3.696   7.137  17.430  0.00  0.00    +0.000 NA
ATOM     11  C   UNL     1       4.333   6.030  17.052  0.00  0.00    +0.000 A 
ATOM     12  C   UNL     1       4.314   4.846  17.745  0.00  0.00    +0.000 A 
ATOM     13  C   UNL     1       5.036   3.770  17.011  0.00  0.00    +0.000 C 
ATOM     14  C   UNL     1       5.856   4.590  16.003  0.00  0.00    +0.000 C 
ATOM     15  C   UNL     1       5.077   5.888  15.757  0.00  0.00    +0.000 C 
ENDROOT
BRANCH   1  17
ATOM     16  C   UNL     1       2.267   2.856  19.431  0.00  0.00    +0.000 C 
ATOM     17  N   UNL     1       3.502   3.594  19.598  0.00  0.00    +0.000 N 
ATOM     18  H   UNL     1       3.733   3.749  20.576  0.00  0.00    +0.000 HD
ENDBRANCH   1  17
BRANCH   7  19
ATOM     19  C   UNL     1       0.735  11.310  20.087  0.00  0.00    +0.000 C 
BRANCH  19  20
ATOM     20  C   UNL     1       0.100  12.618  19.683  0.00  0.00    +0.000 C 
ATOM     21  C   UNL     1       0.640  13.598  18.929  0.00  0.00    +0.000 C 
ATOM     22  C   UNL     1       2.000  13.550  18.287  0.00  0.00    +0.000 C 
ATOM     23  C   UNL     1      -0.091  14.898  18.708  0.00  0.00    +0.000 C 
ENDBRANCH  19  20
ENDBRANCH   7  19
BRANCH   8  24
ATOM     24  C   UNL     1      -0.334   8.968  21.641  0.00  0.00    +0.000 C 
BRANCH  24  25
ATOM     25  C   UNL     1       0.719   9.148  22.727  0.00  0.00    +0.000 C 
BRANCH  25  26
ATOM     26  O   UNL     1       0.156   9.885  23.809  0.00  0.00    +0.000 OA
ATOM     27  H   UNL     1       0.494  10.796  23.754  0.00  0.00    +0.000 HD
ENDBRANCH  25  26
ENDBRANCH  24  25
ENDBRANCH   8  24
TORSDOF 6
ENDMDL
MODEL 5
REMARK VINA RESULT:      -6.8      2.301      4.101
REMARK  Name = 
REMARK  9 active torsions:
REMARK  status: ('A' for Active; 'I' for Inactive)
REMARK    1  A    between atoms: C_1  and  N_2
REMARK    2  A    between atoms: N_2  and  C_3
REMARK    3  A    between atoms: N_9  and  C_10
REMARK    4  A    between atoms: C_10  and  C_11
REMARK    5  A    between atoms: C_12  and  C_13
REMARK    6  A    between atoms: C_12  and  C_14
REMARK    7  A    between atoms: C_15  and  C_16
REMARK    8  A    between atoms: C_16  and  C_17
REMARK    9  A    between atoms: C_17  and  O_18
REMARK                            x       y       z     vdW  Elec       q    Type
REMARK                         _______ _______ _______ _____ _____    ______ ____
ROOT
ATOM      1  C   UNL     1       3.104   6.207  19.024  0.00  0.00    +0.000 A 
ATOM      2  N   UNL     1       2.435   7.321  19.384  0.00  0.00    +0.000 NA
ATOM      3  C   UNL     1       1.560   7.273  20.421  0.00  0.00    +0.000 A 
ATOM      4  N   UNL     1       0.940   8.429  20.827  0.00  0.00    +0.000 N 
ATOM      5  C   UNL     1       0.055   8.428  21.986  0.00  0.00    +0.000 C 
ATOM      6  C   UNL     1       0.342   9.686  22.839  0.00  0.00    +0.000 C 
ATOM      7  N   UNL     1       0.261  10.983  22.110  0.00  0.00    +0.000 NA
ATOM      8  C   UNL     1       1.155  10.897  20.907  0.00  0.00    +0.000 C 
ATOM      9  C   UNL     1       0.934   9.634  20.008  0.00  0.00    +0.000 C 
ATOM     10  N   UNL     1       1.303   6.144  21.106  0.00  0.00    +0.000 NA
ATOM     11  C   UNL     1       1.975   5.061  20.721  0.00  0.00    +0.000 A 
ATOM     12  C   UNL     1       2.882   5.032  19.691  0.00  0.00    +0.000 A 
ATOM     13  C   UNL     1       3.537   3.700  19.577  0.00  0.00    +0.000 C 
ATOM     14  C   UNL     1       2.579   2.820  20.394  0.00  0.00    +0.000 C 
ATOM     15  C   UNL     1       1.912   3.738  21.427  0.00  0.00    +0.000 C 
ENDROOT
BRANCH   1  17
ATOM     16  C   UNL     1       4.131   7.416  17.199  0.00  0.00    +0.000 C 
ATOM     17  N   UNL     1       4.073   6.214  18.006  0.00  0.00    +0.000 N 
ATOM     18  H   UNL     1       3.975   5.373  17.443  0.00  0.00    +0.000 HD
ENDBRANCH   1  17
BRANCH   7  19
ATOM     19  C   UNL     1      -1.129  11.330  21.775  0.00  0.00    +0.000 C 
BRANCH  19  20
ATOM     20  C   UNL     1      -1.979  11.643  22.981  0.00  0.00    +0.000 C 
ATOM     21  C   UNL     1      -3.166  12.284  23.009  0.00  0.00    +0.000 C 
ATOM     22  C   UNL     1      -3.915  12.778  21.802  0.00  0.00    +0.000 C 
ATOM     23  C   UNL     1      -3.836  12.616  24.319  0.00  0.00    +0.000 C 
ENDBRANCH  19  20
ENDBRANCH   7  19
BRANCH   8  24
ATOM     24  C   UNL     1       1.162  12.154  20.011  0.00  0.00    +0.000 C 
BRANCH  24  25
ATOM     25  C   UNL     1       2.065  13.267  20.528  0.00  0.00    +0.000 C 
BRANCH  25  26
ATOM     26  O   UNL     1       1.520  13.791  21.736  0.00  0.00    +0.000 OA
ATOM     27  H   UNL     1       1.147  13.047  22.240  0.00  0.00    +0.000 HD
ENDBRANCH  25  26
ENDBRANCH  24  25
ENDBRANCH   8  24
TORSDOF 6
ENDMDL
MODEL 6
REMARK VINA RESULT:      -6.7      1.140      1.190
REMARK  Name = 
REMARK  9 active torsions:
REMARK  status: ('A' for Active; 'I' for Inactive)
REMARK    1  A    between atoms: C_1  and  N_2
REMARK    2  A    between atoms: N_2  and  C_3
REMARK    3  A    between atoms: N_9  and  C_10
REMARK    4  A    between atoms: C_10  and  C_11
REMARK    5  A    between atoms: C_12  and  C_13
REMARK    6  A    between atoms: C_12  and  C_14
REMARK    7  A    between atoms: C_15  and  C_16
REMARK    8  A    between atoms: C_16  and  C_17
REMARK    9  A    between atoms: C_17  and  O_18
REMARK                            x       y       z     vdW  Elec       q    Type
REMARK                         _______ _______ _______ _____ _____    ______ ____
ROOT
ATOM      1  C   UNL     1       1.693   4.253  20.039  0.00  0.00    +0.000 A 
ATOM      2  N   UNL     1       1.555   5.591  20.141  0.00  0.00    +0.000 NA
ATOM      3  C   UNL     1       2.141   6.399  19.221  0.00  0.00    +0.000 A 
ATOM      4  N   UNL     1       1.933   7.755  19.291  0.00  0.00    +0.000 N 
ATOM      5  C   UNL     1       2.483   8.643  18.274  0.00  0.00    +0.000 C 
ATOM      6  C   UNL     1       1.414   9.695  17.895  0.00  0.00    +0.000 C 
ATOM      7  N   UNL     1       0.854  10.475  19.035  0.00  0.00    +0.000 NA
ATOM      8  C   UNL     1       0.352   9.501  20.061  0.00  0.00    +0.000 C 
ATOM      9  C   UNL     1       1.375   8.392  20.477  0.00  0.00    +0.000 C 
ATOM     10  N   UNL     1       2.888   5.927  18.207  0.00  0.00    +0.000 NA
ATOM     11  C   UNL     1       3.011   4.602  18.139  0.00  0.00    +0.000 A 
ATOM     12  C   UNL     1       2.441   3.721  19.022  0.00  0.00    +0.000 A 
ATOM     13  C   UNL     1       2.678   2.308  18.616  0.00  0.00    +0.000 C 
ATOM     14  C   UNL     1       3.834   2.471  17.617  0.00  0.00    +0.000 C 
ATOM     15  C   UNL     1       3.706   3.879  17.023  0.00  0.00    +0.000 C 
ENDROOT
BRANCH   1  17
ATOM     16  C   UNL     1       1.901   2.727  21.903  0.00  0.00    +0.000 C 
ATOM     17  N   UNL     1       1.051   3.367  20.919  0.00  0.00    +0.000 N 
ATOM     18  H   UNL     1       0.506   2.697  20.383  0.00  0.00    +0.000 HD
ENDBRANCH   1  17
BRANCH   7  19
ATOM     19  C   UNL     1       1.836  11.429  19.573  0.00  0.00    +0.000 C 
BRANCH  19  20
ATOM     20  C   UNL     1       2.157  12.560  18.627  0.00  0.00    +0.000 C 
ATOM     21  C   UNL     1       2.733  13.744  18.922  0.00  0.00    +0.000 C 
ATOM     22  C   UNL     1       3.225  14.153  20.283  0.00  0.00    +0.000 C 
ATOM     23  C   UNL     1       2.884  14.816  17.872  0.00  0.00    +0.000 C 
ENDBRANCH  19  20
ENDBRANCH   7  19
BRANCH   8  24
ATOM     24  C   UNL     1      -0.234  10.145  21.336  0.00  0.00    +0.000 C 
BRANCH  24  25
ATOM     25  C   UNL     1       0.334   9.571  22.627  0.00  0.00    +0.000 C 
BRANCH  25  26
ATOM     26  O   UNL     1      -0.737   9.264  23.516  0.00  0.00    +0.000 OA
ATOM     27  H   UNL     1      -0.823   8.296  23.552  0.00  0.00    +0.000 HD
ENDBRANCH  25  26
ENDBRANCH  24  25
ENDBRANCH   8  24
TORSDOF 6
ENDMDL
MODEL 7
REMARK VINA RESULT:      -6.7      1.449      1.879
REMARK  Name = 
REMARK  9 active torsions:
REMARK  status: ('A' for Active; 'I' for Inactive)
REMARK    1  A    between atoms: C_1  and  N_2
REMARK    2  A    between atoms: N_2  and  C_3
REMARK    3  A    between atoms: N_9  and  C_10
REMARK    4  A    between atoms: C_10  and  C_11
REMARK    5  A    between atoms: C_12  and  C_13
REMARK    6  A    between atoms: C_12  and  C_14
REMARK    7  A    between atoms: C_15  and  C_16
REMARK    8  A    between atoms: C_16  and  C_17
REMARK    9  A    between atoms: C_17  and  O_18
REMARK                            x       y       z     vdW  Elec       q    Type
REMARK                         _______ _______ _______ _____ _____    ______ ____
ROOT
ATOM      1  C   UNL     1       3.579   4.829  19.099  0.00  0.00    +0.000 A 
ATOM      2  N   UNL     1       2.915   5.944  19.468  0.00  0.00    +0.000 NA
ATOM      3  C   UNL     1       2.942   7.038  18.664  0.00  0.00    +0.000 A 
ATOM      4  N   UNL     1       2.202   8.142  19.012  0.00  0.00    +0.000 N 
ATOM      5  C   UNL     1       2.146   9.304  18.134  0.00  0.00    +0.000 C 
ATOM      6  C   UNL     1       0.689   9.817  18.072  0.00  0.00    +0.000 C 
ATOM      7  N   UNL     1       0.061  10.117  19.390  0.00  0.00    +0.000 NA
ATOM      8  C   UNL     1       0.198   8.899  20.257  0.00  0.00    +0.000 C 
ATOM      9  C   UNL     1       1.645   8.311  20.349  0.00  0.00    +0.000 C 
ATOM     10  N   UNL     1       3.629   7.077  17.509  0.00  0.00    +0.000 NA
ATOM     11  C   UNL     1       4.279   5.963  17.177  0.00  0.00    +0.000 A 
ATOM     12  C   UNL     1       4.291   4.815  17.929  0.00  0.00    +0.000 A 
ATOM     13  C   UNL     1       5.021   3.716  17.239  0.00  0.00    +0.000 C 
ATOM     14  C   UNL     1       5.812   4.498  16.179  0.00  0.00    +0.000 C 
ATOM     15  C   UNL     1       5.007   5.769  15.879  0.00  0.00    +0.000 C 
ENDROOT
BRANCH   1  17
ATOM     16  C   UNL     1       2.227   3.014  19.950  0.00  0.00    +0.000 C 
ATOM     17  N   UNL     1       3.528   3.645  19.854  0.00  0.00    +0.000 N 
ATOM     18  H   UNL     1       3.947   3.811  20.766  0.00  0.00    +0.000 HD
ENDBRANCH   1  17
BRANCH   7  19
ATOM     19  C   UNL     1       0.633  11.329  19.998  0.00  0.00    +0.000 C 
BRANCH  19  20
ATOM     20  C   UNL     1      -0.285  12.525  19.934  0.00  0.00    +0.000 C 
ATOM     21  C   UNL     1      -0.958  13.102  20.951  0.00  0.00    +0.000 C 
ATOM     22  C   UNL     1      -0.880  12.682  22.393  0.00  0.00    +0.000 C 
ATOM     23  C   UNL     1      -1.926  14.231  20.697  0.00  0.00    +0.000 C 
ENDBRANCH  19  20
ENDBRANCH   7  19
BRANCH   8  24
ATOM     24  C   UNL     1      -0.373   9.051  21.684  0.00  0.00    +0.000 C 
BRANCH  24  25
ATOM     25  C   UNL     1       0.698   9.223  22.753  0.00  0.00    +0.000 C 
BRANCH  25  26
ATOM     26  O   UNL     1       0.085   9.651  23.966  0.00  0.00    +0.000 OA
ATOM     27  H   UNL     1      -0.687   9.081  24.125  0.00  0.00    +0.000 HD
ENDBRANCH  25  26
ENDBRANCH  24  25
ENDBRANCH   8  24
TORSDOF 6
ENDMDL
MODEL 8
REMARK VINA RESULT:      -6.5      2.109      7.440
REMARK  Name = 
REMARK  9 active torsions:
REMARK  status: ('A' for Active; 'I' for Inactive)
REMARK    1  A    between atoms: C_1  and  N_2
REMARK    2  A    between atoms: N_2  and  C_3
REMARK    3  A    between atoms: N_9  and  C_10
REMARK    4  A    between atoms: C_10  and  C_11
REMARK    5  A    between atoms: C_12  and  C_13
REMARK    6  A    between atoms: C_12  and  C_14
REMARK    7  A    between atoms: C_15  and  C_16
REMARK    8  A    between atoms: C_16  and  C_17
REMARK    9  A    between atoms: C_17  and  O_18
REMARK                            x       y       z     vdW  Elec       q    Type
REMARK                         _______ _______ _______ _____ _____    ______ ____
ROOT
ATOM      1  C   UNL     1       0.239  10.402  21.004  0.00  0.00    +0.000 A 
ATOM      2  N   UNL     1       0.769   9.244  20.559  0.00  0.00    +0.000 NA
ATOM      3  C   UNL     1       1.464   9.228  19.392  0.00  0.00    +0.000 A 
ATOM      4  N   UNL     1       2.062   8.061  18.986  0.00  0.00    +0.000 N 
ATOM      5  C   UNL     1       2.880   8.028  17.779  0.00  0.00    +0.000 C 
ATOM      6  C   UNL     1       4.153   7.193  18.057  0.00  0.00    +0.000 C 
ATOM      7  N   UNL     1       3.912   5.816  18.573  0.00  0.00    +0.000 NA
ATOM      8  C   UNL     1       3.027   5.921  19.782  0.00  0.00    +0.000 C 
ATOM      9  C   UNL     1       1.728   6.772  19.579  0.00  0.00    +0.000 C 
ATOM     10  N   UNL     1       1.634  10.323  18.630  0.00  0.00    +0.000 NA
ATOM     11  C   UNL     1       1.092  11.448  19.094  0.00  0.00    +0.000 A 
ATOM     12  C   UNL     1       0.387  11.547  20.267  0.00  0.00    +0.000 A 
ATOM     13  C   UNL     1       0.001  12.955  20.558  0.00  0.00    +0.000 C 
ATOM     14  C   UNL     1       0.193  13.611  19.181  0.00  0.00    +0.000 C 
ATOM     15  C   UNL     1       1.265  12.793  18.451  0.00  0.00    +0.000 C 
ENDROOT
BRANCH   1  17
ATOM     16  C   UNL     1      -0.060   9.499  23.227  0.00  0.00    +0.000 C 
ATOM     17  N   UNL     1      -0.427  10.492  22.238  0.00  0.00    +0.000 N 
ATOM     18  H   UNL     1      -1.431  10.526  22.076  0.00  0.00    +0.000 HD
ENDBRANCH   1  17
BRANCH   7  19
ATOM     19  C   UNL     1       3.366   4.935  17.529  0.00  0.00    +0.000 C 
BRANCH  19  20
ATOM     20  C   UNL     1       4.421   4.140  16.800  0.00  0.00    +0.000 C 
ATOM     21  C   UNL     1       5.249   4.570  15.826  0.00  0.00    +0.000 C 
ATOM     22  C   UNL     1       5.314   5.978  15.300  0.00  0.00    +0.000 C 
ATOM     23  C   UNL     1       6.177   3.613  15.119  0.00  0.00    +0.000 C 
ENDBRANCH  19  20
ENDBRANCH   7  19
BRANCH   8  24
ATOM     24  C   UNL     1       2.645   4.571  20.426  0.00  0.00    +0.000 C 
BRANCH  24  25
ATOM     25  C   UNL     1       1.143   4.335  20.503  0.00  0.00    +0.000 C 
BRANCH  25  26
ATOM     26  O   UNL     1       0.898   3.045  21.058  0.00  0.00    +0.000 OA
ATOM     27  H   UNL     1       0.550   2.479  20.348  0.00  0.00    +0.000 HD
ENDBRANCH  25  26
ENDBRANCH  24  25
ENDBRANCH   8  24
TORSDOF 6
ENDMDL
MODEL 9
REMARK VINA RESULT:      -6.4      2.218      7.354
REMARK  Name = 
REMARK  9 active torsions:
REMARK  status: ('A' for Active; 'I' for Inactive)
REMARK    1  A    between atoms: C_1  and  N_2
REMARK    2  A    between atoms: N_2  and  C_3
REMARK    3  A    between atoms: N_9  and  C_10
REMARK    4  A    between atoms: C_10  and  C_11
REMARK    5  A    between atoms: C_12  and  C_13
REMARK    6  A    between atoms: C_12  and  C_14
REMARK    7  A    between atoms: C_15  and  C_16
REMARK    8  A    between atoms: C_16  and  C_17
REMARK    9  A    between atoms: C_17  and  O_18
REMARK                            x       y       z     vdW  Elec       q    Type
REMARK                         _______ _______ _______ _____ _____    ______ ____
ROOT
ATOM      1  C   UNL     1       0.251   9.057  21.150  0.00  0.00    +0.000 A 
ATOM      2  N   UNL     1       0.917   8.003  20.633  0.00  0.00    +0.000 NA
ATOM      3  C   UNL     1       1.650   8.162  19.502  0.00  0.00    +0.000 A 
ATOM      4  N   UNL     1       2.383   7.102  19.025  0.00  0.00    +0.000 N 
ATOM      5  C   UNL     1       3.242   7.261  17.858  0.00  0.00    +0.000 C 
ATOM      6  C   UNL     1       4.585   6.540  18.121  0.00  0.00    +0.000 C 
ATOM      7  N   UNL     1       4.474   5.105  18.509  0.00  0.00    +0.000 NA
ATOM      8  C   UNL     1       3.541   5.012  19.681  0.00  0.00    +0.000 C 
ATOM      9  C   UNL     1       2.167   5.739  19.493  0.00  0.00    +0.000 C 
ATOM     10  N   UNL     1       1.730   9.332  18.843  0.00  0.00    +0.000 NA
ATOM     11  C   UNL     1       1.055  10.349  19.375  0.00  0.00    +0.000 A 
ATOM     12  C   UNL     1       0.302  10.271  20.519  0.00  0.00    +0.000 A 
ATOM     13  C   UNL     1      -0.240  11.601  20.910  0.00  0.00    +0.000 C 
ATOM     14  C   UNL     1      -0.071  12.392  19.603  0.00  0.00    +0.000 C 
ATOM     15  C   UNL     1       1.108  11.756  18.855  0.00  0.00    +0.000 C 
ENDROOT
BRANCH   1  17
ATOM     16  C   UNL     1       0.222   9.460  23.534  0.00  0.00    +0.000 C 
ATOM     17  N   UNL     1      -0.464   8.969  22.356  0.00  0.00    +0.000 N 
ATOM     18  H   UNL     1      -0.807   8.019  22.474  0.00  0.00    +0.000 HD
ENDBRANCH   1  17
BRANCH   7  19
ATOM     19  C   UNL     1       4.062   4.268  17.371  0.00  0.00    +0.000 C 
BRANCH  19  20
ATOM     20  C   UNL     1       5.202   3.890  16.458  0.00  0.00    +0.000 C 
ATOM     21  C   UNL     1       5.686   4.591  15.411  0.00  0.00    +0.000 C 
ATOM     22  C   UNL     1       5.199   5.945  14.974  0.00  0.00    +0.000 C 
ATOM     23  C   UNL     1       6.764   4.017  14.527  0.00  0.00    +0.000 C 
ENDBRANCH  19  20
ENDBRANCH   7  19
BRANCH   8  24
ATOM     24  C   UNL     1       3.282   3.578  20.192  0.00  0.00    +0.000 C 
BRANCH  24  25
ATOM     25  C   UNL     1       1.946   3.416  20.905  0.00  0.00    +0.000 C 
BRANCH  25  26
ATOM     26  O   UNL     1       2.177   3.213  22.296  0.00  0.00    +0.000 OA
ATOM     27  H   UNL     1       3.008   3.663  22.527  0.00  0.00    +0.000 HD
ENDBRANCH  25  26
ENDBRANCH  24  25
ENDBRANCH   8  24
TORSDOF 6
ENDMDL
