MODEL 1
REMARK VINA RESULT:      -7.0      0.000      0.000
REMARK  Name = 
REMARK  6 active torsions:
REMARK  status: ('A' for Active; 'I' for Inactive)
REMARK    1  A    between atoms: C_2  and  C_3
REMARK    2  A    between atoms: C_3  and  C_4
REMARK    3  A    between atoms: C_4  and  C_5
REMARK    4  A    between atoms: C_5  and  O_6
REMARK    5  A    between atoms: O_6  and  C_7
REMARK    6  A    between atoms: N_15  and  C_16
REMARK                            x       y       z     vdW  Elec       q    Type
REMARK                         _______ _______ _______ _____ _____    ______ ____
ROOT
ATOM      1  C   UNL     1       7.202   4.926  18.246  0.00  0.00    +0.000 C 
ENDROOT
BRANCH   1   3
ATOM      2  O   UNL     1       5.505   5.026  19.942  0.00  0.00    +0.000 OA
ATOM      3  C   UNL     1       5.842   4.608  18.838  0.00  0.00    +0.000 C 
ATOM      4  N   UNL     1       5.079   3.808  18.003  0.00  0.00    +0.000 N 
ATOM      5  H   UNL     1       5.542   3.399  17.201  0.00  0.00    +0.000 HD
BRANCH   4   6
ATOM      6  C   UNL     1       3.747   3.397  18.245  0.00  0.00    +0.000 A 
ATOM      7  C   UNL     1       3.396   2.394  19.143  0.00  0.00    +0.000 A 
ATOM      8  C   UNL     1       2.059   2.028  19.291  0.00  0.00    +0.000 A 
ATOM      9  C   UNL     1       1.105   2.689  18.538  0.00  0.00    +0.000 A 
ATOM     10  N   UNL     1       1.394   3.692  17.682  0.00  0.00    +0.000 NA
ATOM     11  C   UNL     1       2.705   4.023  17.560  0.00  0.00    +0.000 A 
ENDBRANCH   4   6
ENDBRANCH   1   3
BRANCH   1  12
ATOM     12  C   UNL     1       7.305   6.383  17.793  0.00  0.00    +0.000 C 
BRANCH  12  13
ATOM     13  C   UNL     1       6.818   6.529  16.356  0.00  0.00    +0.000 C 
BRANCH  13  14
ATOM     14  O   UNL     1       7.684   5.811  15.478  0.00  0.00    +0.000 OA
BRANCH  14  15
ATOM     15  C   UNL     1       7.059   5.013  14.549  0.00  0.00    +0.000 A 
ATOM     16  C   UNL     1       5.915   4.257  14.829  0.00  0.00    +0.000 A 
ATOM     17  C   UNL     1       5.312   3.483  13.837  0.00  0.00    +0.000 A 
ATOM     18  C   UNL     1       5.845   3.466  12.552  0.00  0.00    +0.000 A 
ATOM     19 CL   UNL     1       5.094   2.505  11.337  0.00  0.00    +0.000 Cl
ATOM     20  C   UNL     1       6.972   4.221  12.246  0.00  0.00    +0.000 A 
ATOM     21  C   UNL     1       7.574   4.997  13.241  0.00  0.00    +0.000 A 
ATOM     22 CL   UNL     1       8.976   5.916  12.813  0.00  0.00    +0.000 Cl
ENDBRANCH  14  15
ENDBRANCH  13  14
ENDBRANCH  12  13
ENDBRANCH   1  12
TORSDOF 6
ENDMDL
MODEL 2
REMARK VINA RESULT:      -7.0      1.052      1.242
REMARK  Name = 
REMARK  6 active torsions:
REMARK  status: ('A' for Active; 'I' for Inactive)
REMARK    1  A    between atoms: C_2  and  C_3
REMARK    2  A    between atoms: C_3  and  C_4
REMARK    3  A    between atoms: C_4  and  C_5
REMARK    4  A    between atoms: C_5  and  O_6
REMARK    5  A    between atoms: O_6  and  C_7
REMARK    6  A    between atoms: N_15  and  C_16
REMARK                            x       y       z     vdW  Elec       q    Type
REMARK                         _______ _______ _______ _____ _____    ______ ____
ROOT
ATOM      1  C   UNL     1       6.901   5.573  19.252  0.00  0.00    +0.000 C 
ENDROOT
BRANCH   1   3
ATOM      2  O   UNL     1       4.552   6.050  19.132  0.00  0.00    +0.000 OA
ATOM      3  C   UNL     1       5.434   5.198  19.173  0.00  0.00    +0.000 C 
ATOM      4  N   UNL     1       5.241   3.825  19.165  0.00  0.00    +0.000 N 
ATOM      5  H   UNL     1       6.043   3.243  19.372  0.00  0.00    +0.000 HD
BRANCH   4   6
ATOM      6  C   UNL     1       3.996   3.168  19.032  0.00  0.00    +0.000 A 
ATOM      7  C   UNL     1       3.467   2.745  17.817  0.00  0.00    +0.000 A 
ATOM      8  C   UNL     1       2.214   2.137  17.777  0.00  0.00    +0.000 A 
ATOM      9  C   UNL     1       1.527   1.958  18.964  0.00  0.00    +0.000 A 
ATOM     10  N   UNL     1       2.015   2.319  20.170  0.00  0.00    +0.000 NA
ATOM     11  C   UNL     1       3.237   2.909  20.174  0.00  0.00    +0.000 A 
ENDBRANCH   4   6
ENDBRANCH   1   3
BRANCH   1  12
ATOM     12  C   UNL     1       7.428   6.121  17.925  0.00  0.00    +0.000 C 
BRANCH  12  13
ATOM     13  C   UNL     1       7.572   4.998  16.905  0.00  0.00    +0.000 C 
BRANCH  13  14
ATOM     14  O   UNL     1       7.651   5.548  15.590  0.00  0.00    +0.000 OA
BRANCH  14  15
ATOM     15  C   UNL     1       6.995   4.841  14.610  0.00  0.00    +0.000 A 
ATOM     16  C   UNL     1       5.845   4.080  14.849  0.00  0.00    +0.000 A 
ATOM     17  C   UNL     1       5.210   3.401  13.808  0.00  0.00    +0.000 A 
ATOM     18  C   UNL     1       5.718   3.485  12.515  0.00  0.00    +0.000 A 
ATOM     19 CL   UNL     1       4.929   2.642  11.239  0.00  0.00    +0.000 Cl
ATOM     20  C   UNL     1       6.851   4.247  12.251  0.00  0.00    +0.000 A 
ATOM     21  C   UNL     1       7.485   4.928  13.295  0.00  0.00    +0.000 A 
ATOM     22 CL   UNL     1       8.892   5.860  12.917  0.00  0.00    +0.000 Cl
ENDBRANCH  14  15
ENDBRANCH  13  14
ENDBRANCH  12  13
ENDBRANCH   1  12
TORSDOF 6
ENDMDL
MODEL 3
REMARK VINA RESULT:      -6.8      3.546      6.389
REMARK  Name = 
REMARK  6 active torsions:
REMARK  status: ('A' for Active; 'I' for Inactive)
REMARK    1  A    between atoms: C_2  and  C_3
REMARK    2  A    between atoms: C_3  and  C_4
REMARK    3  A    between atoms: C_4  and  C_5
REMARK    4  A    between atoms: C_5  and  O_6
REMARK    5  A    between atoms: O_6  and  C_7
REMARK    6  A    between atoms: N_15  and  C_16
REMARK                            x       y       z     vdW  Elec       q    Type
REMARK                         _______ _______ _______ _____ _____    ______ ____
ROOT
ATOM      1  C   UNL     1       7.531   6.988  17.499  0.00  0.00    +0.000 C 
ENDROOT
BRANCH   1   3
ATOM      2  O   UNL     1       5.649   6.904  16.011  0.00  0.00    +0.000 OA
ATOM      3  C   UNL     1       6.759   6.468  16.302  0.00  0.00    +0.000 C 
ATOM      4  N   UNL     1       7.445   5.472  15.625  0.00  0.00    +0.000 N 
ATOM      5  H   UNL     1       8.272   5.093  16.070  0.00  0.00    +0.000 HD
BRANCH   4   6
ATOM      6  C   UNL     1       7.018   4.838  14.436  0.00  0.00    +0.000 A 
ATOM      7  C   UNL     1       5.930   3.973  14.365  0.00  0.00    +0.000 A 
ATOM      8  C   UNL     1       5.602   3.363  13.155  0.00  0.00    +0.000 A 
ATOM      9  C   UNL     1       6.371   3.647  12.041  0.00  0.00    +0.000 A 
ATOM     10  N   UNL     1       7.413   4.506  12.053  0.00  0.00    +0.000 NA
ATOM     11  C   UNL     1       7.706   5.083  13.247  0.00  0.00    +0.000 A 
ENDBRANCH   4   6
ENDBRANCH   1   3
BRANCH   1  12
ATOM     12  C   UNL     1       7.837   5.883  18.511  0.00  0.00    +0.000 C 
BRANCH  12  13
ATOM     13  C   UNL     1       6.583   5.516  19.295  0.00  0.00    +0.000 C 
BRANCH  13  14
ATOM     14  O   UNL     1       5.760   4.651  18.512  0.00  0.00    +0.000 OA
BRANCH  14  15
ATOM     15  C   UNL     1       4.641   4.163  19.144  0.00  0.00    +0.000 A 
ATOM     16  C   UNL     1       4.592   2.907  19.759  0.00  0.00    +0.000 A 
ATOM     17  C   UNL     1       3.432   2.475  20.406  0.00  0.00    +0.000 A 
ATOM     18  C   UNL     1       2.314   3.302  20.449  0.00  0.00    +0.000 A 
ATOM     19 CL   UNL     1       0.890   2.759  21.246  0.00  0.00    +0.000 Cl
ATOM     20  C   UNL     1       2.346   4.561  19.858  0.00  0.00    +0.000 A 
ATOM     21  C   UNL     1       3.508   4.993  19.212  0.00  0.00    +0.000 A 
ATOM     22 CL   UNL     1       3.497   6.564  18.489  0.00  0.00    +0.000 Cl
ENDBRANCH  14  15
ENDBRANCH  13  14
ENDBRANCH  12  13
ENDBRANCH   1  12
TORSDOF 6
ENDMDL
MODEL 4
REMARK VINA RESULT:      -6.7      4.828      6.960
REMARK  Name = 
REMARK  6 active torsions:
REMARK  status: ('A' for Active; 'I' for Inactive)
REMARK    1  A    between atoms: C_2  and  C_3
REMARK    2  A    between atoms: C_3  and  C_4
REMARK    3  A    between atoms: C_4  and  C_5
REMARK    4  A    between atoms: C_5  and  O_6
REMARK    5  A    between atoms: O_6  and  C_7
REMARK    6  A    between atoms: N_15  and  C_16
REMARK                            x       y       z     vdW  Elec       q    Type
REMARK                         _______ _______ _______ _____ _____    ______ ____
ROOT
ATOM      1  C   UNL     1       7.633   6.194  17.699  0.00  0.00    +0.000 C 
ENDROOT
BRANCH   1   3
ATOM      2  O   UNL     1       7.227   5.477  19.954  0.00  0.00    +0.000 OA
ATOM      3  C   UNL     1       6.793   5.597  18.812  0.00  0.00    +0.000 C 
ATOM      4  N   UNL     1       5.534   5.215  18.375  0.00  0.00    +0.000 N 
ATOM      5  H   UNL     1       5.370   5.216  17.376  0.00  0.00    +0.000 HD
BRANCH   4   6
ATOM      6  C   UNL     1       4.503   4.689  19.187  0.00  0.00    +0.000 A 
ATOM      7  C   UNL     1       3.449   5.445  19.690  0.00  0.00    +0.000 A 
ATOM      8  C   UNL     1       2.496   4.850  20.514  0.00  0.00    +0.000 A 
ATOM      9  C   UNL     1       2.621   3.503  20.805  0.00  0.00    +0.000 A 
ATOM     10  N   UNL     1       3.605   2.722  20.312  0.00  0.00    +0.000 NA
ATOM     11  C   UNL     1       4.517   3.332  19.513  0.00  0.00    +0.000 A 
ENDBRANCH   4   6
ENDBRANCH   1   3
BRANCH   1  12
ATOM     12  C   UNL     1       7.309   7.670  17.462  0.00  0.00    +0.000 C 
BRANCH  12  13
ATOM     13  C   UNL     1       8.326   8.558  18.168  0.00  0.00    +0.000 C 
BRANCH  13  14
ATOM     14  O   UNL     1       8.007   9.931  17.942  0.00  0.00    +0.000 OA
BRANCH  14  15
ATOM     15  C   UNL     1       8.945  10.838  18.375  0.00  0.00    +0.000 A 
ATOM     16  C   UNL     1      10.045  10.488  19.167  0.00  0.00    +0.000 A 
ATOM     17  C   UNL     1      10.977  11.451  19.558  0.00  0.00    +0.000 A 
ATOM     18  C   UNL     1      10.820  12.772  19.151  0.00  0.00    +0.000 A 
ATOM     19 CL   UNL     1      11.973  13.952  19.640  0.00  0.00    +0.000 Cl
ATOM     20  C   UNL     1       9.743  13.140  18.350  0.00  0.00    +0.000 A 
ATOM     21  C   UNL     1       8.811  12.174  17.959  0.00  0.00    +0.000 A 
ATOM     22 CL   UNL     1       7.488  12.681  16.967  0.00  0.00    +0.000 Cl
ENDBRANCH  14  15
ENDBRANCH  13  14
ENDBRANCH  12  13
ENDBRANCH   1  12
TORSDOF 6
ENDMDL
MODEL 5
REMARK VINA RESULT:      -6.7      4.897      7.464
REMARK  Name = 
REMARK  6 active torsions:
REMARK  status: ('A' for Active; 'I' for Inactive)
REMARK    1  A    between atoms: C_2  and  C_3
REMARK    2  A    between atoms: C_3  and  C_4
REMARK    3  A    between atoms: C_4  and  C_5
REMARK    4  A    between atoms: C_5  and  O_6
REMARK    5  A    between atoms: O_6  and  C_7
REMARK    6  A    between atoms: N_15  and  C_16
REMARK                            x       y       z     vdW  Elec       q    Type
REMARK                         _______ _______ _______ _____ _____    ______ ____
ROOT
ATOM      1  C   UNL     1       1.540   4.086  18.649  0.00  0.00    +0.000 C 
ENDROOT
BRANCH   1   3
ATOM      2  O   UNL     1       2.475   2.996  16.725  0.00  0.00    +0.000 OA
ATOM      3  C   UNL     1       2.622   3.824  17.620  0.00  0.00    +0.000 C 
ATOM      4  N   UNL     1       3.748   4.605  17.829  0.00  0.00    +0.000 N 
ATOM      5  H   UNL     1       3.799   5.121  18.698  0.00  0.00    +0.000 HD
BRANCH   4   6
ATOM      6  C   UNL     1       4.895   4.637  17.002  0.00  0.00    +0.000 A 
ATOM      7  C   UNL     1       4.850   4.735  15.615  0.00  0.00    +0.000 A 
ATOM      8  C   UNL     1       6.032   4.723  14.877  0.00  0.00    +0.000 A 
ATOM      9  C   UNL     1       7.234   4.624  15.554  0.00  0.00    +0.000 A 
ATOM     10  N   UNL     1       7.329   4.564  16.900  0.00  0.00    +0.000 NA
ATOM     11  C   UNL     1       6.160   4.576  17.589  0.00  0.00    +0.000 A 
ENDBRANCH   4   6
ENDBRANCH   1   3
BRANCH   1  12
ATOM     12  C   UNL     1       2.088   4.077  20.076  0.00  0.00    +0.000 C 
BRANCH  12  13
ATOM     13  C   UNL     1       1.820   5.412  20.758  0.00  0.00    +0.000 C 
BRANCH  13  14
ATOM     14  O   UNL     1       2.496   6.457  20.057  0.00  0.00    +0.000 OA
BRANCH  14  15
ATOM     15  C   UNL     1       1.840   7.664  20.014  0.00  0.00    +0.000 A 
ATOM     16  C   UNL     1       1.085   8.168  21.079  0.00  0.00    +0.000 A 
ATOM     17  C   UNL     1       0.459   9.412  20.983  0.00  0.00    +0.000 A 
ATOM     18  C   UNL     1       0.593  10.167  19.822  0.00  0.00    +0.000 A 
ATOM     19 CL   UNL     1      -0.185  11.698  19.714  0.00  0.00    +0.000 Cl
ATOM     20  C   UNL     1       1.351   9.693  18.757  0.00  0.00    +0.000 A 
ATOM     21  C   UNL     1       1.978   8.447  18.855  0.00  0.00    +0.000 A 
ATOM     22 CL   UNL     1       2.907   7.900  17.502  0.00  0.00    +0.000 Cl
ENDBRANCH  14  15
ENDBRANCH  13  14
ENDBRANCH  12  13
ENDBRANCH   1  12
TORSDOF 6
ENDMDL
MODEL 6
REMARK VINA RESULT:      -6.7      3.581      6.548
REMARK  Name = 
REMARK  6 active torsions:
REMARK  status: ('A' for Active; 'I' for Inactive)
REMARK    1  A    between atoms: C_2  and  C_3
REMARK    2  A    between atoms: C_3  and  C_4
REMARK    3  A    between atoms: C_4  and  C_5
REMARK    4  A    between atoms: C_5  and  O_6
REMARK    5  A    between atoms: O_6  and  C_7
REMARK    6  A    between atoms: N_15  and  C_16
REMARK                            x       y       z     vdW  Elec       q    Type
REMARK                         _______ _______ _______ _____ _____    ______ ____
ROOT
ATOM      1  C   UNL     1       6.540   6.185  17.681  0.00  0.00    +0.000 C 
ENDROOT
BRANCH   1   3
ATOM      2  O   UNL     1       7.797   4.386  16.709  0.00  0.00    +0.000 OA
ATOM      3  C   UNL     1       6.967   5.276  16.546  0.00  0.00    +0.000 C 
ATOM      4  N   UNL     1       6.328   5.584  15.355  0.00  0.00    +0.000 N 
ATOM      5  H   UNL     1       5.797   6.445  15.323  0.00  0.00    +0.000 HD
BRANCH   4   6
ATOM      6  C   UNL     1       6.465   4.877  14.138  0.00  0.00    +0.000 A 
ATOM      7  C   UNL     1       5.578   3.896  13.706  0.00  0.00    +0.000 A 
ATOM      8  C   UNL     1       5.813   3.224  12.508  0.00  0.00    +0.000 A 
ATOM      9  C   UNL     1       6.929   3.564  11.766  0.00  0.00    +0.000 A 
ATOM     10  N   UNL     1       7.797   4.534  12.126  0.00  0.00    +0.000 NA
ATOM     11  C   UNL     1       7.541   5.168  13.299  0.00  0.00    +0.000 A 
ENDBRANCH   4   6
ENDBRANCH   1   3
BRANCH   1  12
ATOM     12  C   UNL     1       5.544   7.250  17.222  0.00  0.00    +0.000 C 
BRANCH  12  13
ATOM     13  C   UNL     1       4.225   7.105  17.972  0.00  0.00    +0.000 C 
BRANCH  13  14
ATOM     14  O   UNL     1       3.579   5.894  17.581  0.00  0.00    +0.000 OA
BRANCH  14  15
ATOM     15  C   UNL     1       3.072   5.133  18.607  0.00  0.00    +0.000 A 
ATOM     16  C   UNL     1       2.320   5.665  19.661  0.00  0.00    +0.000 A 
ATOM     17  C   UNL     1       1.813   4.837  20.664  0.00  0.00    +0.000 A 
ATOM     18  C   UNL     1       2.047   3.467  20.616  0.00  0.00    +0.000 A 
ATOM     19 CL   UNL     1       1.420   2.456  21.859  0.00  0.00    +0.000 Cl
ATOM     20  C   UNL     1       2.779   2.914  19.570  0.00  0.00    +0.000 A 
ATOM     21  C   UNL     1       3.285   3.744  18.565  0.00  0.00    +0.000 A 
ATOM     22 CL   UNL     1       4.191   3.009  17.289  0.00  0.00    +0.000 Cl
ENDBRANCH  14  15
ENDBRANCH  13  14
ENDBRANCH  12  13
ENDBRANCH   1  12
TORSDOF 6
ENDMDL
MODEL 7
REMARK VINA RESULT:      -6.6      1.129      1.165
REMARK  Name = 
REMARK  6 active torsions:
REMARK  status: ('A' for Active; 'I' for Inactive)
REMARK    1  A    between atoms: C_2  and  C_3
REMARK    2  A    between atoms: C_3  and  C_4
REMARK    3  A    between atoms: C_4  and  C_5
REMARK    4  A    between atoms: C_5  and  O_6
REMARK    5  A    between atoms: O_6  and  C_7
REMARK    6  A    between atoms: N_15  and  C_16
REMARK                            x       y       z     vdW  Elec       q    Type
REMARK                         _______ _______ _______ _____ _____    ______ ____
ROOT
ATOM      1  C   UNL     1       6.858   6.138  19.057  0.00  0.00    +0.000 C 
ENDROOT
BRANCH   1   3
ATOM      2  O   UNL     1       5.957   3.950  19.460  0.00  0.00    +0.000 OA
ATOM      3  C   UNL     1       5.739   5.121  19.165  0.00  0.00    +0.000 C 
ATOM      4  N   UNL     1       4.498   5.672  18.886  0.00  0.00    +0.000 N 
ATOM      5  H   UNL     1       4.483   6.606  18.494  0.00  0.00    +0.000 HD
BRANCH   4   6
ATOM      6  C   UNL     1       3.258   4.997  18.966  0.00  0.00    +0.000 A 
ATOM      7  C   UNL     1       2.570   4.776  20.155  0.00  0.00    +0.000 A 
ATOM      8  C   UNL     1       1.370   4.067  20.143  0.00  0.00    +0.000 A 
ATOM      9  C   UNL     1       0.884   3.608  18.933  0.00  0.00    +0.000 A 
ATOM     10  N   UNL     1       1.497   3.829  17.751  0.00  0.00    +0.000 NA
ATOM     11  C   UNL     1       2.664   4.521  17.796  0.00  0.00    +0.000 A 
ENDBRANCH   4   6
ENDBRANCH   1   3
BRANCH   1  12
ATOM     12  C   UNL     1       7.117   6.559  17.610  0.00  0.00    +0.000 C 
BRANCH  12  13
ATOM     13  C   UNL     1       7.335   5.334  16.730  0.00  0.00    +0.000 C 
BRANCH  13  14
ATOM     14  O   UNL     1       7.535   5.742  15.377  0.00  0.00    +0.000 OA
BRANCH  14  15
ATOM     15  C   UNL     1       6.946   4.946  14.423  0.00  0.00    +0.000 A 
ATOM     16  C   UNL     1       5.808   4.168  14.666  0.00  0.00    +0.000 A 
ATOM     17  C   UNL     1       5.242   3.396  13.650  0.00  0.00    +0.000 A 
ATOM     18  C   UNL     1       5.806   3.403  12.379  0.00  0.00    +0.000 A 
ATOM     19 CL   UNL     1       5.102   2.445  11.135  0.00  0.00    +0.000 Cl
ATOM     20  C   UNL     1       6.928   4.180  12.110  0.00  0.00    +0.000 A 
ATOM     21  C   UNL     1       7.493   4.954  13.128  0.00  0.00    +0.000 A 
ATOM     22 CL   UNL     1       8.889   5.900  12.746  0.00  0.00    +0.000 Cl
ENDBRANCH  14  15
ENDBRANCH  13  14
ENDBRANCH  12  13
ENDBRANCH   1  12
TORSDOF 6
ENDMDL
MODEL 8
REMARK VINA RESULT:      -6.6      3.655      5.148
REMARK  Name = 
REMARK  6 active torsions:
REMARK  status: ('A' for Active; 'I' for Inactive)
REMARK    1  A    between atoms: C_2  and  C_3
REMARK    2  A    between atoms: C_3  and  C_4
REMARK    3  A    between atoms: C_4  and  C_5
REMARK    4  A    between atoms: C_5  and  O_6
REMARK    5  A    between atoms: O_6  and  C_7
REMARK    6  A    between atoms: N_15  and  C_16
REMARK                            x       y       z     vdW  Elec       q    Type
REMARK                         _______ _______ _______ _____ _____    ______ ____
ROOT
ATOM      1  C   UNL     1       2.639   4.142  21.484  0.00  0.00    +0.000 C 
ENDROOT
BRANCH   1   3
ATOM      2  O   UNL     1       0.722   4.981  20.308  0.00  0.00    +0.000 OA
ATOM      3  C   UNL     1       1.886   5.163  20.653  0.00  0.00    +0.000 C 
ATOM      4  N   UNL     1       2.664   6.268  20.344  0.00  0.00    +0.000 N 
ATOM      5  H   UNL     1       3.653   6.210  20.549  0.00  0.00    +0.000 HD
BRANCH   4   6
ATOM      6  C   UNL     1       2.226   7.414  19.641  0.00  0.00    +0.000 A 
ATOM      7  C   UNL     1       1.426   8.407  20.198  0.00  0.00    +0.000 A 
ATOM      8  C   UNL     1       1.011   9.486  19.418  0.00  0.00    +0.000 A 
ATOM      9  C   UNL     1       1.422   9.545  18.099  0.00  0.00    +0.000 A 
ATOM     10  N   UNL     1       2.227   8.625  17.526  0.00  0.00    +0.000 NA
ATOM     11  C   UNL     1       2.612   7.587  18.312  0.00  0.00    +0.000 A 
ENDBRANCH   4   6
ENDBRANCH   1   3
BRANCH   1  12
ATOM     12  C   UNL     1       2.850   2.828  20.729  0.00  0.00    +0.000 C 
BRANCH  12  13
ATOM     13  C   UNL     1       3.349   3.100  19.316  0.00  0.00    +0.000 C 
BRANCH  13  14
ATOM     14  O   UNL     1       4.539   3.887  19.367  0.00  0.00    +0.000 OA
BRANCH  14  15
ATOM     15  C   UNL     1       5.148   4.123  18.157  0.00  0.00    +0.000 A 
ATOM     16  C   UNL     1       4.624   3.687  16.935  0.00  0.00    +0.000 A 
ATOM     17  C   UNL     1       5.278   3.976  15.736  0.00  0.00    +0.000 A 
ATOM     18  C   UNL     1       6.457   4.714  15.750  0.00  0.00    +0.000 A 
ATOM     19 CL   UNL     1       7.256   5.063  14.266  0.00  0.00    +0.000 Cl
ATOM     20  C   UNL     1       6.988   5.171  16.952  0.00  0.00    +0.000 A 
ATOM     21  C   UNL     1       6.332   4.881  18.152  0.00  0.00    +0.000 A 
ATOM     22 CL   UNL     1       7.033   5.468  19.620  0.00  0.00    +0.000 Cl
ENDBRANCH  14  15
ENDBRANCH  13  14
ENDBRANCH  12  13
ENDBRANCH   1  12
TORSDOF 6
ENDMDL
MODEL 9
REMARK VINA RESULT:      -6.6      3.320      6.329
REMARK  Name = 
REMARK  6 active torsions:
REMARK  status: ('A' for Active; 'I' for Inactive)
REMARK    1  A    between atoms: C_2  and  C_3
REMARK    2  A    between atoms: C_3  and  C_4
REMARK    3  A    between atoms: C_4  and  C_5
REMARK    4  A    between atoms: C_5  and  O_6
REMARK    5  A    between atoms: O_6  and  C_7
REMARK    6  A    between atoms: N_15  and  C_16
REMARK                            x       y       z     vdW  Elec       q    Type
REMARK                         _______ _______ _______ _____ _____    ______ ____
ROOT
ATOM      1  C   UNL     1       6.185   6.952  17.421  0.00  0.00    +0.000 C 
ENDROOT
BRANCH   1   3
ATOM      2  O   UNL     1       4.973   6.933  15.350  0.00  0.00    +0.000 OA
ATOM      3  C   UNL     1       5.901   6.476  16.010  0.00  0.00    +0.000 C 
ATOM      4  N   UNL     1       6.787   5.493  15.598  0.00  0.00    +0.000 N 
ATOM      5  H   UNL     1       7.396   5.093  16.300  0.00  0.00    +0.000 HD
BRANCH   4   6
ATOM      6  C   UNL     1       6.822   4.899  14.315  0.00  0.00    +0.000 A 
ATOM      7  C   UNL     1       7.651   5.328  13.283  0.00  0.00    +0.000 A 
ATOM      8  C   UNL     1       7.592   4.705  12.037  0.00  0.00    +0.000 A 
ATOM      9  C   UNL     1       6.706   3.657  11.863  0.00  0.00    +0.000 A 
ATOM     10  N   UNL     1       5.909   3.183  12.844  0.00  0.00    +0.000 NA
ATOM     11  C   UNL     1       5.990   3.811  14.045  0.00  0.00    +0.000 A 
ENDBRANCH   4   6
ENDBRANCH   1   3
BRANCH   1  12
ATOM     12  C   UNL     1       7.187   6.049  18.143  0.00  0.00    +0.000 C 
BRANCH  12  13
ATOM     13  C   UNL     1       6.482   5.207  19.199  0.00  0.00    +0.000 C 
BRANCH  13  14
ATOM     14  O   UNL     1       5.175   5.729  19.438  0.00  0.00    +0.000 OA
BRANCH  14  15
ATOM     15  C   UNL     1       4.140   4.843  19.258  0.00  0.00    +0.000 A 
ATOM     16  C   UNL     1       4.317   3.456  19.189  0.00  0.00    +0.000 A 
ATOM     17  C   UNL     1       3.223   2.605  19.027  0.00  0.00    +0.000 A 
ATOM     18  C   UNL     1       1.940   3.134  18.943  0.00  0.00    +0.000 A 
ATOM     19 CL   UNL     1       0.598   2.075  18.741  0.00  0.00    +0.000 Cl
ATOM     20  C   UNL     1       1.737   4.508  19.024  0.00  0.00    +0.000 A 
ATOM     21  C   UNL     1       2.834   5.360  19.187  0.00  0.00    +0.000 A 
ATOM     22 CL   UNL     1       2.532   7.060  19.280  0.00  0.00    +0.000 Cl
ENDBRANCH  14  15
ENDBRANCH  13  14
ENDBRANCH  12  13
ENDBRANCH   1  12
TORSDOF 6
ENDMDL
