MODEL 1
REMARK VINA RESULT:      -8.6      0.000      0.000
REMARK  Name = 
REMARK  5 active torsions:
REMARK  status: ('A' for Active; 'I' for Inactive)
REMARK    1  A    between atoms: C_1  and  O_2
REMARK    2  A    between atoms: O_2  and  C_3
REMARK    3  A    between atoms: C_6  and  S_7
REMARK    4  A    between atoms: S_7  and  N_10
REMARK    5  A    between atoms: C_13  and  C_14
REMARK                            x       y       z     vdW  Elec       q    Type
REMARK                         _______ _______ _______ _____ _____    ______ ____
ROOT
ATOM      1  N   UNL     1       4.739   5.654  18.586  0.00  0.00    +0.000 NA
ATOM      2  C   UNL     1       5.552   4.447  18.321  0.00  0.00    +0.000 C 
ATOM      3  C   UNL     1       7.032   4.791  18.198  0.00  0.00    +0.000 C 
ATOM      4  C   UNL     1       7.264   5.832  17.103  0.00  0.00    +0.000 C 
ATOM      5  C   UNL     1       6.503   7.099  17.502  0.00  0.00    +0.000 C 
ATOM      6  C   UNL     1       5.016   6.853  17.745  0.00  0.00    +0.000 C 
ENDROOT
BRANCH   4   7
ATOM      7  C   UNL     1       6.852   5.303  15.762  0.00  0.00    +0.000 A 
ATOM      8  N   UNL     1       5.838   4.513  15.465  0.00  0.00    +0.000 NA
ATOM      9  C   UNL     1       6.047   4.191  14.149  0.00  0.00    +0.000 A 
ATOM     10  C   UNL     1       5.338   3.346  13.286  0.00  0.00    +0.000 A 
ATOM     11  C   UNL     1       5.816   3.188  11.976  0.00  0.00    +0.000 A 
ATOM     12  C   UNL     1       6.966   3.858  11.540  0.00  0.00    +0.000 A 
ATOM     13  C   UNL     1       7.684   4.707  12.392  0.00  0.00    +0.000 A 
ATOM     14  C   UNL     1       7.183   4.832  13.682  0.00  0.00    +0.000 A 
ATOM     15  O   UNL     1       7.702   5.560  14.714  0.00  0.00    +0.000 OA
ENDBRANCH   4   7
BRANCH   1  16
ATOM     16  S   UNL     1       3.066   5.346  18.854  0.00  0.00    +0.000 S 
ATOM     17  O   UNL     1       2.952   4.646  20.115  0.00  0.00    +0.000 OA
ATOM     18  O   UNL     1       2.493   4.795  17.642  0.00  0.00    +0.000 OA
BRANCH  16  22
ATOM     19  C   UNL     1       1.219   9.489  19.559  0.00  0.00    +0.000 A 
ATOM     20  C   UNL     1       1.632   9.117  18.274  0.00  0.00    +0.000 A 
ATOM     21  C   UNL     1       2.184   7.851  18.035  0.00  0.00    +0.000 A 
ATOM     22  C   UNL     1       2.350   6.969  19.102  0.00  0.00    +0.000 A 
ATOM     23  C   UNL     1       1.916   7.327  20.385  0.00  0.00    +0.000 A 
ATOM     24  C   UNL     1       1.365   8.590  20.614  0.00  0.00    +0.000 A 
BRANCH  19  26
ATOM     25  C   UNL     1      -0.291  11.121  18.739  0.00  0.00    +0.000 C 
ATOM     26  O   UNL     1       0.724  10.762  19.673  0.00  0.00    +0.000 OA
ENDBRANCH  19  26
ENDBRANCH  16  22
ENDBRANCH   1  16
TORSDOF 4
ENDMDL
MODEL 2
REMARK VINA RESULT:      -7.9      2.865      6.904
REMARK  Name = 
REMARK  5 active torsions:
REMARK  status: ('A' for Active; 'I' for Inactive)
REMARK    1  A    between atoms: C_1  and  O_2
REMARK    2  A    between atoms: O_2  and  C_3
REMARK    3  A    between atoms: C_6  and  S_7
REMARK    4  A    between atoms: S_7  and  N_10
REMARK    5  A    between atoms: C_13  and  C_14
REMARK                            x       y       z     vdW  Elec       q    Type
REMARK                         _______ _______ _______ _____ _____    ______ ____
ROOT
ATOM      1  N   UNL     1       2.790   3.385  18.904  0.00  0.00    +0.000 NA
ATOM      2  C   UNL     1       3.672   4.178  19.788  0.00  0.00    +0.000 C 
ATOM      3  C   UNL     1       3.081   4.311  21.188  0.00  0.00    +0.000 C 
ATOM      4  C   UNL     1       1.688   4.937  21.136  0.00  0.00    +0.000 C 
ATOM      5  C   UNL     1       0.792   4.005  20.317  0.00  0.00    +0.000 C 
ATOM      6  C   UNL     1       1.339   3.723  18.920  0.00  0.00    +0.000 C 
ENDROOT
BRANCH   4   7
ATOM      7  C   UNL     1       1.744   6.329  20.579  0.00  0.00    +0.000 A 
ATOM      8  N   UNL     1       1.212   7.433  21.068  0.00  0.00    +0.000 NA
ATOM      9  C   UNL     1       1.397   8.356  20.072  0.00  0.00    +0.000 A 
ATOM     10  C   UNL     1       1.005   9.697  19.977  0.00  0.00    +0.000 A 
ATOM     11  C   UNL     1       1.316  10.394  18.800  0.00  0.00    +0.000 A 
ATOM     12  C   UNL     1       2.005   9.772  17.751  0.00  0.00    +0.000 A 
ATOM     13  C   UNL     1       2.405   8.432  17.833  0.00  0.00    +0.000 A 
ATOM     14  C   UNL     1       2.071   7.774  19.011  0.00  0.00    +0.000 A 
ATOM     15  O   UNL     1       2.308   6.468  19.335  0.00  0.00    +0.000 OA
ENDBRANCH   4   7
BRANCH   1  16
ATOM     16  S   UNL     1       3.431   3.085  17.335  0.00  0.00    +0.000 S 
ATOM     17  O   UNL     1       2.405   3.429  16.375  0.00  0.00    +0.000 OA
ATOM     18  O   UNL     1       4.049   1.773  17.326  0.00  0.00    +0.000 OA
BRANCH  16  22
ATOM     19  C   UNL     1       6.725   6.244  16.836  0.00  0.00    +0.000 A 
ATOM     20  C   UNL     1       7.059   4.939  17.216  0.00  0.00    +0.000 A 
ATOM     21  C   UNL     1       6.071   3.955  17.359  0.00  0.00    +0.000 A 
ATOM     22  C   UNL     1       4.735   4.298  17.149  0.00  0.00    +0.000 A 
ATOM     23  C   UNL     1       4.397   5.596  16.743  0.00  0.00    +0.000 A 
ATOM     24  C   UNL     1       5.389   6.569  16.602  0.00  0.00    +0.000 A 
BRANCH  19  26
ATOM     25  C   UNL     1       7.808   8.139  17.757  0.00  0.00    +0.000 C 
ATOM     26  O   UNL     1       7.774   7.122  16.760  0.00  0.00    +0.000 OA
ENDBRANCH  19  26
ENDBRANCH  16  22
ENDBRANCH   1  16
TORSDOF 4
ENDMDL
MODEL 3
REMARK VINA RESULT:      -7.7      0.732      1.200
REMARK  Name = 
REMARK  5 active torsions:
REMARK  status: ('A' for Active; 'I' for Inactive)
REMARK    1  A    between atoms: C_1  and  O_2
REMARK    2  A    between atoms: O_2  and  C_3
REMARK    3  A    between atoms: C_6  and  S_7
REMARK    4  A    between atoms: S_7  and  N_10
REMARK    5  A    between atoms: C_13  and  C_14
REMARK                            x       y       z     vdW  Elec       q    Type
REMARK                         _______ _______ _______ _____ _____    ______ ____
ROOT
ATOM      1  N   UNL     1       4.868   5.822  18.470  0.00  0.00    +0.000 NA
ATOM      2  C   UNL     1       5.795   4.671  18.402  0.00  0.00    +0.000 C 
ATOM      3  C   UNL     1       7.245   5.132  18.299  0.00  0.00    +0.000 C 
ATOM      4  C   UNL     1       7.446   6.041  17.087  0.00  0.00    +0.000 C 
ATOM      5  C   UNL     1       6.558   7.273  17.281  0.00  0.00    +0.000 C 
ATOM      6  C   UNL     1       5.086   6.923  17.490  0.00  0.00    +0.000 C 
ENDROOT
BRANCH   4   7
ATOM      7  C   UNL     1       7.156   5.309  15.811  0.00  0.00    +0.000 A 
ATOM      8  N   UNL     1       7.872   5.269  14.704  0.00  0.00    +0.000 NA
ATOM      9  C   UNL     1       7.056   4.630  13.807  0.00  0.00    +0.000 A 
ATOM     10  C   UNL     1       7.236   4.333  12.450  0.00  0.00    +0.000 A 
ATOM     11  C   UNL     1       6.193   3.683  11.773  0.00  0.00    +0.000 A 
ATOM     12  C   UNL     1       5.008   3.334  12.433  0.00  0.00    +0.000 A 
ATOM     13  C   UNL     1       4.815   3.624  13.790  0.00  0.00    +0.000 A 
ATOM     14  C   UNL     1       5.867   4.275  14.423  0.00  0.00    +0.000 A 
ATOM     15  O   UNL     1       5.928   4.700  15.720  0.00  0.00    +0.000 OA
ENDBRANCH   4   7
BRANCH   1  16
ATOM     16  S   UNL     1       3.215   5.397  18.703  0.00  0.00    +0.000 S 
ATOM     17  O   UNL     1       3.133   4.642  19.934  0.00  0.00    +0.000 OA
ATOM     18  O   UNL     1       2.692   4.859  17.463  0.00  0.00    +0.000 OA
BRANCH  16  22
ATOM     19  C   UNL     1       1.100   9.384  19.544  0.00  0.00    +0.000 A 
ATOM     20  C   UNL     1       1.517   9.073  18.244  0.00  0.00    +0.000 A 
ATOM     21  C   UNL     1       2.150   7.855  17.963  0.00  0.00    +0.000 A 
ATOM     22  C   UNL     1       2.394   6.959  19.004  0.00  0.00    +0.000 A 
ATOM     23  C   UNL     1       1.957   7.253  20.303  0.00  0.00    +0.000 A 
ATOM     24  C   UNL     1       1.325   8.470  20.573  0.00  0.00    +0.000 A 
BRANCH  19  26
ATOM     25  C   UNL     1      -0.711  10.815  19.011  0.00  0.00    +0.000 C 
ATOM     26  O   UNL     1       0.521  10.615  19.699  0.00  0.00    +0.000 OA
ENDBRANCH  19  26
ENDBRANCH  16  22
ENDBRANCH   1  16
TORSDOF 4
ENDMDL
MODEL 4
REMARK VINA RESULT:      -7.7      0.855      1.597
REMARK  Name = 
REMARK  5 active torsions:
REMARK  status: ('A' for Active; 'I' for Inactive)
REMARK    1  A    between atoms: C_1  and  O_2
REMARK    2  A    between atoms: O_2  and  C_3
REMARK    3  A    between atoms: C_6  and  S_7
REMARK    4  A    between atoms: S_7  and  N_10
REMARK    5  A    between atoms: C_13  and  C_14
REMARK                            x       y       z     vdW  Elec       q    Type
REMARK                         _______ _______ _______ _____ _____    ______ ____
ROOT
ATOM      1  N   UNL     1       4.845   5.875  18.494  0.00  0.00    +0.000 NA
ATOM      2  C   UNL     1       5.774   4.726  18.439  0.00  0.00    +0.000 C 
ATOM      3  C   UNL     1       7.224   5.189  18.349  0.00  0.00    +0.000 C 
ATOM      4  C   UNL     1       7.436   6.094  17.136  0.00  0.00    +0.000 C 
ATOM      5  C   UNL     1       6.544   7.325  17.317  0.00  0.00    +0.000 C 
ATOM      6  C   UNL     1       5.071   6.974  17.513  0.00  0.00    +0.000 C 
ENDROOT
BRANCH   4   7
ATOM      7  C   UNL     1       7.159   5.358  15.859  0.00  0.00    +0.000 A 
ATOM      8  N   UNL     1       7.891   5.308  14.763  0.00  0.00    +0.000 NA
ATOM      9  C   UNL     1       7.084   4.669  13.858  0.00  0.00    +0.000 A 
ATOM     10  C   UNL     1       7.281   4.364  12.505  0.00  0.00    +0.000 A 
ATOM     11  C   UNL     1       6.244   3.717  11.816  0.00  0.00    +0.000 A 
ATOM     12  C   UNL     1       5.047   3.379  12.461  0.00  0.00    +0.000 A 
ATOM     13  C   UNL     1       4.837   3.676  13.813  0.00  0.00    +0.000 A 
ATOM     14  C   UNL     1       5.884   4.324  14.459  0.00  0.00    +0.000 A 
ATOM     15  O   UNL     1       5.930   4.756  15.754  0.00  0.00    +0.000 OA
ENDBRANCH   4   7
BRANCH   1  16
ATOM     16  S   UNL     1       3.191   5.449  18.712  0.00  0.00    +0.000 S 
ATOM     17  O   UNL     1       3.098   4.694  19.943  0.00  0.00    +0.000 OA
ATOM     18  O   UNL     1       2.679   4.910  17.468  0.00  0.00    +0.000 OA
BRANCH  16  22
ATOM     19  C   UNL     1       1.082   9.469  19.396  0.00  0.00    +0.000 A 
ATOM     20  C   UNL     1       1.299   8.600  20.473  0.00  0.00    +0.000 A 
ATOM     21  C   UNL     1       1.954   7.375  20.288  0.00  0.00    +0.000 A 
ATOM     22  C   UNL     1       2.365   7.010  19.006  0.00  0.00    +0.000 A 
ATOM     23  C   UNL     1       2.173   7.886  17.930  0.00  0.00    +0.000 A 
ATOM     24  C   UNL     1       1.520   9.106  18.123  0.00  0.00    +0.000 A 
BRANCH  19  26
ATOM     25  C   UNL     1       0.949  11.406  20.754  0.00  0.00    +0.000 C 
ATOM     26  O   UNL     1       0.405  10.621  19.696  0.00  0.00    +0.000 OA
ENDBRANCH  19  26
ENDBRANCH  16  22
ENDBRANCH   1  16
TORSDOF 4
ENDMDL
MODEL 5
REMARK VINA RESULT:      -7.6      4.488     10.990
REMARK  Name = 
REMARK  5 active torsions:
REMARK  status: ('A' for Active; 'I' for Inactive)
REMARK    1  A    between atoms: C_1  and  O_2
REMARK    2  A    between atoms: O_2  and  C_3
REMARK    3  A    between atoms: C_6  and  S_7
REMARK    4  A    between atoms: S_7  and  N_10
REMARK    5  A    between atoms: C_13  and  C_14
REMARK                            x       y       z     vdW  Elec       q    Type
REMARK                         _______ _______ _______ _____ _____    ______ ____
ROOT
ATOM      1  N   UNL     1       0.279  10.415  20.398  0.00  0.00    +0.000 NA
ATOM      2  C   UNL     1      -0.945  10.245  19.584  0.00  0.00    +0.000 C 
ATOM      3  C   UNL     1      -1.218  11.477  18.729  0.00  0.00    +0.000 C 
ATOM      4  C   UNL     1      -1.333  12.731  19.595  0.00  0.00    +0.000 C 
ATOM      5  C   UNL     1       0.007  12.923  20.310  0.00  0.00    +0.000 C 
ATOM      6  C   UNL     1       0.430  11.705  21.127  0.00  0.00    +0.000 C 
ENDROOT
BRANCH   4   7
ATOM      7  C   UNL     1      -2.489  12.625  20.545  0.00  0.00    +0.000 A 
ATOM      8  N   UNL     1      -3.778  12.728  20.287  0.00  0.00    +0.000 NA
ATOM      9  C   UNL     1      -4.362  12.750  21.526  0.00  0.00    +0.000 A 
ATOM     10  C   UNL     1      -5.701  12.895  21.910  0.00  0.00    +0.000 A 
ATOM     11  C   UNL     1      -5.997  12.908  23.282  0.00  0.00    +0.000 A 
ATOM     12  C   UNL     1      -4.986  12.775  24.242  0.00  0.00    +0.000 A 
ATOM     13  C   UNL     1      -3.643  12.628  23.873  0.00  0.00    +0.000 A 
ATOM     14  C   UNL     1      -3.389  12.627  22.506  0.00  0.00    +0.000 A 
ATOM     15  O   UNL     1      -2.179  12.535  21.880  0.00  0.00    +0.000 OA
ENDBRANCH   4   7
BRANCH   1  16
ATOM     16  S   UNL     1       0.730   9.026  21.311  0.00  0.00    +0.000 S 
ATOM     17  O   UNL     1      -0.484   8.308  21.634  0.00  0.00    +0.000 OA
ATOM     18  O   UNL     1       1.655   9.432  22.351  0.00  0.00    +0.000 OA
BRANCH  16  22
ATOM     19  C   UNL     1       3.046   6.464  18.286  0.00  0.00    +0.000 A 
ATOM     20  C   UNL     1       2.691   5.929  19.530  0.00  0.00    +0.000 A 
ATOM     21  C   UNL     1       1.971   6.689  20.462  0.00  0.00    +0.000 A 
ATOM     22  C   UNL     1       1.634   8.006  20.150  0.00  0.00    +0.000 A 
ATOM     23  C   UNL     1       1.965   8.539  18.897  0.00  0.00    +0.000 A 
ATOM     24  C   UNL     1       2.682   7.773  17.974  0.00  0.00    +0.000 A 
BRANCH  19  26
ATOM     25  C   UNL     1       3.361   4.272  17.444  0.00  0.00    +0.000 C 
ATOM     26  O   UNL     1       3.774   5.636  17.475  0.00  0.00    +0.000 OA
ENDBRANCH  19  26
ENDBRANCH  16  22
ENDBRANCH   1  16
TORSDOF 4
ENDMDL
MODEL 6
REMARK VINA RESULT:      -7.6      9.175     12.026
REMARK  Name = 
REMARK  5 active torsions:
REMARK  status: ('A' for Active; 'I' for Inactive)
REMARK    1  A    between atoms: C_1  and  O_2
REMARK    2  A    between atoms: O_2  and  C_3
REMARK    3  A    between atoms: C_6  and  S_7
REMARK    4  A    between atoms: S_7  and  N_10
REMARK    5  A    between atoms: C_13  and  C_14
REMARK                            x       y       z     vdW  Elec       q    Type
REMARK                         _______ _______ _______ _____ _____    ______ ____
ROOT
ATOM      1  N   UNL     1      -6.090  13.710  21.148  0.00  0.00    +0.000 NA
ATOM      2  C   UNL     1      -6.239  14.302  19.800  0.00  0.00    +0.000 C 
ATOM      3  C   UNL     1      -7.397  13.666  19.040  0.00  0.00    +0.000 C 
ATOM      4  C   UNL     1      -7.217  12.152  18.932  0.00  0.00    +0.000 C 
ATOM      5  C   UNL     1      -7.201  11.586  20.354  0.00  0.00    +0.000 C 
ATOM      6  C   UNL     1      -6.133  12.223  21.240  0.00  0.00    +0.000 C 
ENDROOT
BRANCH   4   7
ATOM      7  C   UNL     1      -5.980  11.811  18.156  0.00  0.00    +0.000 A 
ATOM      8  N   UNL     1      -5.680  12.120  16.909  0.00  0.00    +0.000 NA
ATOM      9  C   UNL     1      -4.542  11.399  16.656  0.00  0.00    +0.000 A 
ATOM     10  C   UNL     1      -3.774  11.270  15.492  0.00  0.00    +0.000 A 
ATOM     11  C   UNL     1      -2.657  10.421  15.528  0.00  0.00    +0.000 A 
ATOM     12  C   UNL     1      -2.313   9.727  16.695  0.00  0.00    +0.000 A 
ATOM     13  C   UNL     1      -3.070   9.848  17.867  0.00  0.00    +0.000 A 
ATOM     14  C   UNL     1      -4.172  10.691  17.789  0.00  0.00    +0.000 A 
ATOM     15  O   UNL     1      -5.090  10.961  18.764  0.00  0.00    +0.000 OA
ENDBRANCH   4   7
BRANCH   1  16
ATOM     16  S   UNL     1      -4.877  14.446  22.123  0.00  0.00    +0.000 S 
ATOM     17  O   UNL     1      -5.355  14.437  23.489  0.00  0.00    +0.000 OA
ATOM     18  O   UNL     1      -4.455  15.681  21.491  0.00  0.00    +0.000 OA
BRANCH  16  22
ATOM     19  C   UNL     1      -1.339  11.532  21.878  0.00  0.00    +0.000 A 
ATOM     20  C   UNL     1      -1.997  11.732  23.098  0.00  0.00    +0.000 A 
ATOM     21  C   UNL     1      -3.089  12.606  23.191  0.00  0.00    +0.000 A 
ATOM     22  C   UNL     1      -3.499  13.305  22.055  0.00  0.00    +0.000 A 
ATOM     23  C   UNL     1      -2.860  13.089  20.827  0.00  0.00    +0.000 A 
ATOM     24  C   UNL     1      -1.773  12.216  20.744  0.00  0.00    +0.000 A 
BRANCH  19  26
ATOM     25  C   UNL     1      -0.234   9.776  23.023  0.00  0.00    +0.000 C 
ATOM     26  O   UNL     1      -0.268  10.679  21.921  0.00  0.00    +0.000 OA
ENDBRANCH  19  26
ENDBRANCH  16  22
ENDBRANCH   1  16
TORSDOF 4
ENDMDL
MODEL 7
REMARK VINA RESULT:      -7.6      2.102      7.851
REMARK  Name = 
REMARK  5 active torsions:
REMARK  status: ('A' for Active; 'I' for Inactive)
REMARK    1  A    between atoms: C_1  and  O_2
REMARK    2  A    between atoms: O_2  and  C_3
REMARK    3  A    between atoms: C_6  and  S_7
REMARK    4  A    between atoms: S_7  and  N_10
REMARK    5  A    between atoms: C_13  and  C_14
REMARK                            x       y       z     vdW  Elec       q    Type
REMARK                         _______ _______ _______ _____ _____    ______ ____
ROOT
ATOM      1  N   UNL     1       4.833   4.853  18.187  0.00  0.00    +0.000 NA
ATOM      2  C   UNL     1       4.596   5.072  19.631  0.00  0.00    +0.000 C 
ATOM      3  C   UNL     1       3.267   4.468  20.073  0.00  0.00    +0.000 C 
ATOM      4  C   UNL     1       2.107   5.040  19.257  0.00  0.00    +0.000 C 
ATOM      5  C   UNL     1       2.346   4.668  17.792  0.00  0.00    +0.000 C 
ATOM      6  C   UNL     1       3.698   5.144  17.266  0.00  0.00    +0.000 C 
ENDROOT
BRANCH   4   7
ATOM      7  C   UNL     1       1.978   6.519  19.469  0.00  0.00    +0.000 A 
ATOM      8  N   UNL     1       1.647   7.166  20.570  0.00  0.00    +0.000 NA
ATOM      9  C   UNL     1       1.489   8.462  20.154  0.00  0.00    +0.000 A 
ATOM     10  C   UNL     1       1.094   9.611  20.852  0.00  0.00    +0.000 A 
ATOM     11  C   UNL     1       0.993  10.815  20.139  0.00  0.00    +0.000 A 
ATOM     12  C   UNL     1       1.284  10.872  18.770  0.00  0.00    +0.000 A 
ATOM     13  C   UNL     1       1.683   9.733  18.059  0.00  0.00    +0.000 A 
ATOM     14  C   UNL     1       1.763   8.558  18.799  0.00  0.00    +0.000 A 
ATOM     15  O   UNL     1       2.090   7.310  18.353  0.00  0.00    +0.000 OA
ENDBRANCH   4   7
BRANCH   1  16
ATOM     16  S   UNL     1       6.364   5.402  17.622  0.00  0.00    +0.000 S 
ATOM     17  O   UNL     1       7.380   4.665  18.342  0.00  0.00    +0.000 OA
ATOM     18  O   UNL     1       6.365   6.851  17.609  0.00  0.00    +0.000 OA
BRANCH  16  22
ATOM     19  C   UNL     1       6.597   4.023  13.250  0.00  0.00    +0.000 A 
ATOM     20  C   UNL     1       5.676   3.430  14.123  0.00  0.00    +0.000 A 
ATOM     21  C   UNL     1       5.579   3.846  15.457  0.00  0.00    +0.000 A 
ATOM     22  C   UNL     1       6.435   4.845  15.922  0.00  0.00    +0.000 A 
ATOM     23  C   UNL     1       7.340   5.459  15.047  0.00  0.00    +0.000 A 
ATOM     24  C   UNL     1       7.430   5.038  13.718  0.00  0.00    +0.000 A 
BRANCH  19  26
ATOM     25  C   UNL     1       5.677   2.475  11.710  0.00  0.00    +0.000 C 
ATOM     26  O   UNL     1       6.619   3.509  11.980  0.00  0.00    +0.000 OA
ENDBRANCH  19  26
ENDBRANCH  16  22
ENDBRANCH   1  16
TORSDOF 4
ENDMDL
MODEL 8
REMARK VINA RESULT:      -7.6      4.294     10.768
REMARK  Name = 
REMARK  5 active torsions:
REMARK  status: ('A' for Active; 'I' for Inactive)
REMARK    1  A    between atoms: C_1  and  O_2
REMARK    2  A    between atoms: O_2  and  C_3
REMARK    3  A    between atoms: C_6  and  S_7
REMARK    4  A    between atoms: S_7  and  N_10
REMARK    5  A    between atoms: C_13  and  C_14
REMARK                            x       y       z     vdW  Elec       q    Type
REMARK                         _______ _______ _______ _____ _____    ______ ____
ROOT
ATOM      1  N   UNL     1       0.450  10.267  20.258  0.00  0.00    +0.000 NA
ATOM      2  C   UNL     1      -0.875  10.232  19.601  0.00  0.00    +0.000 C 
ATOM      3  C   UNL     1      -1.046  11.398  18.634  0.00  0.00    +0.000 C 
ATOM      4  C   UNL     1      -0.849  12.735  19.347  0.00  0.00    +0.000 C 
ATOM      5  C   UNL     1       0.582  12.762  19.892  0.00  0.00    +0.000 C 
ATOM      6  C   UNL     1       0.897  11.579  20.805  0.00  0.00    +0.000 C 
ENDROOT
BRANCH   4   7
ATOM      7  C   UNL     1      -1.883  12.932  20.416  0.00  0.00    +0.000 A 
ATOM      8  N   UNL     1      -1.707  13.065  21.716  0.00  0.00    +0.000 NA
ATOM      9  C   UNL     1      -2.977  13.015  22.227  0.00  0.00    +0.000 A 
ATOM     10  C   UNL     1      -3.439  13.052  23.549  0.00  0.00    +0.000 A 
ATOM     11  C   UNL     1      -4.822  12.950  23.768  0.00  0.00    +0.000 A 
ATOM     12  C   UNL     1      -5.717  12.821  22.699  0.00  0.00    +0.000 A 
ATOM     13  C   UNL     1      -5.269  12.784  21.372  0.00  0.00    +0.000 A 
ATOM     14  C   UNL     1      -3.894  12.880  21.196  0.00  0.00    +0.000 A 
ATOM     15  O   UNL     1      -3.195  12.837  20.023  0.00  0.00    +0.000 OA
ENDBRANCH   4   7
BRANCH   1  16
ATOM     16  S   UNL     1       0.777   8.923  21.284  0.00  0.00    +0.000 S 
ATOM     17  O   UNL     1      -0.494   8.325  21.631  0.00  0.00    +0.000 OA
ATOM     18  O   UNL     1       1.710   9.337  22.312  0.00  0.00    +0.000 OA
BRANCH  16  22
ATOM     19  C   UNL     1       2.935   5.871  18.620  0.00  0.00    +0.000 A 
ATOM     20  C   UNL     1       2.782   7.193  18.186  0.00  0.00    +0.000 A 
ATOM     21  C   UNL     1       2.140   8.144  18.991  0.00  0.00    +0.000 A 
ATOM     22  C   UNL     1       1.621   7.752  20.225  0.00  0.00    +0.000 A 
ATOM     23  C   UNL     1       1.794   6.437  20.675  0.00  0.00    +0.000 A 
ATOM     24  C   UNL     1       2.437   5.496  19.866  0.00  0.00    +0.000 A 
BRANCH  19  26
ATOM     25  C   UNL     1       4.356   4.001  18.306  0.00  0.00    +0.000 C 
ATOM     26  O   UNL     1       3.552   5.029  17.733  0.00  0.00    +0.000 OA
ENDBRANCH  19  26
ENDBRANCH  16  22
ENDBRANCH   1  16
TORSDOF 4
ENDMDL
MODEL 9
REMARK VINA RESULT:      -7.6      8.206     11.216
REMARK  Name = 
REMARK  5 active torsions:
REMARK  status: ('A' for Active; 'I' for Inactive)
REMARK    1  A    between atoms: C_1  and  O_2
REMARK    2  A    between atoms: O_2  and  C_3
REMARK    3  A    between atoms: C_6  and  S_7
REMARK    4  A    between atoms: S_7  and  N_10
REMARK    5  A    between atoms: C_13  and  C_14
REMARK                            x       y       z     vdW  Elec       q    Type
REMARK                         _______ _______ _______ _____ _____    ______ ____
ROOT
ATOM      1  N   UNL     1      -4.465  13.562  21.823  0.00  0.00    +0.000 NA
ATOM      2  C   UNL     1      -4.070  12.688  22.950  0.00  0.00    +0.000 C 
ATOM      3  C   UNL     1      -3.129  13.410  23.908  0.00  0.00    +0.000 C 
ATOM      4  C   UNL     1      -1.887  13.919  23.177  0.00  0.00    +0.000 C 
ATOM      5  C   UNL     1      -2.354  14.915  22.112  0.00  0.00    +0.000 C 
ATOM      6  C   UNL     1      -3.378  14.324  21.147  0.00  0.00    +0.000 C 
ENDROOT
BRANCH   4   7
ATOM      7  C   UNL     1      -1.096  12.781  22.602  0.00  0.00    +0.000 A 
ATOM      8  N   UNL     1      -0.445  12.728  21.456  0.00  0.00    +0.000 NA
ATOM      9  C   UNL     1      -0.079  11.412  21.348  0.00  0.00    +0.000 A 
ATOM     10  C   UNL     1       0.592  10.725  20.328  0.00  0.00    +0.000 A 
ATOM     11  C   UNL     1       0.804   9.347  20.488  0.00  0.00    +0.000 A 
ATOM     12  C   UNL     1       0.364   8.676  21.636  0.00  0.00    +0.000 A 
ATOM     13  C   UNL     1      -0.306   9.350  22.664  0.00  0.00    +0.000 A 
ATOM     14  C   UNL     1      -0.504  10.711  22.465  0.00  0.00    +0.000 A 
ATOM     15  O   UNL     1      -1.152  11.591  23.285  0.00  0.00    +0.000 OA
ENDBRANCH   4   7
BRANCH   1  16
ATOM     16  S   UNL     1      -5.619  12.868  20.750  0.00  0.00    +0.000 S 
ATOM     17  O   UNL     1      -6.440  13.946  20.242  0.00  0.00    +0.000 OA
ATOM     18  O   UNL     1      -6.219  11.715  21.392  0.00  0.00    +0.000 OA
BRANCH  16  22
ATOM     19  C   UNL     1      -3.175  11.342  17.176  0.00  0.00    +0.000 A 
ATOM     20  C   UNL     1      -2.552  11.551  18.412  0.00  0.00    +0.000 A 
ATOM     21  C   UNL     1      -3.283  12.002  19.520  0.00  0.00    +0.000 A 
ATOM     22  C   UNL     1      -4.643  12.274  19.372  0.00  0.00    +0.000 A 
ATOM     23  C   UNL     1      -5.277  12.042  18.144  0.00  0.00    +0.000 A 
ATOM     24  C   UNL     1      -4.541  11.591  17.046  0.00  0.00    +0.000 A 
BRANCH  19  26
ATOM     25  C   UNL     1      -2.997  10.387  15.016  0.00  0.00    +0.000 C 
ATOM     26  O   UNL     1      -2.350  10.930  16.163  0.00  0.00    +0.000 OA
ENDBRANCH  19  26
ENDBRANCH  16  22
ENDBRANCH   1  16
TORSDOF 4
ENDMDL
