MODEL 1
REMARK VINA RESULT:      -6.9      0.000      0.000
REMARK  Name = 
REMARK  10 active torsions:
REMARK  status: ('A' for Active; 'I' for Inactive)
REMARK    1  A    between atoms: C_1  and  C_2
REMARK    2  A    between atoms: C_2  and  C_3
REMARK    3  A    between atoms: C_2  and  C_4
REMARK    4  A    between atoms: C_8  and  C_9
REMARK    5  A    between atoms: N_11  and  C_12
REMARK    6  A    between atoms: N_11  and  C_13
REMARK    7  A    between atoms: C_13  and  C_14
REMARK    8  A    between atoms: C_14  and  C_15
REMARK    9  A    between atoms: C_14  and  C_16
REMARK   10  A    between atoms: C_16  and  N_17
REMARK                            x       y       z     vdW  Elec       q    Type
REMARK                         _______ _______ _______ _____ _____    ______ ____
ROOT
ATOM      1  C   UNL     1       5.350   4.527  15.898  0.00  0.00    +0.000 C 
ATOM      2  O   UNL     1       5.221   3.476  16.526  0.00  0.00    +0.000 OA
ATOM      3  N   UNL     1       4.856   5.757  16.389  0.00  0.00    +0.000 N 
ATOM      4  C   UNL     1       4.910   7.001  15.627  0.00  0.00    +0.000 C 
ENDROOT
BRANCH   1   9
ATOM      5  C   UNL     1       6.107   3.699  12.403  0.00  0.00    +0.000 A 
ATOM      6  N   UNL     1       7.292   4.290  12.163  0.00  0.00    +0.000 NA
ATOM      7  C   UNL     1       7.832   5.000  13.173  0.00  0.00    +0.000 A 
ATOM      8  C   UNL     1       7.251   5.120  14.411  0.00  0.00    +0.000 A 
ATOM      9  C   UNL     1       6.054   4.453  14.571  0.00  0.00    +0.000 A 
ATOM     10  N   UNL     1       5.450   3.771  13.572  0.00  0.00    +0.000 NA
BRANCH   5  12
ATOM     11  C   UNL     1       5.902   1.414  11.382  0.00  0.00    +0.000 C 
ATOM     12  C   UNL     1       5.489   2.885  11.286  0.00  0.00    +0.000 C 
ATOM     13  C   UNL     1       3.967   3.023  11.293  0.00  0.00    +0.000 C 
ENDBRANCH   5  12
ENDBRANCH   1   9
BRANCH   3  14
ATOM     14  C   UNL     1       4.628   5.860  17.840  0.00  0.00    +0.000 C 
BRANCH  14  15
ATOM     15  C   UNL     1       3.154   5.853  18.304  0.00  0.00    +0.000 C 
ATOM     16  C   UNL     1       2.587   7.278  18.285  0.00  0.00    +0.000 C 
BRANCH  15  17
ATOM     17  C   UNL     1       3.020   5.216  19.708  0.00  0.00    +0.000 C 
BRANCH  17  18
ATOM     18  N   UNL     1       2.125   4.043  19.748  0.00  0.00    +0.000 NA
ATOM     19  C   UNL     1       2.813   2.860  20.294  0.00  0.00    +0.000 C 
ATOM     20  C   UNL     1       3.260   2.069  19.082  0.00  0.00    +0.000 C 
ATOM     21  C   UNL     1       2.090   2.242  18.142  0.00  0.00    +0.000 C 
ATOM     22  C   UNL     1       1.615   3.662  18.417  0.00  0.00    +0.000 C 
ENDBRANCH  17  18
ENDBRANCH  15  17
ENDBRANCH  14  15
ENDBRANCH   3  14
TORSDOF 6
ENDMDL
MODEL 2
REMARK VINA RESULT:      -6.9      0.752      1.197
REMARK  Name = 
REMARK  10 active torsions:
REMARK  status: ('A' for Active; 'I' for Inactive)
REMARK    1  A    between atoms: C_1  and  C_2
REMARK    2  A    between atoms: C_2  and  C_3
REMARK    3  A    between atoms: C_2  and  C_4
REMARK    4  A    between atoms: C_8  and  C_9
REMARK    5  A    between atoms: N_11  and  C_12
REMARK    6  A    between atoms: N_11  and  C_13
REMARK    7  A    between atoms: C_13  and  C_14
REMARK    8  A    between atoms: C_14  and  C_15
REMARK    9  A    between atoms: C_14  and  C_16
REMARK   10  A    between atoms: C_16  and  N_17
REMARK                            x       y       z     vdW  Elec       q    Type
REMARK                         _______ _______ _______ _____ _____    ______ ____
ROOT
ATOM      1  C   UNL     1       5.034   4.514  16.040  0.00  0.00    +0.000 C 
ATOM      2  O   UNL     1       4.700   3.455  16.570  0.00  0.00    +0.000 OA
ATOM      3  N   UNL     1       4.695   5.769  16.595  0.00  0.00    +0.000 N 
ATOM      4  C   UNL     1       4.995   7.039  15.941  0.00  0.00    +0.000 C 
ENDROOT
BRANCH   1   9
ATOM      5  C   UNL     1       5.964   3.736  12.575  0.00  0.00    +0.000 A 
ATOM      6  N   UNL     1       7.207   4.234  12.438  0.00  0.00    +0.000 NA
ATOM      7  C   UNL     1       7.730   4.865  13.507  0.00  0.00    +0.000 A 
ATOM      8  C   UNL     1       7.076   4.993  14.707  0.00  0.00    +0.000 A 
ATOM      9  C   UNL     1       5.821   4.424  14.761  0.00  0.00    +0.000 A 
ATOM     10  N   UNL     1       5.236   3.826  13.699  0.00  0.00    +0.000 NA
BRANCH   5  12
ATOM     11  C   UNL     1       5.730   1.527  11.407  0.00  0.00    +0.000 C 
ATOM     12  C   UNL     1       5.363   3.012  11.389  0.00  0.00    +0.000 C 
ATOM     13  C   UNL     1       3.846   3.196  11.357  0.00  0.00    +0.000 C 
ENDBRANCH   5  12
ENDBRANCH   1   9
BRANCH   3  14
ATOM     14  C   UNL     1       4.372   5.805  18.031  0.00  0.00    +0.000 C 
BRANCH  14  15
ATOM     15  C   UNL     1       2.877   5.965  18.393  0.00  0.00    +0.000 C 
ATOM     16  C   UNL     1       2.410   7.394  18.089  0.00  0.00    +0.000 C 
BRANCH  15  17
ATOM     17  C   UNL     1       2.626   5.597  19.874  0.00  0.00    +0.000 C 
BRANCH  17  18
ATOM     18  N   UNL     1       2.824   4.166  20.176  0.00  0.00    +0.000 NA
ATOM     19  C   UNL     1       2.197   3.309  19.155  0.00  0.00    +0.000 C 
ATOM     20  C   UNL     1       0.857   2.912  19.741  0.00  0.00    +0.000 C 
ATOM     21  C   UNL     1       1.199   2.704  21.199  0.00  0.00    +0.000 C 
ATOM     22  C   UNL     1       2.252   3.767  21.477  0.00  0.00    +0.000 C 
ENDBRANCH  17  18
ENDBRANCH  15  17
ENDBRANCH  14  15
ENDBRANCH   3  14
TORSDOF 6
ENDMDL
MODEL 3
REMARK VINA RESULT:      -6.8      1.090      1.336
REMARK  Name = 
REMARK  10 active torsions:
REMARK  status: ('A' for Active; 'I' for Inactive)
REMARK    1  A    between atoms: C_1  and  C_2
REMARK    2  A    between atoms: C_2  and  C_3
REMARK    3  A    between atoms: C_2  and  C_4
REMARK    4  A    between atoms: C_8  and  C_9
REMARK    5  A    between atoms: N_11  and  C_12
REMARK    6  A    between atoms: N_11  and  C_13
REMARK    7  A    between atoms: C_13  and  C_14
REMARK    8  A    between atoms: C_14  and  C_15
REMARK    9  A    between atoms: C_14  and  C_16
REMARK   10  A    between atoms: C_16  and  N_17
REMARK                            x       y       z     vdW  Elec       q    Type
REMARK                         _______ _______ _______ _____ _____    ______ ____
ROOT
ATOM      1  C   UNL     1       6.642   4.715  16.123  0.00  0.00    +0.000 C 
ATOM      2  O   UNL     1       7.647   4.978  16.785  0.00  0.00    +0.000 OA
ATOM      3  N   UNL     1       5.373   4.553  16.723  0.00  0.00    +0.000 N 
ATOM      4  C   UNL     1       4.183   4.150  15.978  0.00  0.00    +0.000 C 
ENDROOT
BRANCH   1   9
ATOM      5  C   UNL     1       6.253   3.505  12.679  0.00  0.00    +0.000 A 
ATOM      6  N   UNL     1       7.109   4.253  11.959  0.00  0.00    +0.000 NA
ATOM      7  C   UNL     1       7.804   5.195  12.627  0.00  0.00    +0.000 A 
ATOM      8  C   UNL     1       7.697   5.399  13.980  0.00  0.00    +0.000 A 
ATOM      9  C   UNL     1       6.818   4.563  14.637  0.00  0.00    +0.000 A 
ATOM     10  N   UNL     1       6.064   3.639  14.001  0.00  0.00    +0.000 NA
BRANCH   5  12
ATOM     11  C   UNL     1       4.323   3.038  11.144  0.00  0.00    +0.000 C 
ATOM     12  C   UNL     1       5.473   2.432  11.950  0.00  0.00    +0.000 C 
ATOM     13  C   UNL     1       6.395   1.612  11.048  0.00  0.00    +0.000 C 
ENDBRANCH   5  12
ENDBRANCH   1   9
BRANCH   3  14
ATOM     14  C   UNL     1       5.169   5.169  18.045  0.00  0.00    +0.000 C 
BRANCH  14  15
ATOM     15  C   UNL     1       3.711   5.530  18.414  0.00  0.00    +0.000 C 
ATOM     16  C   UNL     1       3.472   7.031  18.209  0.00  0.00    +0.000 C 
BRANCH  15  17
ATOM     17  C   UNL     1       3.389   5.105  19.866  0.00  0.00    +0.000 C 
BRANCH  17  18
ATOM     18  N   UNL     1       2.329   4.083  19.968  0.00  0.00    +0.000 NA
ATOM     19  C   UNL     1       2.883   2.768  20.332  0.00  0.00    +0.000 C 
ATOM     20  C   UNL     1       3.024   2.022  19.020  0.00  0.00    +0.000 C 
ATOM     21  C   UNL     1       1.780   2.451  18.277  0.00  0.00    +0.000 C 
ATOM     22  C   UNL     1       1.585   3.898  18.707  0.00  0.00    +0.000 C 
ENDBRANCH  17  18
ENDBRANCH  15  17
ENDBRANCH  14  15
ENDBRANCH   3  14
TORSDOF 6
ENDMDL
MODEL 4
REMARK VINA RESULT:      -6.7      2.424      4.196
REMARK  Name = 
REMARK  10 active torsions:
REMARK  status: ('A' for Active; 'I' for Inactive)
REMARK    1  A    between atoms: C_1  and  C_2
REMARK    2  A    between atoms: C_2  and  C_3
REMARK    3  A    between atoms: C_2  and  C_4
REMARK    4  A    between atoms: C_8  and  C_9
REMARK    5  A    between atoms: N_11  and  C_12
REMARK    6  A    between atoms: N_11  and  C_13
REMARK    7  A    between atoms: C_13  and  C_14
REMARK    8  A    between atoms: C_14  and  C_15
REMARK    9  A    between atoms: C_14  and  C_16
REMARK   10  A    between atoms: C_16  and  N_17
REMARK                            x       y       z     vdW  Elec       q    Type
REMARK                         _______ _______ _______ _____ _____    ______ ____
ROOT
ATOM      1  C   UNL     1       3.914   3.953  17.783  0.00  0.00    +0.000 C 
ATOM      2  O   UNL     1       3.603   2.801  18.086  0.00  0.00    +0.000 OA
ATOM      3  N   UNL     1       3.040   5.044  17.992  0.00  0.00    +0.000 N 
ATOM      4  C   UNL     1       3.342   6.404  17.558  0.00  0.00    +0.000 C 
ENDROOT
BRANCH   1   9
ATOM      5  C   UNL     1       6.608   4.208  15.302  0.00  0.00    +0.000 A 
ATOM      6  N   UNL     1       7.702   4.517  16.021  0.00  0.00    +0.000 NA
ATOM      7  C   UNL     1       7.533   4.673  17.349  0.00  0.00    +0.000 A 
ATOM      8  C   UNL     1       6.328   4.507  17.984  0.00  0.00    +0.000 A 
ATOM      9  C   UNL     1       5.271   4.160  17.169  0.00  0.00    +0.000 A 
ATOM     10  N   UNL     1       5.383   4.041  15.827  0.00  0.00    +0.000 NA
BRANCH   5  12
ATOM     11  C   UNL     1       5.422   3.905  13.110  0.00  0.00    +0.000 C 
ATOM     12  C   UNL     1       6.778   4.014  13.810  0.00  0.00    +0.000 C 
ATOM     13  C   UNL     1       7.609   5.148  13.210  0.00  0.00    +0.000 C 
ENDBRANCH   5  12
ENDBRANCH   1   9
BRANCH   3  14
ATOM     14  C   UNL     1       1.978   4.873  18.999  0.00  0.00    +0.000 C 
BRANCH  14  15
ATOM     15  C   UNL     1       2.267   5.453  20.403  0.00  0.00    +0.000 C 
ATOM     16  C   UNL     1       2.295   4.326  21.443  0.00  0.00    +0.000 C 
BRANCH  15  17
ATOM     17  C   UNL     1       1.228   6.535  20.777  0.00  0.00    +0.000 C 
BRANCH  17  18
ATOM     18  N   UNL     1       1.763   7.911  20.751  0.00  0.00    +0.000 NA
ATOM     19  C   UNL     1       1.247   8.710  21.875  0.00  0.00    +0.000 C 
ATOM     20  C   UNL     1       0.087   9.498  21.301  0.00  0.00    +0.000 C 
ATOM     21  C   UNL     1       0.600   9.858  19.926  0.00  0.00    +0.000 C 
ATOM     22  C   UNL     1       1.415   8.640  19.516  0.00  0.00    +0.000 C 
ENDBRANCH  17  18
ENDBRANCH  15  17
ENDBRANCH  14  15
ENDBRANCH   3  14
TORSDOF 6
ENDMDL
MODEL 5
REMARK VINA RESULT:      -6.7      1.673      3.790
REMARK  Name = 
REMARK  10 active torsions:
REMARK  status: ('A' for Active; 'I' for Inactive)
REMARK    1  A    between atoms: C_1  and  C_2
REMARK    2  A    between atoms: C_2  and  C_3
REMARK    3  A    between atoms: C_2  and  C_4
REMARK    4  A    between atoms: C_8  and  C_9
REMARK    5  A    between atoms: N_11  and  C_12
REMARK    6  A    between atoms: N_11  and  C_13
REMARK    7  A    between atoms: C_13  and  C_14
REMARK    8  A    between atoms: C_14  and  C_15
REMARK    9  A    between atoms: C_14  and  C_16
REMARK   10  A    between atoms: C_16  and  N_17
REMARK                            x       y       z     vdW  Elec       q    Type
REMARK                         _______ _______ _______ _____ _____    ______ ____
ROOT
ATOM      1  C   UNL     1       4.971   3.792  18.413  0.00  0.00    +0.000 C 
ATOM      2  O   UNL     1       5.865   3.825  19.259  0.00  0.00    +0.000 OA
ATOM      3  N   UNL     1       3.790   3.039  18.601  0.00  0.00    +0.000 N 
ATOM      4  C   UNL     1       2.757   2.906  17.578  0.00  0.00    +0.000 C 
ENDROOT
BRANCH   1   9
ATOM      5  C   UNL     1       5.851   4.665  14.957  0.00  0.00    +0.000 A 
ATOM      6  N   UNL     1       5.597   5.984  14.866  0.00  0.00    +0.000 NA
ATOM      7  C   UNL     1       5.097   6.584  15.964  0.00  0.00    +0.000 A 
ATOM      8  C   UNL     1       4.867   5.929  17.148  0.00  0.00    +0.000 A 
ATOM      9  C   UNL     1       5.187   4.587  17.154  0.00  0.00    +0.000 A 
ATOM     10  N   UNL     1       5.643   3.932  16.063  0.00  0.00    +0.000 NA
BRANCH   5  12
ATOM     11  C   UNL     1       5.320   3.565  12.764  0.00  0.00    +0.000 C 
ATOM     12  C   UNL     1       6.426   3.974  13.739  0.00  0.00    +0.000 C 
ATOM     13  C   UNL     1       7.456   4.866  13.048  0.00  0.00    +0.000 C 
ENDBRANCH   5  12
ENDBRANCH   1   9
BRANCH   3  14
ATOM     14  C   UNL     1       3.422   2.697  19.985  0.00  0.00    +0.000 C 
BRANCH  14  15
ATOM     15  C   UNL     1       2.508   3.704  20.720  0.00  0.00    +0.000 C 
ATOM     16  C   UNL     1       1.036   3.409  20.404  0.00  0.00    +0.000 C 
BRANCH  15  17
ATOM     17  C   UNL     1       2.879   5.159  20.348  0.00  0.00    +0.000 C 
BRANCH  17  18
ATOM     18  N   UNL     1       1.729   5.977  19.915  0.00  0.00    +0.000 NA
ATOM     19  C   UNL     1       1.891   6.441  18.527  0.00  0.00    +0.000 C 
ATOM     20  C   UNL     1       2.434   7.851  18.642  0.00  0.00    +0.000 C 
ATOM     21  C   UNL     1       1.670   8.388  19.829  0.00  0.00    +0.000 C 
ATOM     22  C   UNL     1       1.534   7.181  20.746  0.00  0.00    +0.000 C 
ENDBRANCH  17  18
ENDBRANCH  15  17
ENDBRANCH  14  15
ENDBRANCH   3  14
TORSDOF 6
ENDMDL
MODEL 6
REMARK VINA RESULT:      -6.7      1.215      1.811
REMARK  Name = 
REMARK  10 active torsions:
REMARK  status: ('A' for Active; 'I' for Inactive)
REMARK    1  A    between atoms: C_1  and  C_2
REMARK    2  A    between atoms: C_2  and  C_3
REMARK    3  A    between atoms: C_2  and  C_4
REMARK    4  A    between atoms: C_8  and  C_9
REMARK    5  A    between atoms: N_11  and  C_12
REMARK    6  A    between atoms: N_11  and  C_13
REMARK    7  A    between atoms: C_13  and  C_14
REMARK    8  A    between atoms: C_14  and  C_15
REMARK    9  A    between atoms: C_14  and  C_16
REMARK   10  A    between atoms: C_16  and  N_17
REMARK                            x       y       z     vdW  Elec       q    Type
REMARK                         _______ _______ _______ _____ _____    ______ ____
ROOT
ATOM      1  C   UNL     1       5.661   5.864  15.673  0.00  0.00    +0.000 C 
ATOM      2  O   UNL     1       5.100   6.948  15.513  0.00  0.00    +0.000 OA
ATOM      3  N   UNL     1       5.815   5.282  16.951  0.00  0.00    +0.000 N 
ATOM      4  C   UNL     1       6.556   4.046  17.182  0.00  0.00    +0.000 C 
ENDROOT
BRANCH   1   9
ATOM      5  C   UNL     1       5.875   3.679  12.730  0.00  0.00    +0.000 A 
ATOM      6  N   UNL     1       7.102   3.907  12.227  0.00  0.00    +0.000 NA
ATOM      7  C   UNL     1       7.858   4.826  12.861  0.00  0.00    +0.000 A 
ATOM      8  C   UNL     1       7.448   5.500  13.984  0.00  0.00    +0.000 A 
ATOM      9  C   UNL     1       6.188   5.176  14.443  0.00  0.00    +0.000 A 
ATOM     10  N   UNL     1       5.376   4.298  13.812  0.00  0.00    +0.000 NA
BRANCH   5  12
ATOM     11  C   UNL     1       4.018   3.298  11.085  0.00  0.00    +0.000 C 
ATOM     12  C   UNL     1       5.016   2.641  12.041  0.00  0.00    +0.000 C 
ATOM     13  C   UNL     1       5.885   1.622  11.304  0.00  0.00    +0.000 C 
ENDBRANCH   5  12
ENDBRANCH   1   9
BRANCH   3  14
ATOM     14  C   UNL     1       4.893   5.728  18.010  0.00  0.00    +0.000 C 
BRANCH  14  15
ATOM     15  C   UNL     1       3.405   5.860  17.611  0.00  0.00    +0.000 C 
ATOM     16  C   UNL     1       2.851   7.210  18.081  0.00  0.00    +0.000 C 
BRANCH  15  17
ATOM     17  C   UNL     1       2.576   4.685  18.182  0.00  0.00    +0.000 C 
BRANCH  17  18
ATOM     18  N   UNL     1       3.025   4.227  19.511  0.00  0.00    +0.000 NA
ATOM     19  C   UNL     1       3.070   2.756  19.586  0.00  0.00    +0.000 C 
ATOM     20  C   UNL     1       1.767   2.355  20.248  0.00  0.00    +0.000 C 
ATOM     21  C   UNL     1       1.594   3.438  21.287  0.00  0.00    +0.000 C 
ATOM     22  C   UNL     1       2.146   4.682  20.605  0.00  0.00    +0.000 C 
ENDBRANCH  17  18
ENDBRANCH  15  17
ENDBRANCH  14  15
ENDBRANCH   3  14
TORSDOF 6
ENDMDL
MODEL 7
REMARK VINA RESULT:      -6.6      0.763      1.120
REMARK  Name = 
REMARK  10 active torsions:
REMARK  status: ('A' for Active; 'I' for Inactive)
REMARK    1  A    between atoms: C_1  and  C_2
REMARK    2  A    between atoms: C_2  and  C_3
REMARK    3  A    between atoms: C_2  and  C_4
REMARK    4  A    between atoms: C_8  and  C_9
REMARK    5  A    between atoms: N_11  and  C_12
REMARK    6  A    between atoms: N_11  and  C_13
REMARK    7  A    between atoms: C_13  and  C_14
REMARK    8  A    between atoms: C_14  and  C_15
REMARK    9  A    between atoms: C_14  and  C_16
REMARK   10  A    between atoms: C_16  and  N_17
REMARK                            x       y       z     vdW  Elec       q    Type
REMARK                         _______ _______ _______ _____ _____    ______ ____
ROOT
ATOM      1  C   UNL     1       5.103   4.584  16.301  0.00  0.00    +0.000 C 
ATOM      2  O   UNL     1       4.908   3.574  16.978  0.00  0.00    +0.000 OA
ATOM      3  N   UNL     1       4.695   5.865  16.735  0.00  0.00    +0.000 N 
ATOM      4  C   UNL     1       4.828   7.065  15.915  0.00  0.00    +0.000 C 
ENDROOT
BRANCH   1   9
ATOM      5  C   UNL     1       5.831   3.463  12.882  0.00  0.00    +0.000 A 
ATOM      6  N   UNL     1       7.009   4.039  12.580  0.00  0.00    +0.000 NA
ATOM      7  C   UNL     1       7.553   4.837  13.519  0.00  0.00    +0.000 A 
ATOM      8  C   UNL     1       6.984   5.059  14.748  0.00  0.00    +0.000 A 
ATOM      9  C   UNL     1       5.794   4.401  14.978  0.00  0.00    +0.000 A 
ATOM     10  N   UNL     1       5.186   3.631  14.047  0.00  0.00    +0.000 NA
BRANCH   5  12
ATOM     11  C   UNL     1       4.241   3.322  10.945  0.00  0.00    +0.000 C 
ATOM     12  C   UNL     1       5.208   2.552  11.846  0.00  0.00    +0.000 C 
ATOM     13  C   UNL     1       6.289   1.860  11.016  0.00  0.00    +0.000 C 
ENDBRANCH   5  12
ENDBRANCH   1   9
BRANCH   3  14
ATOM     14  C   UNL     1       4.481   6.052  18.180  0.00  0.00    +0.000 C 
BRANCH  14  15
ATOM     15  C   UNL     1       3.011   6.076  18.657  0.00  0.00    +0.000 C 
ATOM     16  C   UNL     1       2.455   7.504  18.578  0.00  0.00    +0.000 C 
BRANCH  15  17
ATOM     17  C   UNL     1       2.886   5.505  20.089  0.00  0.00    +0.000 C 
BRANCH  17  18
ATOM     18  N   UNL     1       1.683   4.676  20.299  0.00  0.00    +0.000 NA
ATOM     19  C   UNL     1       1.879   3.710  21.393  0.00  0.00    +0.000 C 
ATOM     20  C   UNL     1       2.258   2.411  20.710  0.00  0.00    +0.000 C 
ATOM     21  C   UNL     1       1.367   2.424  19.490  0.00  0.00    +0.000 C 
ATOM     22  C   UNL     1       1.307   3.896  19.104  0.00  0.00    +0.000 C 
ENDBRANCH  17  18
ENDBRANCH  15  17
ENDBRANCH  14  15
ENDBRANCH   3  14
TORSDOF 6
ENDMDL
MODEL 8
REMARK VINA RESULT:      -6.5      4.891      7.999
REMARK  Name = 
REMARK  10 active torsions:
REMARK  status: ('A' for Active; 'I' for Inactive)
REMARK    1  A    between atoms: C_1  and  C_2
REMARK    2  A    between atoms: C_2  and  C_3
REMARK    3  A    between atoms: C_2  and  C_4
REMARK    4  A    between atoms: C_8  and  C_9
REMARK    5  A    between atoms: N_11  and  C_12
REMARK    6  A    between atoms: N_11  and  C_13
REMARK    7  A    between atoms: C_13  and  C_14
REMARK    8  A    between atoms: C_14  and  C_15
REMARK    9  A    between atoms: C_14  and  C_16
REMARK   10  A    between atoms: C_16  and  N_17
REMARK                            x       y       z     vdW  Elec       q    Type
REMARK                         _______ _______ _______ _____ _____    ______ ____
ROOT
ATOM      1  C   UNL     1       2.394   7.968  18.380  0.00  0.00    +0.000 C 
ATOM      2  O   UNL     1       2.665   8.345  17.240  0.00  0.00    +0.000 OA
ATOM      3  N   UNL     1       1.690   8.786  19.292  0.00  0.00    +0.000 N 
ATOM      4  C   UNL     1       1.436   8.403  20.677  0.00  0.00    +0.000 C 
ENDROOT
BRANCH   1   9
ATOM      5  C   UNL     1       2.373   4.537  19.687  0.00  0.00    +0.000 A 
ATOM      6  N   UNL     1       3.631   4.097  19.504  0.00  0.00    +0.000 NA
ATOM      7  C   UNL     1       4.491   4.946  18.909  0.00  0.00    +0.000 A 
ATOM      8  C   UNL     1       4.153   6.217  18.516  0.00  0.00    +0.000 A 
ATOM      9  C   UNL     1       2.850   6.589  18.774  0.00  0.00    +0.000 A 
ATOM     10  N   UNL     1       1.939   5.754  19.323  0.00  0.00    +0.000 NA
BRANCH   5  12
ATOM     11  C   UNL     1       0.694   2.702  19.348  0.00  0.00    +0.000 C 
ATOM     12  C   UNL     1       1.394   3.604  20.367  0.00  0.00    +0.000 C 
ATOM     13  C   UNL     1       2.097   2.770  21.438  0.00  0.00    +0.000 C 
ENDBRANCH   5  12
ENDBRANCH   1   9
BRANCH   3  14
ATOM     14  C   UNL     1       0.873   9.875  18.729  0.00  0.00    +0.000 C 
BRANCH  14  15
ATOM     15  C   UNL     1      -0.238  10.440  19.644  0.00  0.00    +0.000 C 
ATOM     16  C   UNL     1      -1.593  10.377  18.929  0.00  0.00    +0.000 C 
BRANCH  15  17
ATOM     17  C   UNL     1       0.095  11.885  20.086  0.00  0.00    +0.000 C 
BRANCH  17  18
ATOM     18  N   UNL     1       0.286  12.034  21.542  0.00  0.00    +0.000 NA
ATOM     19  C   UNL     1      -0.511  11.049  22.293  0.00  0.00    +0.000 C 
ATOM     20  C   UNL     1      -1.765  11.791  22.710  0.00  0.00    +0.000 C 
ATOM     21  C   UNL     1      -1.224  13.159  23.052  0.00  0.00    +0.000 C 
ATOM     22  C   UNL     1      -0.106  13.367  22.040  0.00  0.00    +0.000 C 
ENDBRANCH  17  18
ENDBRANCH  15  17
ENDBRANCH  14  15
ENDBRANCH   3  14
TORSDOF 6
ENDMDL
MODEL 9
REMARK VINA RESULT:      -6.4      4.833      7.955
REMARK  Name = 
REMARK  10 active torsions:
REMARK  status: ('A' for Active; 'I' for Inactive)
REMARK    1  A    between atoms: C_1  and  C_2
REMARK    2  A    between atoms: C_2  and  C_3
REMARK    3  A    between atoms: C_2  and  C_4
REMARK    4  A    between atoms: C_8  and  C_9
REMARK    5  A    between atoms: N_11  and  C_12
REMARK    6  A    between atoms: N_11  and  C_13
REMARK    7  A    between atoms: C_13  and  C_14
REMARK    8  A    between atoms: C_14  and  C_15
REMARK    9  A    between atoms: C_14  and  C_16
REMARK   10  A    between atoms: C_16  and  N_17
REMARK                            x       y       z     vdW  Elec       q    Type
REMARK                         _______ _______ _______ _____ _____    ______ ____
ROOT
ATOM      1  C   UNL     1       1.861   7.181  20.050  0.00  0.00    +0.000 C 
ATOM      2  O   UNL     1       1.671   6.265  20.851  0.00  0.00    +0.000 OA
ATOM      3  N   UNL     1       2.639   7.005  18.884  0.00  0.00    +0.000 N 
ATOM      4  C   UNL     1       2.958   8.094  17.966  0.00  0.00    +0.000 C 
ENDROOT
BRANCH   1   9
ATOM      5  C   UNL     1       0.093  10.374  19.657  0.00  0.00    +0.000 A 
ATOM      6  N   UNL     1       0.092  10.915  20.889  0.00  0.00    +0.000 NA
ATOM      7  C   UNL     1       0.662  10.190  21.871  0.00  0.00    +0.000 A 
ATOM      8  C   UNL     1       1.253   8.968  21.667  0.00  0.00    +0.000 A 
ATOM      9  C   UNL     1       1.232   8.510  20.366  0.00  0.00    +0.000 A 
ATOM     10  N   UNL     1       0.628   9.179  19.358  0.00  0.00    +0.000 NA
BRANCH   5  12
ATOM     11  C   UNL     1      -1.723  10.438  17.925  0.00  0.00    +0.000 C 
ATOM     12  C   UNL     1      -0.531  11.178  18.536  0.00  0.00    +0.000 C 
ATOM     13  C   UNL     1      -0.947  12.562  19.032  0.00  0.00    +0.000 C 
ENDBRANCH   5  12
ENDBRANCH   1   9
BRANCH   3  14
ATOM     14  C   UNL     1       2.811   5.629  18.389  0.00  0.00    +0.000 C 
BRANCH  14  15
ATOM     15  C   UNL     1       3.787   4.732  19.185  0.00  0.00    +0.000 C 
ATOM     16  C   UNL     1       5.201   5.324  19.143  0.00  0.00    +0.000 C 
BRANCH  15  17
ATOM     17  C   UNL     1       3.770   3.283  18.645  0.00  0.00    +0.000 C 
BRANCH  17  18
ATOM     18  N   UNL     1       3.058   2.329  19.517  0.00  0.00    +0.000 NA
ATOM     19  C   UNL     1       1.704   2.045  19.012  0.00  0.00    +0.000 C 
ATOM     20  C   UNL     1       0.787   2.953  19.806  0.00  0.00    +0.000 C 
ATOM     21  C   UNL     1       1.408   2.904  21.182  0.00  0.00    +0.000 C 
ATOM     22  C   UNL     1       2.901   2.819  20.900  0.00  0.00    +0.000 C 
ENDBRANCH  17  18
ENDBRANCH  15  17
ENDBRANCH  14  15
ENDBRANCH   3  14
TORSDOF 6
ENDMDL
