MODEL 1
REMARK VINA RESULT:      -8.4      0.000      0.000
REMARK  Name = 
REMARK  5 active torsions:
REMARK  status: ('A' for Active; 'I' for Inactive)
REMARK    1  A    between atoms: C_1  and  C_2
REMARK    2  A    between atoms: C_2  and  C_3
REMARK    3  A    between atoms: C_9  and  C_10
REMARK    4  A    between atoms: C_10  and  O_12
REMARK    5  A    between atoms: N_15  and  C_16
REMARK                            x       y       z     vdW  Elec       q    Type
REMARK                         _______ _______ _______ _____ _____    ______ ____
ROOT
ATOM      1  C   UNL     1       0.949   2.990  21.572  0.00  0.00    +0.000 C 
ATOM      2  C   UNL     1       2.022   3.101  20.474  0.00  0.00    +0.000 C 
ATOM      3  C   UNL     1       1.481   2.400  19.209  0.00  0.00    +0.000 C 
ATOM      4  C   UNL     1       3.317   2.438  20.953  0.00  0.00    +0.000 C 
ATOM      5  C   UNL     1       4.403   2.587  19.911  0.00  0.00    +0.000 C 
ATOM      6  O   UNL     1       5.190   1.672  19.682  0.00  0.00    +0.000 OA
ATOM      7  C   UNL     1       4.519   3.905  19.198  0.00  0.00    +0.000 A 
ATOM      8  C   UNL     1       5.654   4.141  18.328  0.00  0.00    +0.000 A 
ATOM      9  C   UNL     1       5.792   5.286  17.639  0.00  0.00    +0.000 A 
ATOM     10  C   UNL     1       4.749   6.334  17.783  0.00  0.00    +0.000 A 
ATOM     11  O   UNL     1       4.906   7.380  17.144  0.00  0.00    +0.000 OA
ATOM     12  N   UNL     1       3.683   6.078  18.671  0.00  0.00    +0.000 N 
ATOM     13  C   UNL     1       3.571   4.848  19.360  0.00  0.00    +0.000 A 
ATOM     14  C   UNL     1       2.319   4.593  20.196  0.00  0.00    +0.000 C 
ENDROOT
BRANCH  12  15
ATOM     15  C   UNL     1       2.745   7.145  18.841  0.00  0.00    +0.000 A 
ATOM     16  C   UNL     1       2.359   7.922  17.739  0.00  0.00    +0.000 A 
ATOM     17  C   UNL     1       1.466   8.983  17.900  0.00  0.00    +0.000 A 
ATOM     18  C   UNL     1       0.959   9.283  19.163  0.00  0.00    +0.000 A 
ATOM     19  C   UNL     1       1.340   8.519  20.266  0.00  0.00    +0.000 A 
ATOM     20  C   UNL     1       2.231   7.454  20.107  0.00  0.00    +0.000 A 
ENDBRANCH  12  15
BRANCH   9  21
ATOM     21  C   UNL     1       6.986   5.461  16.772  0.00  0.00    +0.000 C 
ATOM     22  O   UNL     1       7.482   4.551  16.123  0.00  0.00    +0.000 OA
BRANCH  21  23
ATOM     23  O   UNL     1       7.503   6.710  16.741  0.00  0.00    +0.000 OA
ATOM     24  H   UNL     1       7.875   6.983  15.867  0.00  0.00    +0.000 HD
ENDBRANCH  21  23
ENDBRANCH   9  21
TORSDOF 3
ENDMDL
MODEL 2
REMARK VINA RESULT:      -8.3      0.053      1.009
REMARK  Name = 
REMARK  5 active torsions:
REMARK  status: ('A' for Active; 'I' for Inactive)
REMARK    1  A    between atoms: C_1  and  C_2
REMARK    2  A    between atoms: C_2  and  C_3
REMARK    3  A    between atoms: C_9  and  C_10
REMARK    4  A    between atoms: C_10  and  O_12
REMARK    5  A    between atoms: N_15  and  C_16
REMARK                            x       y       z     vdW  Elec       q    Type
REMARK                         _______ _______ _______ _____ _____    ______ ____
ROOT
ATOM      1  C   UNL     1       0.933   3.031  21.529  0.00  0.00    +0.000 C 
ATOM      2  C   UNL     1       2.005   3.136  20.430  0.00  0.00    +0.000 C 
ATOM      3  C   UNL     1       1.452   2.451  19.161  0.00  0.00    +0.000 C 
ATOM      4  C   UNL     1       3.293   2.453  20.901  0.00  0.00    +0.000 C 
ATOM      5  C   UNL     1       4.378   2.595  19.858  0.00  0.00    +0.000 C 
ATOM      6  O   UNL     1       5.153   1.672  19.620  0.00  0.00    +0.000 OA
ATOM      7  C   UNL     1       4.509   3.917  19.154  0.00  0.00    +0.000 A 
ATOM      8  C   UNL     1       5.646   4.145  18.284  0.00  0.00    +0.000 A 
ATOM      9  C   UNL     1       5.798   5.293  17.603  0.00  0.00    +0.000 A 
ATOM     10  C   UNL     1       4.768   6.354  17.756  0.00  0.00    +0.000 A 
ATOM     11  O   UNL     1       4.937   7.401  17.125  0.00  0.00    +0.000 OA
ATOM     12  N   UNL     1       3.700   6.105  18.645  0.00  0.00    +0.000 N 
ATOM     13  C   UNL     1       3.574   4.871  19.325  0.00  0.00    +0.000 A 
ATOM     14  C   UNL     1       2.321   4.626  20.162  0.00  0.00    +0.000 C 
ENDROOT
BRANCH  12  15
ATOM     15  C   UNL     1       2.777   7.182  18.824  0.00  0.00    +0.000 A 
ATOM     16  C   UNL     1       2.246   7.448  20.095  0.00  0.00    +0.000 A 
ATOM     17  C   UNL     1       1.324   8.479  20.275  0.00  0.00    +0.000 A 
ATOM     18  C   UNL     1       0.917   9.250  19.186  0.00  0.00    +0.000 A 
ATOM     19  C   UNL     1       1.437   8.992  17.918  0.00  0.00    +0.000 A 
ATOM     20  C   UNL     1       2.363   7.961  17.736  0.00  0.00    +0.000 A 
ENDBRANCH  12  15
BRANCH   9  21
ATOM     21  C   UNL     1       6.992   5.459  16.735  0.00  0.00    +0.000 C 
ATOM     22  O   UNL     1       7.447   4.560  16.043  0.00  0.00    +0.000 OA
BRANCH  21  23
ATOM     23  O   UNL     1       7.558   6.687  16.754  0.00  0.00    +0.000 OA
ATOM     24  H   UNL     1       8.279   6.821  16.091  0.00  0.00    +0.000 HD
ENDBRANCH  21  23
ENDBRANCH   9  21
TORSDOF 3
ENDMDL
MODEL 3
REMARK VINA RESULT:      -8.3      1.684      5.077
REMARK  Name = 
REMARK  5 active torsions:
REMARK  status: ('A' for Active; 'I' for Inactive)
REMARK    1  A    between atoms: C_1  and  C_2
REMARK    2  A    between atoms: C_2  and  C_3
REMARK    3  A    between atoms: C_9  and  C_10
REMARK    4  A    between atoms: C_10  and  O_12
REMARK    5  A    between atoms: N_15  and  C_16
REMARK                            x       y       z     vdW  Elec       q    Type
REMARK                         _______ _______ _______ _____ _____    ______ ____
ROOT
ATOM      1  C   UNL     1      -0.561   8.836  21.713  0.00  0.00    +0.000 C 
ATOM      2  C   UNL     1       0.713   8.763  20.853  0.00  0.00    +0.000 C 
ATOM      3  C   UNL     1       1.893   9.279  21.707  0.00  0.00    +0.000 C 
ATOM      4  C   UNL     1       0.535   9.621  19.596  0.00  0.00    +0.000 C 
ATOM      5  C   UNL     1       1.755   9.518  18.709  0.00  0.00    +0.000 C 
ATOM      6  O   UNL     1       2.188  10.499  18.111  0.00  0.00    +0.000 OA
ATOM      7  C   UNL     1       2.393   8.166  18.544  0.00  0.00    +0.000 A 
ATOM      8  C   UNL     1       3.448   7.997  17.565  0.00  0.00    +0.000 A 
ATOM      9  C   UNL     1       4.078   6.823  17.398  0.00  0.00    +0.000 A 
ATOM     10  C   UNL     1       3.672   5.670  18.242  0.00  0.00    +0.000 A 
ATOM     11  O   UNL     1       4.262   4.600  18.062  0.00  0.00    +0.000 OA
ATOM     12  N   UNL     1       2.613   5.869  19.154  0.00  0.00    +0.000 N 
ATOM     13  C   UNL     1       1.993   7.131  19.307  0.00  0.00    +0.000 A 
ATOM     14  C   UNL     1       0.950   7.302  20.408  0.00  0.00    +0.000 C 
ENDROOT
BRANCH  12  15
ATOM     15  C   UNL     1       2.199   4.713  19.888  0.00  0.00    +0.000 A 
ATOM     16  C   UNL     1       1.270   3.823  19.331  0.00  0.00    +0.000 A 
ATOM     17  C   UNL     1       0.840   2.707  20.050  0.00  0.00    +0.000 A 
ATOM     18  C   UNL     1       1.328   2.475  21.336  0.00  0.00    +0.000 A 
ATOM     19  C   UNL     1       2.249   3.356  21.901  0.00  0.00    +0.000 A 
ATOM     20  C   UNL     1       2.684   4.472  21.181  0.00  0.00    +0.000 A 
ENDBRANCH  12  15
BRANCH   9  21
ATOM     21  C   UNL     1       5.146   6.722  16.369  0.00  0.00    +0.000 C 
ATOM     22  O   UNL     1       4.970   7.000  15.192  0.00  0.00    +0.000 OA
BRANCH  21  23
ATOM     23  O   UNL     1       6.347   6.294  16.819  0.00  0.00    +0.000 OA
ATOM     24  H   UNL     1       6.358   5.362  17.149  0.00  0.00    +0.000 HD
ENDBRANCH  21  23
ENDBRANCH   9  21
TORSDOF 3
ENDMDL
MODEL 4
REMARK VINA RESULT:      -8.3      1.981      4.725
REMARK  Name = 
REMARK  5 active torsions:
REMARK  status: ('A' for Active; 'I' for Inactive)
REMARK    1  A    between atoms: C_1  and  C_2
REMARK    2  A    between atoms: C_2  and  C_3
REMARK    3  A    between atoms: C_9  and  C_10
REMARK    4  A    between atoms: C_10  and  O_12
REMARK    5  A    between atoms: N_15  and  C_16
REMARK                            x       y       z     vdW  Elec       q    Type
REMARK                         _______ _______ _______ _____ _____    ______ ____
ROOT
ATOM      1  C   UNL     1       7.713   8.621  17.389  0.00  0.00    +0.000 C 
ATOM      2  C   UNL     1       7.170   7.208  17.664  0.00  0.00    +0.000 C 
ATOM      3  C   UNL     1       7.776   6.717  18.997  0.00  0.00    +0.000 C 
ATOM      4  C   UNL     1       7.559   6.275  16.512  0.00  0.00    +0.000 C 
ATOM      5  C   UNL     1       6.985   4.894  16.734  0.00  0.00    +0.000 C 
ATOM      6  O   UNL     1       7.630   3.887  16.450  0.00  0.00    +0.000 OA
ATOM      7  C   UNL     1       5.584   4.791  17.270  0.00  0.00    +0.000 A 
ATOM      8  C   UNL     1       4.942   3.493  17.325  0.00  0.00    +0.000 A 
ATOM      9  C   UNL     1       3.705   3.335  17.825  0.00  0.00    +0.000 A 
ATOM     10  C   UNL     1       2.983   4.531  18.330  0.00  0.00    +0.000 A 
ATOM     11  O   UNL     1       1.845   4.358  18.777  0.00  0.00    +0.000 OA
ATOM     12  N   UNL     1       3.631   5.781  18.220  0.00  0.00    +0.000 N 
ATOM     13  C   UNL     1       4.942   5.893  17.703  0.00  0.00    +0.000 A 
ATOM     14  C   UNL     1       5.626   7.257  17.743  0.00  0.00    +0.000 C 
ENDROOT
BRANCH  12  15
ATOM     15  C   UNL     1       2.868   6.915  18.642  0.00  0.00    +0.000 A 
ATOM     16  C   UNL     1       2.455   7.025  19.978  0.00  0.00    +0.000 A 
ATOM     17  C   UNL     1       1.687   8.114  20.394  0.00  0.00    +0.000 A 
ATOM     18  C   UNL     1       1.319   9.098  19.477  0.00  0.00    +0.000 A 
ATOM     19  C   UNL     1       1.721   8.996  18.146  0.00  0.00    +0.000 A 
ATOM     20  C   UNL     1       2.493   7.908  17.728  0.00  0.00    +0.000 A 
ENDBRANCH  12  15
BRANCH   9  21
ATOM     21  C   UNL     1       3.107   1.975  17.843  0.00  0.00    +0.000 C 
ATOM     22  O   UNL     1       3.699   0.988  18.254  0.00  0.00    +0.000 OA
BRANCH  21  23
ATOM     23  O   UNL     1       1.844   1.890  17.367  0.00  0.00    +0.000 OA
ATOM     24  H   UNL     1       1.163   2.354  17.914  0.00  0.00    +0.000 HD
ENDBRANCH  21  23
ENDBRANCH   9  21
TORSDOF 3
ENDMDL
MODEL 5
REMARK VINA RESULT:      -8.3      1.679      5.152
REMARK  Name = 
REMARK  5 active torsions:
REMARK  status: ('A' for Active; 'I' for Inactive)
REMARK    1  A    between atoms: C_1  and  C_2
REMARK    2  A    between atoms: C_2  and  C_3
REMARK    3  A    between atoms: C_9  and  C_10
REMARK    4  A    between atoms: C_10  and  O_12
REMARK    5  A    between atoms: N_15  and  C_16
REMARK                            x       y       z     vdW  Elec       q    Type
REMARK                         _______ _______ _______ _____ _____    ______ ____
ROOT
ATOM      1  C   UNL     1      -0.604   8.860  21.666  0.00  0.00    +0.000 C 
ATOM      2  C   UNL     1       0.682   8.780  20.825  0.00  0.00    +0.000 C 
ATOM      3  C   UNL     1       1.852   9.290  21.696  0.00  0.00    +0.000 C 
ATOM      4  C   UNL     1       0.526   9.639  19.566  0.00  0.00    +0.000 C 
ATOM      5  C   UNL     1       1.758   9.528  18.696  0.00  0.00    +0.000 C 
ATOM      6  O   UNL     1       2.205  10.507  18.104  0.00  0.00    +0.000 OA
ATOM      7  C   UNL     1       2.392   8.173  18.541  0.00  0.00    +0.000 A 
ATOM      8  C   UNL     1       3.460   7.998  17.577  0.00  0.00    +0.000 A 
ATOM      9  C   UNL     1       4.086   6.821  17.419  0.00  0.00    +0.000 A 
ATOM     10  C   UNL     1       3.661   5.670  18.258  0.00  0.00    +0.000 A 
ATOM     11  O   UNL     1       4.248   4.597  18.087  0.00  0.00    +0.000 OA
ATOM     12  N   UNL     1       2.590   5.875  19.155  0.00  0.00    +0.000 N 
ATOM     13  C   UNL     1       1.975   7.141  19.298  0.00  0.00    +0.000 A 
ATOM     14  C   UNL     1       0.918   7.317  20.385  0.00  0.00    +0.000 C 
ENDROOT
BRANCH  12  15
ATOM     15  C   UNL     1       2.160   4.722  19.883  0.00  0.00    +0.000 A 
ATOM     16  C   UNL     1       2.667   4.473  21.167  0.00  0.00    +0.000 A 
ATOM     17  C   UNL     1       2.275   3.336  21.875  0.00  0.00    +0.000 A 
ATOM     18  C   UNL     1       1.380   2.432  21.303  0.00  0.00    +0.000 A 
ATOM     19  C   UNL     1       0.874   2.668  20.025  0.00  0.00    +0.000 A 
ATOM     20  C   UNL     1       1.262   3.808  19.316  0.00  0.00    +0.000 A 
ENDBRANCH  12  15
BRANCH   9  21
ATOM     21  C   UNL     1       5.168   6.713  16.406  0.00  0.00    +0.000 C 
ATOM     22  O   UNL     1       4.995   6.934  15.216  0.00  0.00    +0.000 OA
BRANCH  21  23
ATOM     23  O   UNL     1       6.378   6.349  16.886  0.00  0.00    +0.000 OA
ATOM     24  H   UNL     1       6.641   5.418  16.684  0.00  0.00    +0.000 HD
ENDBRANCH  21  23
ENDBRANCH   9  21
TORSDOF 3
ENDMDL
MODEL 6
REMARK VINA RESULT:      -8.2      1.976      4.615
REMARK  Name = 
REMARK  5 active torsions:
REMARK  status: ('A' for Active; 'I' for Inactive)
REMARK    1  A    between atoms: C_1  and  C_2
REMARK    2  A    between atoms: C_2  and  C_3
REMARK    3  A    between atoms: C_9  and  C_10
REMARK    4  A    between atoms: C_10  and  O_12
REMARK    5  A    between atoms: N_15  and  C_16
REMARK                            x       y       z     vdW  Elec       q    Type
REMARK                         _______ _______ _______ _____ _____    ______ ____
ROOT
ATOM      1  C   UNL     1       7.671   8.640  17.388  0.00  0.00    +0.000 C 
ATOM      2  C   UNL     1       7.141   7.222  17.668  0.00  0.00    +0.000 C 
ATOM      3  C   UNL     1       7.745   6.746  19.007  0.00  0.00    +0.000 C 
ATOM      4  C   UNL     1       7.547   6.288  16.523  0.00  0.00    +0.000 C 
ATOM      5  C   UNL     1       6.987   4.901  16.750  0.00  0.00    +0.000 C 
ATOM      6  O   UNL     1       7.644   3.900  16.476  0.00  0.00    +0.000 OA
ATOM      7  C   UNL     1       5.584   4.786  17.279  0.00  0.00    +0.000 A 
ATOM      8  C   UNL     1       4.956   3.482  17.337  0.00  0.00    +0.000 A 
ATOM      9  C   UNL     1       3.718   3.313  17.832  0.00  0.00    +0.000 A 
ATOM     10  C   UNL     1       2.980   4.504  18.325  0.00  0.00    +0.000 A 
ATOM     11  O   UNL     1       1.841   4.322  18.767  0.00  0.00    +0.000 OA
ATOM     12  N   UNL     1       3.615   5.760  18.212  0.00  0.00    +0.000 N 
ATOM     13  C   UNL     1       4.928   5.884  17.702  0.00  0.00    +0.000 A 
ATOM     14  C   UNL     1       5.597   7.255  17.738  0.00  0.00    +0.000 C 
ENDROOT
BRANCH  12  15
ATOM     15  C   UNL     1       2.838   6.889  18.623  0.00  0.00    +0.000 A 
ATOM     16  C   UNL     1       2.503   7.886  17.696  0.00  0.00    +0.000 A 
ATOM     17  C   UNL     1       1.769   9.005  18.094  0.00  0.00    +0.000 A 
ATOM     18  C   UNL     1       1.370   9.140  19.423  0.00  0.00    +0.000 A 
ATOM     19  C   UNL     1       1.701   8.156  20.354  0.00  0.00    +0.000 A 
ATOM     20  C   UNL     1       2.433   7.033  19.957  0.00  0.00    +0.000 A 
ENDBRANCH  12  15
BRANCH   9  21
ATOM     21  C   UNL     1       3.134   1.947  17.854  0.00  0.00    +0.000 C 
ATOM     22  O   UNL     1       3.730   0.971  18.288  0.00  0.00    +0.000 OA
BRANCH  21  23
ATOM     23  O   UNL     1       1.882   1.842  17.356  0.00  0.00    +0.000 OA
ATOM     24  H   UNL     1       1.196   2.360  17.846  0.00  0.00    +0.000 HD
ENDBRANCH  21  23
ENDBRANCH   9  21
TORSDOF 3
ENDMDL
MODEL 7
REMARK VINA RESULT:      -8.1      1.107      1.493
REMARK  Name = 
REMARK  5 active torsions:
REMARK  status: ('A' for Active; 'I' for Inactive)
REMARK    1  A    between atoms: C_1  and  C_2
REMARK    2  A    between atoms: C_2  and  C_3
REMARK    3  A    between atoms: C_9  and  C_10
REMARK    4  A    between atoms: C_10  and  O_12
REMARK    5  A    between atoms: N_15  and  C_16
REMARK                            x       y       z     vdW  Elec       q    Type
REMARK                         _______ _______ _______ _____ _____    ______ ____
ROOT
ATOM      1  C   UNL     1       0.795   2.898  21.156  0.00  0.00    +0.000 C 
ATOM      2  C   UNL     1       1.629   2.987  19.865  0.00  0.00    +0.000 C 
ATOM      3  C   UNL     1       0.732   2.541  18.689  0.00  0.00    +0.000 C 
ATOM      4  C   UNL     1       2.859   2.082  19.985  0.00  0.00    +0.000 C 
ATOM      5  C   UNL     1       3.723   2.198  18.749  0.00  0.00    +0.000 C 
ATOM      6  O   UNL     1       4.278   1.213  18.269  0.00  0.00    +0.000 OA
ATOM      7  C   UNL     1       3.919   3.565  18.153  0.00  0.00    +0.000 A 
ATOM      8  C   UNL     1       4.880   3.738  17.082  0.00  0.00    +0.000 A 
ATOM      9  C   UNL     1       5.072   4.927  16.489  0.00  0.00    +0.000 A 
ATOM     10  C   UNL     1       4.277   6.093  16.954  0.00  0.00    +0.000 A 
ATOM     11  O   UNL     1       4.480   7.176  16.396  0.00  0.00    +0.000 OA
ATOM     12  N   UNL     1       3.382   5.887  18.026  0.00  0.00    +0.000 N 
ATOM     13  C   UNL     1       3.200   4.610  18.606  0.00  0.00    +0.000 A 
ATOM     14  C   UNL     1       2.117   4.440  19.668  0.00  0.00    +0.000 C 
ENDROOT
BRANCH  12  15
ATOM     15  C   UNL     1       2.697   7.052  18.496  0.00  0.00    +0.000 A 
ATOM     16  C   UNL     1       2.403   7.192  19.860  0.00  0.00    +0.000 A 
ATOM     17  C   UNL     1       1.710   8.311  20.323  0.00  0.00    +0.000 A 
ATOM     18  C   UNL     1       1.298   9.297  19.427  0.00  0.00    +0.000 A 
ATOM     19  C   UNL     1       1.582   9.166  18.068  0.00  0.00    +0.000 A 
ATOM     20  C   UNL     1       2.278   8.047  17.602  0.00  0.00    +0.000 A 
ENDBRANCH  12  15
BRANCH   9  21
ATOM     21  C   UNL     1       6.080   5.032  15.402  0.00  0.00    +0.000 C 
ATOM     22  O   UNL     1       5.964   4.464  14.325  0.00  0.00    +0.000 OA
BRANCH  21  23
ATOM     23  O   UNL     1       7.154   5.806  15.677  0.00  0.00    +0.000 OA
ATOM     24  H   UNL     1       7.350   5.914  16.640  0.00  0.00    +0.000 HD
ENDBRANCH  21  23
ENDBRANCH   9  21
TORSDOF 3
ENDMDL
MODEL 8
REMARK VINA RESULT:      -8.1      2.124      4.864
REMARK  Name = 
REMARK  5 active torsions:
REMARK  status: ('A' for Active; 'I' for Inactive)
REMARK    1  A    between atoms: C_1  and  C_2
REMARK    2  A    between atoms: C_2  and  C_3
REMARK    3  A    between atoms: C_9  and  C_10
REMARK    4  A    between atoms: C_10  and  O_12
REMARK    5  A    between atoms: N_15  and  C_16
REMARK                            x       y       z     vdW  Elec       q    Type
REMARK                         _______ _______ _______ _____ _____    ______ ____
ROOT
ATOM      1  C   UNL     1       3.826   0.684  18.785  0.00  0.00    +0.000 C 
ATOM      2  C   UNL     1       3.486   2.143  19.139  0.00  0.00    +0.000 C 
ATOM      3  C   UNL     1       4.234   2.502  20.442  0.00  0.00    +0.000 C 
ATOM      4  C   UNL     1       1.972   2.288  19.322  0.00  0.00    +0.000 C 
ATOM      5  C   UNL     1       1.611   3.727  19.613  0.00  0.00    +0.000 C 
ATOM      6  O   UNL     1       0.734   4.008  20.427  0.00  0.00    +0.000 OA
ATOM      7  C   UNL     1       2.325   4.803  18.843  0.00  0.00    +0.000 A 
ATOM      8  C   UNL     1       1.879   6.176  18.966  0.00  0.00    +0.000 A 
ATOM      9  C   UNL     1       2.500   7.183  18.330  0.00  0.00    +0.000 A 
ATOM     10  C   UNL     1       3.673   6.868  17.473  0.00  0.00    +0.000 A 
ATOM     11  O   UNL     1       4.219   7.811  16.893  0.00  0.00    +0.000 OA
ATOM     12  N   UNL     1       4.047   5.513  17.350  0.00  0.00    +0.000 N 
ATOM     13  C   UNL     1       3.373   4.490  18.057  0.00  0.00    +0.000 A 
ATOM     14  C   UNL     1       3.922   3.068  17.979  0.00  0.00    +0.000 C 
ENDROOT
BRANCH  12  15
ATOM     15  C   UNL     1       5.129   5.246  16.453  0.00  0.00    +0.000 A 
ATOM     16  C   UNL     1       4.867   4.811  15.146  0.00  0.00    +0.000 A 
ATOM     17  C   UNL     1       5.916   4.522  14.272  0.00  0.00    +0.000 A 
ATOM     18  C   UNL     1       7.237   4.657  14.699  0.00  0.00    +0.000 A 
ATOM     19  C   UNL     1       7.508   5.086  15.998  0.00  0.00    +0.000 A 
ATOM     20  C   UNL     1       6.459   5.379  16.874  0.00  0.00    +0.000 A 
ENDBRANCH  12  15
BRANCH   9  21
ATOM     21  C   UNL     1       1.983   8.565  18.498  0.00  0.00    +0.000 C 
ATOM     22  O   UNL     1       1.517   8.983  19.548  0.00  0.00    +0.000 OA
BRANCH  21  23
ATOM     23  O   UNL     1       2.057   9.351  17.400  0.00  0.00    +0.000 OA
ATOM     24  H   UNL     1       1.533  10.187  17.453  0.00  0.00    +0.000 HD
ENDBRANCH  21  23
ENDBRANCH   9  21
TORSDOF 3
ENDMDL
MODEL 9
REMARK VINA RESULT:      -8.0      2.122      4.921
REMARK  Name = 
REMARK  5 active torsions:
REMARK  status: ('A' for Active; 'I' for Inactive)
REMARK    1  A    between atoms: C_1  and  C_2
REMARK    2  A    between atoms: C_2  and  C_3
REMARK    3  A    between atoms: C_9  and  C_10
REMARK    4  A    between atoms: C_10  and  O_12
REMARK    5  A    between atoms: N_15  and  C_16
REMARK                            x       y       z     vdW  Elec       q    Type
REMARK                         _______ _______ _______ _____ _____    ______ ____
ROOT
ATOM      1  C   UNL     1       3.799   0.662  18.806  0.00  0.00    +0.000 C 
ATOM      2  C   UNL     1       3.469   2.124  19.152  0.00  0.00    +0.000 C 
ATOM      3  C   UNL     1       4.220   2.486  20.453  0.00  0.00    +0.000 C 
ATOM      4  C   UNL     1       1.956   2.279  19.336  0.00  0.00    +0.000 C 
ATOM      5  C   UNL     1       1.603   3.722  19.620  0.00  0.00    +0.000 C 
ATOM      6  O   UNL     1       0.729   4.012  20.433  0.00  0.00    +0.000 OA
ATOM      7  C   UNL     1       2.323   4.789  18.843  0.00  0.00    +0.000 A 
ATOM      8  C   UNL     1       1.884   6.166  18.959  0.00  0.00    +0.000 A 
ATOM      9  C   UNL     1       2.510   7.165  18.316  0.00  0.00    +0.000 A 
ATOM     10  C   UNL     1       3.680   6.839  17.460  0.00  0.00    +0.000 A 
ATOM     11  O   UNL     1       4.231   7.776  16.874  0.00  0.00    +0.000 OA
ATOM     12  N   UNL     1       4.047   5.481  17.344  0.00  0.00    +0.000 N 
ATOM     13  C   UNL     1       3.368   4.466  18.057  0.00  0.00    +0.000 A 
ATOM     14  C   UNL     1       3.909   3.040  17.987  0.00  0.00    +0.000 C 
ENDROOT
BRANCH  12  15
ATOM     15  C   UNL     1       5.126   5.203  16.447  0.00  0.00    +0.000 A 
ATOM     16  C   UNL     1       6.452   5.387  16.866  0.00  0.00    +0.000 A 
ATOM     17  C   UNL     1       7.511   5.145  15.990  0.00  0.00    +0.000 A 
ATOM     18  C   UNL     1       7.255   4.727  14.685  0.00  0.00    +0.000 A 
ATOM     19  C   UNL     1       5.940   4.545  14.257  0.00  0.00    +0.000 A 
ATOM     20  C   UNL     1       4.878   4.782  15.134  0.00  0.00    +0.000 A 
ENDBRANCH  12  15
BRANCH   9  21
ATOM     21  C   UNL     1       2.001   8.552  18.477  0.00  0.00    +0.000 C 
ATOM     22  O   UNL     1       1.545   8.980  19.527  0.00  0.00    +0.000 OA
BRANCH  21  23
ATOM     23  O   UNL     1       2.071   9.328  17.372  0.00  0.00    +0.000 OA
ATOM     24  H   UNL     1       1.505  10.138  17.399  0.00  0.00    +0.000 HD
ENDBRANCH  21  23
ENDBRANCH   9  21
TORSDOF 3
ENDMDL
