MODEL 1
REMARK VINA RESULT:      -6.8      0.000      0.000
REMARK  Name = 
REMARK  10 active torsions:
REMARK  status: ('A' for Active; 'I' for Inactive)
REMARK    1  A    between atoms: C_1  and  C_2
REMARK    2  A    between atoms: C_2  and  C_3
REMARK    3  A    between atoms: C_2  and  C_4
REMARK    4  A    between atoms: C_4  and  O_5
REMARK    5  A    between atoms: O_5  and  C_6
REMARK    6  A    between atoms: C_9  and  C_10
REMARK    7  A    between atoms: C_10  and  O_12
REMARK    8  A    between atoms: O_12  and  C_13
REMARK    9  A    between atoms: C_13  and  C_14
REMARK   10  A    between atoms: C_14  and  N_15
REMARK                            x       y       z     vdW  Elec       q    Type
REMARK                         _______ _______ _______ _____ _____    ______ ____
ROOT
ATOM      1  C   UNL     1       6.027   4.333  14.802  0.00  0.00    +0.000 A 
ATOM      2  C   UNL     1       5.720   5.699  14.667  0.00  0.00    +0.000 A 
ATOM      3  C   UNL     1       5.088   6.384  15.696  0.00  0.00    +0.000 A 
ATOM      4  C   UNL     1       4.729   5.721  16.877  0.00  0.00    +0.000 A 
ATOM      5  C   UNL     1       5.031   4.360  17.022  0.00  0.00    +0.000 A 
ATOM      6  C   UNL     1       5.687   3.672  15.991  0.00  0.00    +0.000 A 
ENDROOT
BRANCH   4   7
ATOM      7  C   UNL     1       4.025   6.482  17.930  0.00  0.00    +0.000 C 
ATOM      8  O   UNL     1       3.521   7.569  17.695  0.00  0.00    +0.000 OA
BRANCH   7   9
ATOM      9  O   UNL     1       3.937   5.945  19.167  0.00  0.00    +0.000 OA
BRANCH   9  10
ATOM     10  C   UNL     1       2.762   5.664  19.812  0.00  0.00    +0.000 C 
BRANCH  10  11
ATOM     11  C   UNL     1       1.911   4.711  18.973  0.00  0.00    +0.000 C 
BRANCH  11  12
ATOM     12  N   UNL     1       1.643   3.431  19.678  0.00  0.00    +0.000 NA
ATOM     13  C   UNL     1       2.766   2.929  20.500  0.00  0.00    +0.000 C 
ATOM     14  C   UNL     1       3.920   2.434  19.612  0.00  0.00    +0.000 C 
ATOM     15  O   UNL     1       3.481   1.387  18.771  0.00  0.00    +0.000 OA
ATOM     16  C   UNL     1       2.448   1.852  17.921  0.00  0.00    +0.000 C 
ATOM     17  C   UNL     1       1.240   2.366  18.736  0.00  0.00    +0.000 C 
ENDBRANCH  11  12
ENDBRANCH  10  11
ENDBRANCH   9  10
ENDBRANCH   7   9
ENDBRANCH   4   7
BRANCH   1  18
ATOM     18  O   UNL     1       6.629   3.631  13.814  0.00  0.00    +0.000 OA
BRANCH  18  19
ATOM     19  C   UNL     1       6.318   3.755  12.474  0.00  0.00    +0.000 C 
BRANCH  19  21
ATOM     20  C   UNL     1       4.185   3.240  11.237  0.00  0.00    +0.000 C 
ATOM     21  C   UNL     1       5.355   2.650  12.038  0.00  0.00    +0.000 C 
ATOM     22  C   UNL     1       6.110   1.611  11.198  0.00  0.00    +0.000 C 
ENDBRANCH  19  21
ENDBRANCH  18  19
ENDBRANCH   1  18
TORSDOF 8
ENDMDL
MODEL 2
REMARK VINA RESULT:      -6.8      1.713      2.406
REMARK  Name = 
REMARK  10 active torsions:
REMARK  status: ('A' for Active; 'I' for Inactive)
REMARK    1  A    between atoms: C_1  and  C_2
REMARK    2  A    between atoms: C_2  and  C_3
REMARK    3  A    between atoms: C_2  and  C_4
REMARK    4  A    between atoms: C_4  and  O_5
REMARK    5  A    between atoms: O_5  and  C_6
REMARK    6  A    between atoms: C_9  and  C_10
REMARK    7  A    between atoms: C_10  and  O_12
REMARK    8  A    between atoms: O_12  and  C_13
REMARK    9  A    between atoms: C_13  and  C_14
REMARK   10  A    between atoms: C_14  and  N_15
REMARK                            x       y       z     vdW  Elec       q    Type
REMARK                         _______ _______ _______ _____ _____    ______ ____
ROOT
ATOM      1  C   UNL     1       5.888   4.608  14.588  0.00  0.00    +0.000 A 
ATOM      2  C   UNL     1       6.732   3.838  15.409  0.00  0.00    +0.000 A 
ATOM      3  C   UNL     1       7.036   4.258  16.697  0.00  0.00    +0.000 A 
ATOM      4  C   UNL     1       6.524   5.465  17.192  0.00  0.00    +0.000 A 
ATOM      5  C   UNL     1       5.681   6.240  16.383  0.00  0.00    +0.000 A 
ATOM      6  C   UNL     1       5.358   5.806  15.089  0.00  0.00    +0.000 A 
ENDROOT
BRANCH   4   7
ATOM      7  C   UNL     1       6.905   5.890  18.555  0.00  0.00    +0.000 C 
ATOM      8  O   UNL     1       7.897   6.575  18.750  0.00  0.00    +0.000 OA
BRANCH   7   9
ATOM      9  O   UNL     1       6.124   5.514  19.592  0.00  0.00    +0.000 OA
BRANCH   9  10
ATOM     10  C   UNL     1       4.762   5.380  19.533  0.00  0.00    +0.000 C 
BRANCH  10  11
ATOM     11  C   UNL     1       4.379   3.908  19.385  0.00  0.00    +0.000 C 
BRANCH  11  12
ATOM     12  N   UNL     1       3.576   3.658  18.160  0.00  0.00    +0.000 NA
ATOM     13  C   UNL     1       2.336   4.460  18.058  0.00  0.00    +0.000 C 
ATOM     14  C   UNL     1       1.292   3.992  19.085  0.00  0.00    +0.000 C 
ATOM     15  O   UNL     1       0.964   2.634  18.870  0.00  0.00    +0.000 OA
ATOM     16  C   UNL     1       2.118   1.828  19.027  0.00  0.00    +0.000 C 
ATOM     17  C   UNL     1       3.222   2.230  18.024  0.00  0.00    +0.000 C 
ENDBRANCH  11  12
ENDBRANCH  10  11
ENDBRANCH   9  10
ENDBRANCH   7   9
ENDBRANCH   4   7
BRANCH   1  18
ATOM     18  O   UNL     1       5.582   4.237  13.323  0.00  0.00    +0.000 OA
BRANCH  18  19
ATOM     19  C   UNL     1       6.417   3.496  12.510  0.00  0.00    +0.000 C 
BRANCH  19  21
ATOM     20  C   UNL     1       5.882   1.396  11.226  0.00  0.00    +0.000 C 
ATOM     21  C   UNL     1       5.639   2.909  11.330  0.00  0.00    +0.000 C 
ATOM     22  C   UNL     1       4.143   3.202  11.502  0.00  0.00    +0.000 C 
ENDBRANCH  19  21
ENDBRANCH  18  19
ENDBRANCH   1  18
TORSDOF 8
ENDMDL
MODEL 3
REMARK VINA RESULT:      -6.7      0.872      1.372
REMARK  Name = 
REMARK  10 active torsions:
REMARK  status: ('A' for Active; 'I' for Inactive)
REMARK    1  A    between atoms: C_1  and  C_2
REMARK    2  A    between atoms: C_2  and  C_3
REMARK    3  A    between atoms: C_2  and  C_4
REMARK    4  A    between atoms: C_4  and  O_5
REMARK    5  A    between atoms: O_5  and  C_6
REMARK    6  A    between atoms: C_9  and  C_10
REMARK    7  A    between atoms: C_10  and  O_12
REMARK    8  A    between atoms: O_12  and  C_13
REMARK    9  A    between atoms: C_13  and  C_14
REMARK   10  A    between atoms: C_14  and  N_15
REMARK                            x       y       z     vdW  Elec       q    Type
REMARK                         _______ _______ _______ _____ _____    ______ ____
ROOT
ATOM      1  C   UNL     1       5.600   4.735  14.739  0.00  0.00    +0.000 A 
ATOM      2  C   UNL     1       5.183   5.981  15.241  0.00  0.00    +0.000 A 
ATOM      3  C   UNL     1       5.110   6.199  16.610  0.00  0.00    +0.000 A 
ATOM      4  C   UNL     1       5.431   5.177  17.513  0.00  0.00    +0.000 A 
ATOM      5  C   UNL     1       5.848   3.931  17.023  0.00  0.00    +0.000 A 
ATOM      6  C   UNL     1       5.942   3.716  15.640  0.00  0.00    +0.000 A 
ENDROOT
BRANCH   4   7
ATOM      7  C   UNL     1       5.303   5.443  18.960  0.00  0.00    +0.000 C 
ATOM      8  O   UNL     1       6.186   5.127  19.743  0.00  0.00    +0.000 OA
BRANCH   7   9
ATOM      9  O   UNL     1       4.186   6.057  19.409  0.00  0.00    +0.000 OA
BRANCH   9  10
ATOM     10  C   UNL     1       3.177   5.435  20.096  0.00  0.00    +0.000 C 
BRANCH  10  11
ATOM     11  C   UNL     1       2.234   4.724  19.127  0.00  0.00    +0.000 C 
BRANCH  11  12
ATOM     12  N   UNL     1       1.795   3.401  19.641  0.00  0.00    +0.000 NA
ATOM     13  C   UNL     1       2.800   2.691  20.462  0.00  0.00    +0.000 C 
ATOM     14  C   UNL     1       3.968   2.194  19.595  0.00  0.00    +0.000 C 
ATOM     15  O   UNL     1       3.500   1.307  18.599  0.00  0.00    +0.000 OA
ATOM     16  C   UNL     1       2.584   1.975  17.751  0.00  0.00    +0.000 C 
ATOM     17  C   UNL     1       1.369   2.506  18.545  0.00  0.00    +0.000 C 
ENDBRANCH  11  12
ENDBRANCH  10  11
ENDBRANCH   9  10
ENDBRANCH   7   9
ENDBRANCH   4   7
BRANCH   1  18
ATOM     18  O   UNL     1       5.669   4.482  13.411  0.00  0.00    +0.000 OA
BRANCH  18  19
ATOM     19  C   UNL     1       6.397   3.449  12.855  0.00  0.00    +0.000 C 
BRANCH  19  21
ATOM     20  C   UNL     1       5.990   1.463  11.360  0.00  0.00    +0.000 C 
ATOM     21  C   UNL     1       5.747   2.967  11.557  0.00  0.00    +0.000 C 
ATOM     22  C   UNL     1       4.242   3.266  11.593  0.00  0.00    +0.000 C 
ENDBRANCH  19  21
ENDBRANCH  18  19
ENDBRANCH   1  18
TORSDOF 8
ENDMDL
MODEL 4
REMARK VINA RESULT:      -6.6      0.968      1.230
REMARK  Name = 
REMARK  10 active torsions:
REMARK  status: ('A' for Active; 'I' for Inactive)
REMARK    1  A    between atoms: C_1  and  C_2
REMARK    2  A    between atoms: C_2  and  C_3
REMARK    3  A    between atoms: C_2  and  C_4
REMARK    4  A    between atoms: C_4  and  O_5
REMARK    5  A    between atoms: O_5  and  C_6
REMARK    6  A    between atoms: C_9  and  C_10
REMARK    7  A    between atoms: C_10  and  O_12
REMARK    8  A    between atoms: O_12  and  C_13
REMARK    9  A    between atoms: C_13  and  C_14
REMARK   10  A    between atoms: C_14  and  N_15
REMARK                            x       y       z     vdW  Elec       q    Type
REMARK                         _______ _______ _______ _____ _____    ______ ____
ROOT
ATOM      1  C   UNL     1       6.468   4.108  14.707  0.00  0.00    +0.000 A 
ATOM      2  C   UNL     1       7.356   4.909  15.449  0.00  0.00    +0.000 A 
ATOM      3  C   UNL     1       7.022   5.330  16.729  0.00  0.00    +0.000 A 
ATOM      4  C   UNL     1       5.789   4.980  17.295  0.00  0.00    +0.000 A 
ATOM      5  C   UNL     1       4.897   4.182  16.564  0.00  0.00    +0.000 A 
ATOM      6  C   UNL     1       5.242   3.740  15.279  0.00  0.00    +0.000 A 
ENDROOT
BRANCH   4   7
ATOM      7  C   UNL     1       5.461   5.482  18.645  0.00  0.00    +0.000 C 
ATOM      8  O   UNL     1       6.293   5.482  19.539  0.00  0.00    +0.000 OA
BRANCH   7   9
ATOM      9  O   UNL     1       4.216   5.955  18.875  0.00  0.00    +0.000 OA
BRANCH   9  10
ATOM     10  C   UNL     1       3.342   5.434  19.792  0.00  0.00    +0.000 C 
BRANCH  10  11
ATOM     11  C   UNL     1       2.191   4.722  19.083  0.00  0.00    +0.000 C 
BRANCH  11  12
ATOM     12  N   UNL     1       1.859   3.421  19.719  0.00  0.00    +0.000 NA
ATOM     13  C   UNL     1       2.970   2.800  20.474  0.00  0.00    +0.000 C 
ATOM     14  C   UNL     1       4.064   2.288  19.523  0.00  0.00    +0.000 C 
ATOM     15  O   UNL     1       3.535   1.324  18.636  0.00  0.00    +0.000 OA
ATOM     16  C   UNL     1       2.512   1.904  17.848  0.00  0.00    +0.000 C 
ATOM     17  C   UNL     1       1.363   2.443  18.729  0.00  0.00    +0.000 C 
ENDBRANCH  11  12
ENDBRANCH  10  11
ENDBRANCH   9  10
ENDBRANCH   7   9
ENDBRANCH   4   7
BRANCH   1  18
ATOM     18  O   UNL     1       6.755   3.693  13.451  0.00  0.00    +0.000 OA
BRANCH  18  19
ATOM     19  C   UNL     1       5.991   3.996  12.342  0.00  0.00    +0.000 C 
BRANCH  19  21
ATOM     20  C   UNL     1       4.016   3.229  10.978  0.00  0.00    +0.000 C 
ATOM     21  C   UNL     1       5.147   2.791  11.921  0.00  0.00    +0.000 C 
ATOM     22  C   UNL     1       6.042   1.749  11.237  0.00  0.00    +0.000 C 
ENDBRANCH  19  21
ENDBRANCH  18  19
ENDBRANCH   1  18
TORSDOF 8
ENDMDL
MODEL 5
REMARK VINA RESULT:      -6.5      3.607      7.426
REMARK  Name = 
REMARK  10 active torsions:
REMARK  status: ('A' for Active; 'I' for Inactive)
REMARK    1  A    between atoms: C_1  and  C_2
REMARK    2  A    between atoms: C_2  and  C_3
REMARK    3  A    between atoms: C_2  and  C_4
REMARK    4  A    between atoms: C_4  and  O_5
REMARK    5  A    between atoms: O_5  and  C_6
REMARK    6  A    between atoms: C_9  and  C_10
REMARK    7  A    between atoms: C_10  and  O_12
REMARK    8  A    between atoms: O_12  and  C_13
REMARK    9  A    between atoms: C_13  and  C_14
REMARK   10  A    between atoms: C_14  and  N_15
REMARK                            x       y       z     vdW  Elec       q    Type
REMARK                         _______ _______ _______ _____ _____    ______ ____
ROOT
ATOM      1  C   UNL     1       1.567   8.136  19.889  0.00  0.00    +0.000 A 
ATOM      2  C   UNL     1       2.135   7.817  18.642  0.00  0.00    +0.000 A 
ATOM      3  C   UNL     1       2.497   6.510  18.347  0.00  0.00    +0.000 A 
ATOM      4  C   UNL     1       2.322   5.491  19.293  0.00  0.00    +0.000 A 
ATOM      5  C   UNL     1       1.757   5.798  20.539  0.00  0.00    +0.000 A 
ATOM      6  C   UNL     1       1.372   7.115  20.830  0.00  0.00    +0.000 A 
ENDROOT
BRANCH   4   7
ATOM      7  C   UNL     1       2.756   4.122  18.949  0.00  0.00    +0.000 C 
ATOM      8  O   UNL     1       2.023   3.360  18.338  0.00  0.00    +0.000 OA
BRANCH   7   9
ATOM      9  O   UNL     1       3.995   3.725  19.315  0.00  0.00    +0.000 OA
BRANCH   9  10
ATOM     10  C   UNL     1       5.130   3.933  18.576  0.00  0.00    +0.000 C 
BRANCH  10  11
ATOM     11  C   UNL     1       5.927   5.105  19.147  0.00  0.00    +0.000 C 
BRANCH  11  12
ATOM     12  N   UNL     1       7.347   5.082  18.711  0.00  0.00    +0.000 NA
ATOM     13  C   UNL     1       8.036   6.391  18.773  0.00  0.00    +0.000 C 
ATOM     14  C   UNL     1       7.506   7.343  17.689  0.00  0.00    +0.000 C 
ATOM     15  O   UNL     1       7.713   6.791  16.404  0.00  0.00    +0.000 OA
ATOM     16  C   UNL     1       7.011   5.567  16.286  0.00  0.00    +0.000 C 
ATOM     17  C   UNL     1       7.487   4.545  17.342  0.00  0.00    +0.000 C 
ENDBRANCH  11  12
ENDBRANCH  10  11
ENDBRANCH   9  10
ENDBRANCH   7   9
ENDBRANCH   4   7
BRANCH   1  18
ATOM     18  O   UNL     1       1.216   9.402  20.216  0.00  0.00    +0.000 OA
BRANCH  18  19
ATOM     19  C   UNL     1      -0.086   9.857  20.265  0.00  0.00    +0.000 C 
BRANCH  19  21
ATOM     20  C   UNL     1       0.968  11.610  18.795  0.00  0.00    +0.000 C 
ATOM     21  C   UNL     1      -0.338  10.892  19.167  0.00  0.00    +0.000 C 
ATOM     22  C   UNL     1      -0.940  10.202  17.936  0.00  0.00    +0.000 C 
ENDBRANCH  19  21
ENDBRANCH  18  19
ENDBRANCH   1  18
TORSDOF 8
ENDMDL
MODEL 6
REMARK VINA RESULT:      -6.5      0.662      1.353
REMARK  Name = 
REMARK  10 active torsions:
REMARK  status: ('A' for Active; 'I' for Inactive)
REMARK    1  A    between atoms: C_1  and  C_2
REMARK    2  A    between atoms: C_2  and  C_3
REMARK    3  A    between atoms: C_2  and  C_4
REMARK    4  A    between atoms: C_4  and  O_5
REMARK    5  A    between atoms: O_5  and  C_6
REMARK    6  A    between atoms: C_9  and  C_10
REMARK    7  A    between atoms: C_10  and  O_12
REMARK    8  A    between atoms: O_12  and  C_13
REMARK    9  A    between atoms: C_13  and  C_14
REMARK   10  A    between atoms: C_14  and  N_15
REMARK                            x       y       z     vdW  Elec       q    Type
REMARK                         _______ _______ _______ _____ _____    ______ ____
ROOT
ATOM      1  C   UNL     1       6.149   4.282  14.651  0.00  0.00    +0.000 A 
ATOM      2  C   UNL     1       6.173   3.499  15.820  0.00  0.00    +0.000 A 
ATOM      3  C   UNL     1       5.727   4.020  17.027  0.00  0.00    +0.000 A 
ATOM      4  C   UNL     1       5.264   5.341  17.104  0.00  0.00    +0.000 A 
ATOM      5  C   UNL     1       5.235   6.130  15.946  0.00  0.00    +0.000 A 
ATOM      6  C   UNL     1       5.667   5.596  14.722  0.00  0.00    +0.000 A 
ENDROOT
BRANCH   4   7
ATOM      7  C   UNL     1       4.835   5.865  18.417  0.00  0.00    +0.000 C 
ATOM      8  O   UNL     1       5.496   5.668  19.424  0.00  0.00    +0.000 OA
BRANCH   7   9
ATOM      9  O   UNL     1       3.692   6.583  18.484  0.00  0.00    +0.000 OA
BRANCH   9  10
ATOM     10  C   UNL     1       2.544   6.162  19.102  0.00  0.00    +0.000 C 
BRANCH  10  11
ATOM     11  C   UNL     1       1.952   4.962  18.364  0.00  0.00    +0.000 C 
BRANCH  11  12
ATOM     12  N   UNL     1       1.528   3.885  19.296  0.00  0.00    +0.000 NA
ATOM     13  C   UNL     1       2.553   3.482  20.285  0.00  0.00    +0.000 C 
ATOM     14  C   UNL     1       3.704   2.722  19.606  0.00  0.00    +0.000 C 
ATOM     15  O   UNL     1       3.218   1.558  18.969  0.00  0.00    +0.000 OA
ATOM     16  C   UNL     1       2.283   1.912  17.967  0.00  0.00    +0.000 C 
ATOM     17  C   UNL     1       1.083   2.680  18.566  0.00  0.00    +0.000 C 
ENDBRANCH  11  12
ENDBRANCH  10  11
ENDBRANCH   9  10
ENDBRANCH   7   9
ENDBRANCH   4   7
BRANCH   1  18
ATOM     18  O   UNL     1       6.589   3.810  13.462  0.00  0.00    +0.000 OA
BRANCH  18  19
ATOM     19  C   UNL     1       5.939   4.010  12.260  0.00  0.00    +0.000 C 
BRANCH  19  21
ATOM     20  C   UNL     1       3.903   3.266  10.977  0.00  0.00    +0.000 C 
ATOM     21  C   UNL     1       5.016   2.832  11.943  0.00  0.00    +0.000 C 
ATOM     22  C   UNL     1       5.835   1.685  11.337  0.00  0.00    +0.000 C 
ENDBRANCH  19  21
ENDBRANCH  18  19
ENDBRANCH   1  18
TORSDOF 8
ENDMDL
MODEL 7
REMARK VINA RESULT:      -6.4      5.263      8.434
REMARK  Name = 
REMARK  10 active torsions:
REMARK  status: ('A' for Active; 'I' for Inactive)
REMARK    1  A    between atoms: C_1  and  C_2
REMARK    2  A    between atoms: C_2  and  C_3
REMARK    3  A    between atoms: C_2  and  C_4
REMARK    4  A    between atoms: C_4  and  O_5
REMARK    5  A    between atoms: O_5  and  C_6
REMARK    6  A    between atoms: C_9  and  C_10
REMARK    7  A    between atoms: C_10  and  O_12
REMARK    8  A    between atoms: O_12  and  C_13
REMARK    9  A    between atoms: C_13  and  C_14
REMARK   10  A    between atoms: C_14  and  N_15
REMARK                            x       y       z     vdW  Elec       q    Type
REMARK                         _______ _______ _______ _____ _____    ______ ____
ROOT
ATOM      1  C   UNL     1       3.553   5.703  18.791  0.00  0.00    +0.000 A 
ATOM      2  C   UNL     1       4.752   5.176  19.306  0.00  0.00    +0.000 A 
ATOM      3  C   UNL     1       5.978   5.623  18.832  0.00  0.00    +0.000 A 
ATOM      4  C   UNL     1       6.041   6.589  17.820  0.00  0.00    +0.000 A 
ATOM      5  C   UNL     1       4.853   7.121  17.299  0.00  0.00    +0.000 A 
ATOM      6  C   UNL     1       3.614   6.685  17.792  0.00  0.00    +0.000 A 
ENDROOT
BRANCH   4   7
ATOM      7  C   UNL     1       7.368   7.006  17.321  0.00  0.00    +0.000 C 
ATOM      8  O   UNL     1       7.813   6.573  16.270  0.00  0.00    +0.000 OA
BRANCH   7   9
ATOM      9  O   UNL     1       8.083   7.892  18.048  0.00  0.00    +0.000 OA
BRANCH   9  10
ATOM     10  C   UNL     1       8.100   9.245  17.830  0.00  0.00    +0.000 C 
BRANCH  10  11
ATOM     11  C   UNL     1       9.014   9.934  18.842  0.00  0.00    +0.000 C 
BRANCH  11  12
ATOM     12  N   UNL     1       9.882  10.960  18.207  0.00  0.00    +0.000 NA
ATOM     13  C   UNL     1      11.065  11.350  19.005  0.00  0.00    +0.000 C 
ATOM     14  C   UNL     1      10.652  12.169  20.239  0.00  0.00    +0.000 C 
ATOM     15  O   UNL     1       9.973  13.344  19.845  0.00  0.00    +0.000 OA
ATOM     16  C   UNL     1       8.795  13.006  19.135  0.00  0.00    +0.000 C 
ATOM     17  C   UNL     1       9.122  12.181  17.870  0.00  0.00    +0.000 C 
ENDBRANCH  11  12
ENDBRANCH  10  11
ENDBRANCH   9  10
ENDBRANCH   7   9
ENDBRANCH   4   7
BRANCH   1  18
ATOM     18  O   UNL     1       2.340   5.280  19.219  0.00  0.00    +0.000 OA
BRANCH  18  19
ATOM     19  C   UNL     1       1.590   4.309  18.586  0.00  0.00    +0.000 C 
BRANCH  19  21
ATOM     20  C   UNL     1       1.466   1.870  19.205  0.00  0.00    +0.000 C 
ATOM     21  C   UNL     1       1.053   3.297  19.599  0.00  0.00    +0.000 C 
ATOM     22  C   UNL     1       1.580   3.639  20.999  0.00  0.00    +0.000 C 
ENDBRANCH  19  21
ENDBRANCH  18  19
ENDBRANCH   1  18
TORSDOF 8
ENDMDL
MODEL 8
REMARK VINA RESULT:      -6.4      1.763      2.322
REMARK  Name = 
REMARK  10 active torsions:
REMARK  status: ('A' for Active; 'I' for Inactive)
REMARK    1  A    between atoms: C_1  and  C_2
REMARK    2  A    between atoms: C_2  and  C_3
REMARK    3  A    between atoms: C_2  and  C_4
REMARK    4  A    between atoms: C_4  and  O_5
REMARK    5  A    between atoms: O_5  and  C_6
REMARK    6  A    between atoms: C_9  and  C_10
REMARK    7  A    between atoms: C_10  and  O_12
REMARK    8  A    between atoms: O_12  and  C_13
REMARK    9  A    between atoms: C_13  and  C_14
REMARK   10  A    between atoms: C_14  and  N_15
REMARK                            x       y       z     vdW  Elec       q    Type
REMARK                         _______ _______ _______ _____ _____    ______ ____
ROOT
ATOM      1  C   UNL     1       6.370   4.412  14.152  0.00  0.00    +0.000 A 
ATOM      2  C   UNL     1       7.487   5.038  14.735  0.00  0.00    +0.000 A 
ATOM      3  C   UNL     1       7.618   5.101  16.116  0.00  0.00    +0.000 A 
ATOM      4  C   UNL     1       6.631   4.561  16.950  0.00  0.00    +0.000 A 
ATOM      5  C   UNL     1       5.514   3.934  16.380  0.00  0.00    +0.000 A 
ATOM      6  C   UNL     1       5.391   3.852  14.985  0.00  0.00    +0.000 A 
ENDROOT
BRANCH   4   7
ATOM      7  C   UNL     1       6.794   4.685  18.413  0.00  0.00    +0.000 C 
ATOM      8  O   UNL     1       7.837   5.094  18.901  0.00  0.00    +0.000 OA
BRANCH   7   9
ATOM      9  O   UNL     1       5.758   4.346  19.211  0.00  0.00    +0.000 OA
BRANCH   9  10
ATOM     10  C   UNL     1       4.771   5.207  19.614  0.00  0.00    +0.000 C 
BRANCH  10  11
ATOM     11  C   UNL     1       3.398   4.657  19.231  0.00  0.00    +0.000 C 
BRANCH  11  12
ATOM     12  N   UNL     1       3.267   3.210  19.543  0.00  0.00    +0.000 NA
ATOM     13  C   UNL     1       2.534   2.422  18.527  0.00  0.00    +0.000 C 
ATOM     14  C   UNL     1       1.036   2.768  18.537  0.00  0.00    +0.000 C 
ATOM     15  O   UNL     1       0.474   2.493  19.804  0.00  0.00    +0.000 OA
ATOM     16  C   UNL     1       1.108   3.283  20.794  0.00  0.00    +0.000 C 
ATOM     17  C   UNL     1       2.625   2.993  20.856  0.00  0.00    +0.000 C 
ENDBRANCH  11  12
ENDBRANCH  10  11
ENDBRANCH   9  10
ENDBRANCH   7   9
ENDBRANCH   4   7
BRANCH   1  18
ATOM     18  O   UNL     1       6.203   4.344  12.811  0.00  0.00    +0.000 OA
BRANCH  18  19
ATOM     19  C   UNL     1       6.652   3.302  12.025  0.00  0.00    +0.000 C 
BRANCH  19  21
ATOM     20  C   UNL     1       4.312   2.905  11.180  0.00  0.00    +0.000 C 
ATOM     21  C   UNL     1       5.549   2.261  11.826  0.00  0.00    +0.000 C 
ATOM     22  C   UNL     1       6.074   1.114  10.953  0.00  0.00    +0.000 C 
ENDBRANCH  19  21
ENDBRANCH  18  19
ENDBRANCH   1  18
TORSDOF 8
ENDMDL
MODEL 9
REMARK VINA RESULT:      -6.4      5.273      8.459
REMARK  Name = 
REMARK  10 active torsions:
REMARK  status: ('A' for Active; 'I' for Inactive)
REMARK    1  A    between atoms: C_1  and  C_2
REMARK    2  A    between atoms: C_2  and  C_3
REMARK    3  A    between atoms: C_2  and  C_4
REMARK    4  A    between atoms: C_4  and  O_5
REMARK    5  A    between atoms: O_5  and  C_6
REMARK    6  A    between atoms: C_9  and  C_10
REMARK    7  A    between atoms: C_10  and  O_12
REMARK    8  A    between atoms: O_12  and  C_13
REMARK    9  A    between atoms: C_13  and  C_14
REMARK   10  A    between atoms: C_14  and  N_15
REMARK                            x       y       z     vdW  Elec       q    Type
REMARK                         _______ _______ _______ _____ _____    ______ ____
ROOT
ATOM      1  C   UNL     1       3.972   4.879  18.713  0.00  0.00    +0.000 A 
ATOM      2  C   UNL     1       3.803   5.824  17.684  0.00  0.00    +0.000 A 
ATOM      3  C   UNL     1       4.877   6.587  17.246  0.00  0.00    +0.000 A 
ATOM      4  C   UNL     1       6.140   6.443  17.835  0.00  0.00    +0.000 A 
ATOM      5  C   UNL     1       6.320   5.504  18.861  0.00  0.00    +0.000 A 
ATOM      6  C   UNL     1       5.239   4.719  19.290  0.00  0.00    +0.000 A 
ENDROOT
BRANCH   4   7
ATOM      7  C   UNL     1       7.244   7.303  17.362  0.00  0.00    +0.000 C 
ATOM      8  O   UNL     1       7.955   6.964  16.429  0.00  0.00    +0.000 OA
BRANCH   7   9
ATOM      9  O   UNL     1       7.451   8.488  17.978  0.00  0.00    +0.000 OA
BRANCH   9  10
ATOM     10  C   UNL     1       8.583   9.248  17.846  0.00  0.00    +0.000 C 
BRANCH  10  11
ATOM     11  C   UNL     1       8.838  10.049  19.122  0.00  0.00    +0.000 C 
BRANCH  11  12
ATOM     12  N   UNL     1      10.123  10.793  19.070  0.00  0.00    +0.000 NA
ATOM     13  C   UNL     1      10.368  11.686  20.224  0.00  0.00    +0.000 C 
ATOM     14  C   UNL     1       9.428  12.902  20.190  0.00  0.00    +0.000 C 
ATOM     15  O   UNL     1       9.626  13.643  19.003  0.00  0.00    +0.000 OA
ATOM     16  C   UNL     1       9.333  12.837  17.876  0.00  0.00    +0.000 C 
ATOM     17  C   UNL     1      10.241  11.588  17.831  0.00  0.00    +0.000 C 
ENDBRANCH  11  12
ENDBRANCH  10  11
ENDBRANCH   9  10
ENDBRANCH   7   9
ENDBRANCH   4   7
BRANCH   1  18
ATOM     18  O   UNL     1       2.944   4.129  19.174  0.00  0.00    +0.000 OA
BRANCH  18  19
ATOM     19  C   UNL     1       1.935   4.611  19.985  0.00  0.00    +0.000 C 
BRANCH  19  21
ATOM     20  C   UNL     1       0.728   2.561  19.156  0.00  0.00    +0.000 C 
ATOM     21  C   UNL     1       0.960   3.492  20.356  0.00  0.00    +0.000 C 
ATOM     22  C   UNL     1       1.514   2.701  21.549  0.00  0.00    +0.000 C 
ENDBRANCH  19  21
ENDBRANCH  18  19
ENDBRANCH   1  18
TORSDOF 8
ENDMDL
