MODEL 1
REMARK VINA RESULT:      -7.5      0.000      0.000
REMARK  Name = 
REMARK  5 active torsions:
REMARK  status: ('A' for Active; 'I' for Inactive)
REMARK    1  A    between atoms: C_2  and  C_3
REMARK    2  A    between atoms: C_3  and  C_4
REMARK    3  A    between atoms: C_4  and  C_5
REMARK    4  A    between atoms: C_5  and  S_6
REMARK    5  A    between atoms: S_6  and  C_9
REMARK                            x       y       z     vdW  Elec       q    Type
REMARK                         _______ _______ _______ _____ _____    ______ ____
ROOT
ATOM      1  O   UNL     1       1.870   6.770  18.023  0.00  0.00    +0.000 OA
ATOM      2  C   UNL     1       3.063   6.555  18.127  0.00  0.00    +0.000 C 
ATOM      3  N   UNL     1       3.579   5.494  18.866  0.00  0.00    +0.000 N 
ATOM      4  C   UNL     1       2.824   4.506  19.476  0.00  0.00    +0.000 A 
ATOM      5  C   UNL     1       1.533   4.196  18.828  0.00  0.00    +0.000 A 
ATOM      6  C   UNL     1       0.905   3.144  19.322  0.00  0.00    +0.000 A 
ATOM      7  N   UNL     1       1.407   2.489  20.405  0.00  0.00    +0.000 N 
ATOM      8  C   UNL     1       2.572   2.860  21.047  0.00  0.00    +0.000 A 
ATOM      9  O   UNL     1       2.908   2.249  22.062  0.00  0.00    +0.000 OA
ATOM     10  N   UNL     1       3.322   3.877  20.490  0.00  0.00    +0.000 NA
ATOM     11  H   UNL     1       4.573   5.487  19.014  0.00  0.00    +0.000 HD
ATOM     12  H   UNL     1       0.930   1.693  20.810  0.00  0.00    +0.000 HD
ENDROOT
BRANCH   2  13
ATOM     13  C   UNL     1       4.113   7.449  17.482  0.00  0.00    +0.000 C 
BRANCH  13  14
ATOM     14  C   UNL     1       4.876   6.736  16.367  0.00  0.00    +0.000 C 
BRANCH  14  15
ATOM     15  C   UNL     1       6.297   6.381  16.789  0.00  0.00    +0.000 C 
BRANCH  15  16
ATOM     16  S   UNL     1       6.647   4.659  16.510  0.00  0.00    +0.000 S 
ATOM     17  O   UNL     1       7.981   4.380  17.029  0.00  0.00    +0.000 OA
ATOM     18  O   UNL     1       5.508   3.891  16.959  0.00  0.00    +0.000 OA
BRANCH  16  19
ATOM     19  C   UNL     1       6.742   4.505  14.742  0.00  0.00    +0.000 A 
ATOM     20  C   UNL     1       7.701   5.231  14.032  0.00  0.00    +0.000 A 
ATOM     21  C   UNL     1       7.773   5.096  12.646  0.00  0.00    +0.000 A 
ATOM     22  C   UNL     1       6.896   4.238  11.981  0.00  0.00    +0.000 A 
ATOM     23  C   UNL     1       5.947   3.507  12.697  0.00  0.00    +0.000 A 
ATOM     24  C   UNL     1       5.863   3.642  14.083  0.00  0.00    +0.000 A 
ENDBRANCH  16  19
ENDBRANCH  15  16
ENDBRANCH  14  15
ENDBRANCH  13  14
ENDBRANCH   2  13
TORSDOF 5
ENDMDL
MODEL 2
REMARK VINA RESULT:      -7.3      3.007      7.111
REMARK  Name = 
REMARK  5 active torsions:
REMARK  status: ('A' for Active; 'I' for Inactive)
REMARK    1  A    between atoms: C_2  and  C_3
REMARK    2  A    between atoms: C_3  and  C_4
REMARK    3  A    between atoms: C_4  and  C_5
REMARK    4  A    between atoms: C_5  and  S_6
REMARK    5  A    between atoms: S_6  and  C_9
REMARK                            x       y       z     vdW  Elec       q    Type
REMARK                         _______ _______ _______ _____ _____    ______ ____
ROOT
ATOM      1  O   UNL     1       7.514   6.418  16.376  0.00  0.00    +0.000 OA
ATOM      2  C   UNL     1       7.251   5.302  16.781  0.00  0.00    +0.000 C 
ATOM      3  N   UNL     1       6.855   4.266  15.940  0.00  0.00    +0.000 N 
ATOM      4  C   UNL     1       6.813   4.334  14.557  0.00  0.00    +0.000 A 
ATOM      5  C   UNL     1       7.780   5.259  13.932  0.00  0.00    +0.000 A 
ATOM      6  C   UNL     1       7.840   5.189  12.615  0.00  0.00    +0.000 A 
ATOM      7  N   UNL     1       6.987   4.379  11.930  0.00  0.00    +0.000 N 
ATOM      8  C   UNL     1       6.029   3.592  12.537  0.00  0.00    +0.000 A 
ATOM      9  O   UNL     1       5.256   2.947  11.829  0.00  0.00    +0.000 OA
ATOM     10  N   UNL     1       6.014   3.543  13.918  0.00  0.00    +0.000 NA
ATOM     11  H   UNL     1       6.517   3.429  16.381  0.00  0.00    +0.000 HD
ATOM     12  H   UNL     1       7.005   4.327  10.918  0.00  0.00    +0.000 HD
ENDROOT
BRANCH   2  13
ATOM     13  C   UNL     1       7.298   4.937  18.258  0.00  0.00    +0.000 C 
BRANCH  13  14
ATOM     14  C   UNL     1       5.910   4.664  18.834  0.00  0.00    +0.000 C 
BRANCH  14  15
ATOM     15  C   UNL     1       5.096   5.944  18.983  0.00  0.00    +0.000 C 
BRANCH  15  16
ATOM     16  S   UNL     1       3.675   5.940  17.912  0.00  0.00    +0.000 S 
ATOM     17  O   UNL     1       3.066   7.263  17.966  0.00  0.00    +0.000 OA
ATOM     18  O   UNL     1       4.068   5.362  16.647  0.00  0.00    +0.000 OA
BRANCH  16  19
ATOM     19  C   UNL     1       2.535   4.819  18.689  0.00  0.00    +0.000 A 
ATOM     20  C   UNL     1       2.067   5.086  19.978  0.00  0.00    +0.000 A 
ATOM     21  C   UNL     1       1.166   4.205  20.574  0.00  0.00    +0.000 A 
ATOM     22  C   UNL     1       0.735   3.072  19.883  0.00  0.00    +0.000 A 
ATOM     23  C   UNL     1       1.198   2.816  18.591  0.00  0.00    +0.000 A 
ATOM     24  C   UNL     1       2.105   3.688  17.989  0.00  0.00    +0.000 A 
ENDBRANCH  16  19
ENDBRANCH  15  16
ENDBRANCH  14  15
ENDBRANCH  13  14
ENDBRANCH   2  13
TORSDOF 5
ENDMDL
MODEL 3
REMARK VINA RESULT:      -7.3      3.061      7.177
REMARK  Name = 
REMARK  5 active torsions:
REMARK  status: ('A' for Active; 'I' for Inactive)
REMARK    1  A    between atoms: C_2  and  C_3
REMARK    2  A    between atoms: C_3  and  C_4
REMARK    3  A    between atoms: C_4  and  C_5
REMARK    4  A    between atoms: C_5  and  S_6
REMARK    5  A    between atoms: S_6  and  C_9
REMARK                            x       y       z     vdW  Elec       q    Type
REMARK                         _______ _______ _______ _____ _____    ______ ____
ROOT
ATOM      1  O   UNL     1       7.620   6.626  16.254  0.00  0.00    +0.000 OA
ATOM      2  C   UNL     1       7.472   5.510  16.717  0.00  0.00    +0.000 C 
ATOM      3  N   UNL     1       7.107   4.413  15.944  0.00  0.00    +0.000 N 
ATOM      4  C   UNL     1       6.972   4.418  14.565  0.00  0.00    +0.000 A 
ATOM      5  C   UNL     1       7.822   5.387  13.843  0.00  0.00    +0.000 A 
ATOM      6  C   UNL     1       7.804   5.265  12.528  0.00  0.00    +0.000 A 
ATOM      7  N   UNL     1       6.977   4.363  11.932  0.00  0.00    +0.000 N 
ATOM      8  C   UNL     1       6.124   3.533  12.631  0.00  0.00    +0.000 A 
ATOM      9  O   UNL     1       5.362   2.800  12.000  0.00  0.00    +0.000 OA
ATOM     10  N   UNL     1       6.200   3.542  14.011  0.00  0.00    +0.000 NA
ATOM     11  H   UNL     1       6.864   3.572  16.437  0.00  0.00    +0.000 HD
ATOM     12  H   UNL     1       6.935   4.269  10.924  0.00  0.00    +0.000 HD
ENDROOT
BRANCH   2  13
ATOM     13  C   UNL     1       7.641   5.214  18.200  0.00  0.00    +0.000 C 
BRANCH  13  14
ATOM     14  C   UNL     1       6.425   5.643  19.020  0.00  0.00    +0.000 C 
BRANCH  14  15
ATOM     15  C   UNL     1       5.343   4.570  19.034  0.00  0.00    +0.000 C 
BRANCH  15  16
ATOM     16  S   UNL     1       3.948   5.040  18.035  0.00  0.00    +0.000 S 
ATOM     17  O   UNL     1       3.731   6.471  18.210  0.00  0.00    +0.000 OA
ATOM     18  O   UNL     1       4.131   4.479  16.716  0.00  0.00    +0.000 OA
BRANCH  16  19
ATOM     19  C   UNL     1       2.564   4.216  18.787  0.00  0.00    +0.000 A 
ATOM     20  C   UNL     1       1.978   3.120  18.149  0.00  0.00    +0.000 A 
ATOM     21  C   UNL     1       0.899   2.474  18.752  0.00  0.00    +0.000 A 
ATOM     22  C   UNL     1       0.418   2.920  19.984  0.00  0.00    +0.000 A 
ATOM     23  C   UNL     1       1.014   4.010  20.621  0.00  0.00    +0.000 A 
ATOM     24  C   UNL     1       2.090   4.666  20.022  0.00  0.00    +0.000 A 
ENDBRANCH  16  19
ENDBRANCH  15  16
ENDBRANCH  14  15
ENDBRANCH  13  14
ENDBRANCH   2  13
TORSDOF 5
ENDMDL
MODEL 4
REMARK VINA RESULT:      -7.2      3.617      5.760
REMARK  Name = 
REMARK  5 active torsions:
REMARK  status: ('A' for Active; 'I' for Inactive)
REMARK    1  A    between atoms: C_2  and  C_3
REMARK    2  A    between atoms: C_3  and  C_4
REMARK    3  A    between atoms: C_4  and  C_5
REMARK    4  A    between atoms: C_5  and  S_6
REMARK    5  A    between atoms: S_6  and  C_9
REMARK                            x       y       z     vdW  Elec       q    Type
REMARK                         _______ _______ _______ _____ _____    ______ ____
ROOT
ATOM      1  O   UNL     1       2.753   6.817  19.233  0.00  0.00    +0.000 OA
ATOM      2  C   UNL     1       2.094   6.581  20.228  0.00  0.00    +0.000 C 
ATOM      3  N   UNL     1       1.384   7.560  20.915  0.00  0.00    +0.000 N 
ATOM      4  C   UNL     1       1.247   8.878  20.510  0.00  0.00    +0.000 A 
ATOM      5  C   UNL     1       1.301   9.108  19.052  0.00  0.00    +0.000 A 
ATOM      6  C   UNL     1       1.004  10.338  18.675  0.00  0.00    +0.000 A 
ATOM      7  N   UNL     1       0.768  11.304  19.604  0.00  0.00    +0.000 N 
ATOM      8  C   UNL     1       0.815  11.080  20.966  0.00  0.00    +0.000 A 
ATOM      9  O   UNL     1       0.657  12.033  21.729  0.00  0.00    +0.000 OA
ATOM     10  N   UNL     1       1.001   9.782  21.401  0.00  0.00    +0.000 NA
ATOM     11  H   UNL     1       0.995   7.298  21.804  0.00  0.00    +0.000 HD
ATOM     12  H   UNL     1       0.558  12.258  19.335  0.00  0.00    +0.000 HD
ENDROOT
BRANCH   2  13
ATOM     13  C   UNL     1       2.009   5.189  20.838  0.00  0.00    +0.000 C 
BRANCH  13  14
ATOM     14  C   UNL     1       1.426   4.164  19.867  0.00  0.00    +0.000 C 
BRANCH  14  15
ATOM     15  C   UNL     1       2.300   2.920  19.764  0.00  0.00    +0.000 C 
BRANCH  15  16
ATOM     16  S   UNL     1       2.983   2.739  18.131  0.00  0.00    +0.000 S 
ATOM     17  O   UNL     1       3.659   1.449  18.066  0.00  0.00    +0.000 OA
ATOM     18  O   UNL     1       1.955   3.079  17.174  0.00  0.00    +0.000 OA
BRANCH  16  19
ATOM     19  C   UNL     1       4.246   3.985  18.036  0.00  0.00    +0.000 A 
ATOM     20  C   UNL     1       4.371   4.761  16.881  0.00  0.00    +0.000 A 
ATOM     21  C   UNL     1       5.360   5.743  16.820  0.00  0.00    +0.000 A 
ATOM     22  C   UNL     1       6.209   5.947  17.909  0.00  0.00    +0.000 A 
ATOM     23  C   UNL     1       6.072   5.176  19.064  0.00  0.00    +0.000 A 
ATOM     24  C   UNL     1       5.091   4.187  19.131  0.00  0.00    +0.000 A 
ENDBRANCH  16  19
ENDBRANCH  15  16
ENDBRANCH  14  15
ENDBRANCH  13  14
ENDBRANCH   2  13
TORSDOF 5
ENDMDL
MODEL 5
REMARK VINA RESULT:      -7.2      3.611      5.741
REMARK  Name = 
REMARK  5 active torsions:
REMARK  status: ('A' for Active; 'I' for Inactive)
REMARK    1  A    between atoms: C_2  and  C_3
REMARK    2  A    between atoms: C_3  and  C_4
REMARK    3  A    between atoms: C_4  and  C_5
REMARK    4  A    between atoms: C_5  and  S_6
REMARK    5  A    between atoms: S_6  and  C_9
REMARK                            x       y       z     vdW  Elec       q    Type
REMARK                         _______ _______ _______ _____ _____    ______ ____
ROOT
ATOM      1  O   UNL     1       2.767   6.822  19.217  0.00  0.00    +0.000 OA
ATOM      2  C   UNL     1       2.106   6.572  20.207  0.00  0.00    +0.000 C 
ATOM      3  N   UNL     1       1.389   7.541  20.902  0.00  0.00    +0.000 N 
ATOM      4  C   UNL     1       1.247   8.862  20.512  0.00  0.00    +0.000 A 
ATOM      5  C   UNL     1       1.305   9.108  19.056  0.00  0.00    +0.000 A 
ATOM      6  C   UNL     1       1.005  10.341  18.692  0.00  0.00    +0.000 A 
ATOM      7  N   UNL     1       0.761  11.296  19.631  0.00  0.00    +0.000 N 
ATOM      8  C   UNL     1       0.805  11.057  20.990  0.00  0.00    +0.000 A 
ATOM      9  O   UNL     1       0.640  12.001  21.763  0.00  0.00    +0.000 OA
ATOM     10  N   UNL     1       0.994   9.755  21.412  0.00  0.00    +0.000 NA
ATOM     11  H   UNL     1       0.998   7.267  21.787  0.00  0.00    +0.000 HD
ATOM     12  H   UNL     1       0.548  12.252  19.371  0.00  0.00    +0.000 HD
ENDROOT
BRANCH   2  13
ATOM     13  C   UNL     1       2.025   5.173  20.802  0.00  0.00    +0.000 C 
BRANCH  13  14
ATOM     14  C   UNL     1       1.438   4.159  19.821  0.00  0.00    +0.000 C 
BRANCH  14  15
ATOM     15  C   UNL     1       2.287   2.896  19.737  0.00  0.00    +0.000 C 
BRANCH  15  16
ATOM     16  S   UNL     1       3.013   2.707  18.123  0.00  0.00    +0.000 S 
ATOM     17  O   UNL     1       3.711   1.427  18.090  0.00  0.00    +0.000 OA
ATOM     18  O   UNL     1       2.003   3.019  17.138  0.00  0.00    +0.000 OA
BRANCH  16  19
ATOM     19  C   UNL     1       4.258   3.973  18.044  0.00  0.00    +0.000 A 
ATOM     20  C   UNL     1       5.109   4.179  19.132  0.00  0.00    +0.000 A 
ATOM     21  C   UNL     1       6.089   5.168  19.055  0.00  0.00    +0.000 A 
ATOM     22  C   UNL     1       6.216   5.938  17.898  0.00  0.00    +0.000 A 
ATOM     23  C   UNL     1       5.369   5.720  16.811  0.00  0.00    +0.000 A 
ATOM     24  C   UNL     1       4.381   4.737  16.881  0.00  0.00    +0.000 A 
ENDBRANCH  16  19
ENDBRANCH  15  16
ENDBRANCH  14  15
ENDBRANCH  13  14
ENDBRANCH   2  13
TORSDOF 5
ENDMDL
MODEL 6
REMARK VINA RESULT:      -7.2      2.992      6.806
REMARK  Name = 
REMARK  5 active torsions:
REMARK  status: ('A' for Active; 'I' for Inactive)
REMARK    1  A    between atoms: C_2  and  C_3
REMARK    2  A    between atoms: C_3  and  C_4
REMARK    3  A    between atoms: C_4  and  C_5
REMARK    4  A    between atoms: C_5  and  S_6
REMARK    5  A    between atoms: S_6  and  C_9
REMARK                            x       y       z     vdW  Elec       q    Type
REMARK                         _______ _______ _______ _____ _____    ______ ____
ROOT
ATOM      1  O   UNL     1       5.459   5.309  18.722  0.00  0.00    +0.000 OA
ATOM      2  C   UNL     1       5.234   4.122  18.580  0.00  0.00    +0.000 C 
ATOM      3  N   UNL     1       5.396   3.462  17.366  0.00  0.00    +0.000 N 
ATOM      4  C   UNL     1       5.922   4.026  16.215  0.00  0.00    +0.000 A 
ATOM      5  C   UNL     1       6.898   5.113  16.425  0.00  0.00    +0.000 A 
ATOM      6  C   UNL     1       7.511   5.525  15.330  0.00  0.00    +0.000 A 
ATOM      7  N   UNL     1       7.163   5.019  14.115  0.00  0.00    +0.000 N 
ATOM      8  C   UNL     1       6.179   4.066  13.940  0.00  0.00    +0.000 A 
ATOM      9  O   UNL     1       5.885   3.721  12.795  0.00  0.00    +0.000 OA
ATOM     10  N   UNL     1       5.599   3.520  15.070  0.00  0.00    +0.000 NA
ATOM     11  H   UNL     1       5.044   2.522  17.311  0.00  0.00    +0.000 HD
ATOM     12  H   UNL     1       7.608   5.336  13.262  0.00  0.00    +0.000 HD
ENDROOT
BRANCH   2  13
ATOM     13  C   UNL     1       4.722   3.247  19.715  0.00  0.00    +0.000 C 
BRANCH  13  14
ATOM     14  C   UNL     1       4.008   1.995  19.207  0.00  0.00    +0.000 C 
BRANCH  14  15
ATOM     15  C   UNL     1       2.522   2.014  19.543  0.00  0.00    +0.000 C 
BRANCH  15  16
ATOM     16  S   UNL     1       1.600   2.977  18.364  0.00  0.00    +0.000 S 
ATOM     17  O   UNL     1       2.260   2.855  17.069  0.00  0.00    +0.000 OA
ATOM     18  O   UNL     1       0.201   2.646  18.511  0.00  0.00    +0.000 OA
BRANCH  16  19
ATOM     19  C   UNL     1       1.818   4.659  18.895  0.00  0.00    +0.000 A 
ATOM     20  C   UNL     1       2.188   5.637  17.969  0.00  0.00    +0.000 A 
ATOM     21  C   UNL     1       2.347   6.955  18.393  0.00  0.00    +0.000 A 
ATOM     22  C   UNL     1       2.132   7.289  19.731  0.00  0.00    +0.000 A 
ATOM     23  C   UNL     1       1.752   6.309  20.650  0.00  0.00    +0.000 A 
ATOM     24  C   UNL     1       1.598   4.986  20.235  0.00  0.00    +0.000 A 
ENDBRANCH  16  19
ENDBRANCH  15  16
ENDBRANCH  14  15
ENDBRANCH  13  14
ENDBRANCH   2  13
TORSDOF 5
ENDMDL
MODEL 7
REMARK VINA RESULT:      -7.1      2.919      7.272
REMARK  Name = 
REMARK  5 active torsions:
REMARK  status: ('A' for Active; 'I' for Inactive)
REMARK    1  A    between atoms: C_2  and  C_3
REMARK    2  A    between atoms: C_3  and  C_4
REMARK    3  A    between atoms: C_4  and  C_5
REMARK    4  A    between atoms: C_5  and  S_6
REMARK    5  A    between atoms: S_6  and  C_9
REMARK                            x       y       z     vdW  Elec       q    Type
REMARK                         _______ _______ _______ _____ _____    ______ ____
ROOT
ATOM      1  O   UNL     1       7.506   6.638  16.282  0.00  0.00    +0.000 OA
ATOM      2  C   UNL     1       7.320   5.529  16.748  0.00  0.00    +0.000 C 
ATOM      3  N   UNL     1       6.975   4.430  15.968  0.00  0.00    +0.000 N 
ATOM      4  C   UNL     1       6.905   4.423  14.585  0.00  0.00    +0.000 A 
ATOM      5  C   UNL     1       7.801   5.372  13.895  0.00  0.00    +0.000 A 
ATOM      6  C   UNL     1       7.843   5.238  12.581  0.00  0.00    +0.000 A 
ATOM      7  N   UNL     1       7.031   4.343  11.956  0.00  0.00    +0.000 N 
ATOM      8  C   UNL     1       6.134   3.531  12.622  0.00  0.00    +0.000 A 
ATOM      9  O   UNL     1       5.391   2.803  11.963  0.00  0.00    +0.000 OA
ATOM     10  N   UNL     1       6.146   3.553  14.004  0.00  0.00    +0.000 NA
ATOM     11  H   UNL     1       6.698   3.597  16.458  0.00  0.00    +0.000 HD
ATOM     12  H   UNL     1       7.034   4.239  10.948  0.00  0.00    +0.000 HD
ENDROOT
BRANCH   2  13
ATOM     13  C   UNL     1       7.416   5.245  18.240  0.00  0.00    +0.000 C 
BRANCH  13  14
ATOM     14  C   UNL     1       6.115   4.679  18.808  0.00  0.00    +0.000 C 
BRANCH  14  15
ATOM     15  C   UNL     1       4.972   5.682  18.714  0.00  0.00    +0.000 C 
BRANCH  15  16
ATOM     16  S   UNL     1       3.531   4.958  17.961  0.00  0.00    +0.000 S 
ATOM     17  O   UNL     1       2.622   6.038  17.597  0.00  0.00    +0.000 OA
ATOM     18  O   UNL     1       3.975   4.004  16.970  0.00  0.00    +0.000 OA
BRANCH  16  19
ATOM     19  C   UNL     1       2.751   4.051  19.275  0.00  0.00    +0.000 A 
ATOM     20  C   UNL     1       3.525   3.270  20.136  0.00  0.00    +0.000 A 
ATOM     21  C   UNL     1       2.904   2.570  21.169  0.00  0.00    +0.000 A 
ATOM     22  C   UNL     1       1.522   2.657  21.341  0.00  0.00    +0.000 A 
ATOM     23  C   UNL     1       0.755   3.447  20.484  0.00  0.00    +0.000 A 
ATOM     24  C   UNL     1       1.367   4.146  19.443  0.00  0.00    +0.000 A 
ENDBRANCH  16  19
ENDBRANCH  15  16
ENDBRANCH  14  15
ENDBRANCH  13  14
ENDBRANCH   2  13
TORSDOF 5
ENDMDL
MODEL 8
REMARK VINA RESULT:      -7.1      1.323      1.755
REMARK  Name = 
REMARK  5 active torsions:
REMARK  status: ('A' for Active; 'I' for Inactive)
REMARK    1  A    between atoms: C_2  and  C_3
REMARK    2  A    between atoms: C_3  and  C_4
REMARK    3  A    between atoms: C_4  and  C_5
REMARK    4  A    between atoms: C_5  and  S_6
REMARK    5  A    between atoms: S_6  and  C_9
REMARK                            x       y       z     vdW  Elec       q    Type
REMARK                         _______ _______ _______ _____ _____    ______ ____
ROOT
ATOM      1  O   UNL     1       2.556   6.746  19.826  0.00  0.00    +0.000 OA
ATOM      2  C   UNL     1       3.189   6.407  18.844  0.00  0.00    +0.000 C 
ATOM      3  N   UNL     1       3.808   5.165  18.735  0.00  0.00    +0.000 N 
ATOM      4  C   UNL     1       3.700   4.136  19.656  0.00  0.00    +0.000 A 
ATOM      5  C   UNL     1       2.440   4.098  20.426  0.00  0.00    +0.000 A 
ATOM      6  C   UNL     1       2.284   3.022  21.177  0.00  0.00    +0.000 A 
ATOM      7  N   UNL     1       3.279   2.098  21.269  0.00  0.00    +0.000 N 
ATOM      8  C   UNL     1       4.486   2.208  20.607  0.00  0.00    +0.000 A 
ATOM      9  O   UNL     1       5.352   1.357  20.810  0.00  0.00    +0.000 OA
ATOM     10  N   UNL     1       4.642   3.254  19.718  0.00  0.00    +0.000 NA
ATOM     11  H   UNL     1       4.428   5.036  17.954  0.00  0.00    +0.000 HD
ATOM     12  H   UNL     1       3.186   1.277  21.855  0.00  0.00    +0.000 HD
ENDROOT
BRANCH   2  13
ATOM     13  C   UNL     1       3.393   7.325  17.648  0.00  0.00    +0.000 C 
BRANCH  13  14
ATOM     14  C   UNL     1       4.830   7.295  17.130  0.00  0.00    +0.000 C 
BRANCH  14  15
ATOM     15  C   UNL     1       4.966   6.425  15.886  0.00  0.00    +0.000 C 
BRANCH  15  16
ATOM     16  S   UNL     1       6.392   5.365  15.985  0.00  0.00    +0.000 S 
ATOM     17  O   UNL     1       7.547   6.194  16.307  0.00  0.00    +0.000 OA
ATOM     18  O   UNL     1       6.049   4.229  16.810  0.00  0.00    +0.000 OA
BRANCH  16  19
ATOM     19  C   UNL     1       6.628   4.779  14.324  0.00  0.00    +0.000 A 
ATOM     20  C   UNL     1       5.804   3.769  13.820  0.00  0.00    +0.000 A 
ATOM     21  C   UNL     1       5.992   3.323  12.513  0.00  0.00    +0.000 A 
ATOM     22  C   UNL     1       6.991   3.888  11.718  0.00  0.00    +0.000 A 
ATOM     23  C   UNL     1       7.804   4.903  12.224  0.00  0.00    +0.000 A 
ATOM     24  C   UNL     1       7.628   5.351  13.533  0.00  0.00    +0.000 A 
ENDBRANCH  16  19
ENDBRANCH  15  16
ENDBRANCH  14  15
ENDBRANCH  13  14
ENDBRANCH   2  13
TORSDOF 5
ENDMDL
MODEL 9
REMARK VINA RESULT:      -7.1      3.103      7.042
REMARK  Name = 
REMARK  5 active torsions:
REMARK  status: ('A' for Active; 'I' for Inactive)
REMARK    1  A    between atoms: C_2  and  C_3
REMARK    2  A    between atoms: C_3  and  C_4
REMARK    3  A    between atoms: C_4  and  C_5
REMARK    4  A    between atoms: C_5  and  S_6
REMARK    5  A    between atoms: S_6  and  C_9
REMARK                            x       y       z     vdW  Elec       q    Type
REMARK                         _______ _______ _______ _____ _____    ______ ____
ROOT
ATOM      1  O   UNL     1       7.443   6.578  16.353  0.00  0.00    +0.000 OA
ATOM      2  C   UNL     1       7.218   5.470  16.802  0.00  0.00    +0.000 C 
ATOM      3  N   UNL     1       6.865   4.388  16.003  0.00  0.00    +0.000 N 
ATOM      4  C   UNL     1       6.826   4.397  14.618  0.00  0.00    +0.000 A 
ATOM      5  C   UNL     1       7.762   5.330  13.959  0.00  0.00    +0.000 A 
ATOM      6  C   UNL     1       7.831   5.208  12.646  0.00  0.00    +0.000 A 
ATOM      7  N   UNL     1       7.012   4.340  11.992  0.00  0.00    +0.000 N 
ATOM      8  C   UNL     1       6.080   3.545  12.629  0.00  0.00    +0.000 A 
ATOM      9  O   UNL     1       5.335   2.843  11.945  0.00  0.00    +0.000 OA
ATOM     10  N   UNL     1       6.060   3.552  14.010  0.00  0.00    +0.000 NA
ATOM     11  H   UNL     1       6.555   3.557  16.477  0.00  0.00    +0.000 HD
ATOM     12  H   UNL     1       7.036   4.247  10.983  0.00  0.00    +0.000 HD
ENDROOT
BRANCH   2  13
ATOM     13  C   UNL     1       7.272   5.169  18.293  0.00  0.00    +0.000 C 
BRANCH  13  14
ATOM     14  C   UNL     1       5.922   5.377  18.976  0.00  0.00    +0.000 C 
BRANCH  14  15
ATOM     15  C   UNL     1       5.135   4.076  19.086  0.00  0.00    +0.000 C 
BRANCH  15  16
ATOM     16  S   UNL     1       3.569   4.190  18.250  0.00  0.00    +0.000 S 
ATOM     17  O   UNL     1       3.829   4.334  16.822  0.00  0.00    +0.000 OA
ATOM     18  O   UNL     1       2.720   3.128  18.739  0.00  0.00    +0.000 OA
BRANCH  16  19
ATOM     19  C   UNL     1       2.880   5.733  18.803  0.00  0.00    +0.000 A 
ATOM     20  C   UNL     1       2.879   6.839  17.950  0.00  0.00    +0.000 A 
ATOM     21  C   UNL     1       2.329   8.042  18.390  0.00  0.00    +0.000 A 
ATOM     22  C   UNL     1       1.779   8.131  19.670  0.00  0.00    +0.000 A 
ATOM     23  C   UNL     1       1.774   7.020  20.514  0.00  0.00    +0.000 A 
ATOM     24  C   UNL     1       2.329   5.814  20.084  0.00  0.00    +0.000 A 
ENDBRANCH  16  19
ENDBRANCH  15  16
ENDBRANCH  14  15
ENDBRANCH  13  14
ENDBRANCH   2  13
TORSDOF 5
ENDMDL
