MODEL 1
REMARK VINA RESULT:      -6.8      0.000      0.000
REMARK  Name = 
REMARK  3 active torsions:
REMARK  status: ('A' for Active; 'I' for Inactive)
REMARK    1  A    between atoms: C_1  and  C_2
REMARK    2  A    between atoms: N_5  and  C_6
REMARK    3  A    between atoms: C_11  and  C_12
REMARK                            x       y       z     vdW  Elec       q    Type
REMARK                         _______ _______ _______ _____ _____    ______ ____
ROOT
ATOM      1  C   UNL     1       2.068   8.998  17.760  0.00  0.00    +0.000 C 
ATOM      2  C   UNL     1       1.513   9.076  19.153  0.00  0.00    +0.000 C 
ATOM      3  C   UNL     1       0.410   9.768  19.528  0.00  0.00    +0.000 C 
ATOM      4  C   UNL     1       0.415  10.222  21.101  0.00  0.00    +0.000 C 
ATOM      5  N   UNL     1      -0.480  11.513  21.569  0.00  0.00    +0.000 N 
ATOM      6  C   UNL     1      -0.996  11.206  22.962  0.00  0.00    +0.000 C 
ATOM      7  C   UNL     1      -0.249  13.050  21.432  0.00  0.00    +0.000 C 
ATOM      8  C   UNL     1      -1.529  13.610  20.626  0.00  0.00    +0.000 C 
ATOM      9  C   UNL     1      -2.383  12.376  20.169  0.00  0.00    +0.000 C 
ATOM     10  C   UNL     1      -2.735  11.693  18.672  0.00  0.00    +0.000 C 
ATOM     11  C   UNL     1      -1.943  10.686  18.120  0.00  0.00    +0.000 C 
ATOM     12  C   UNL     1      -0.401  10.560  18.428  0.00  0.00    +0.000 C 
ATOM     13  C   UNL     1      -0.278  11.802  19.169  0.00  0.00    +0.000 C 
ATOM     14  C   UNL     1      -1.333  11.399  20.421  0.00  0.00    +0.000 C 
ATOM     15  N   UNL     1      -4.012  12.134  18.366  0.00  0.00    +0.000 N 
ATOM     16  C   UNL     1      -4.602  12.681  19.520  0.00  0.00    +0.000 A 
ATOM     17  C   UNL     1      -5.756  13.438  19.578  0.00  0.00    +0.000 A 
ATOM     18  C   UNL     1      -6.176  13.883  20.836  0.00  0.00    +0.000 A 
ATOM     19  C   UNL     1      -5.496  13.494  22.001  0.00  0.00    +0.000 A 
ATOM     20  C   UNL     1      -4.288  12.803  21.925  0.00  0.00    +0.000 A 
ATOM     21  C   UNL     1      -3.790  12.527  20.662  0.00  0.00    +0.000 A 
ATOM     22  H   UNL     1      -4.629  11.546  17.812  0.00  0.00    +0.000 HD
ENDROOT
BRANCH  11  23
ATOM     23  C   UNL     1      -2.390   9.833  16.992  0.00  0.00    +0.000 C 
ATOM     24  O   UNL     1      -2.952  10.325  16.007  0.00  0.00    +0.000 OA
ENDBRANCH  11  23
TORSDOF 1
ENDMDL
MODEL 2
REMARK VINA RESULT:      -6.5      2.852      6.689
REMARK  Name = 
REMARK  3 active torsions:
REMARK  status: ('A' for Active; 'I' for Inactive)
REMARK    1  A    between atoms: C_1  and  C_2
REMARK    2  A    between atoms: N_5  and  C_6
REMARK    3  A    between atoms: C_11  and  C_12
REMARK                            x       y       z     vdW  Elec       q    Type
REMARK                         _______ _______ _______ _____ _____    ______ ____
ROOT
ATOM      1  C   UNL     1      -7.850  14.507  23.961  0.00  0.00    +0.000 C 
ATOM      2  C   UNL     1      -7.917  13.151  23.320  0.00  0.00    +0.000 C 
ATOM      3  C   UNL     1      -7.084  12.690  22.354  0.00  0.00    +0.000 C 
ATOM      4  C   UNL     1      -7.746  11.531  21.407  0.00  0.00    +0.000 C 
ATOM      5  N   UNL     1      -7.158  11.297  19.894  0.00  0.00    +0.000 N 
ATOM      6  C   UNL     1      -7.248   9.808  19.616  0.00  0.00    +0.000 C 
ATOM      7  C   UNL     1      -7.359  12.083  18.562  0.00  0.00    +0.000 C 
ATOM      8  C   UNL     1      -5.878  12.509  18.084  0.00  0.00    +0.000 C 
ATOM      9  C   UNL     1      -4.876  12.113  19.224  0.00  0.00    +0.000 C 
ATOM     10  C   UNL     1      -3.922  12.992  20.295  0.00  0.00    +0.000 C 
ATOM     11  C   UNL     1      -4.389  13.369  21.555  0.00  0.00    +0.000 C 
ATOM     12  C   UNL     1      -5.918  13.627  21.847  0.00  0.00    +0.000 C 
ATOM     13  C   UNL     1      -6.369  13.517  20.471  0.00  0.00    +0.000 C 
ATOM     14  C   UNL     1      -5.907  11.913  20.232  0.00  0.00    +0.000 C 
ATOM     15  N   UNL     1      -2.645  12.951  19.760  0.00  0.00    +0.000 N 
ATOM     16  C   UNL     1      -2.595  11.963  18.759  0.00  0.00    +0.000 A 
ATOM     17  C   UNL     1      -1.589  11.777  17.832  0.00  0.00    +0.000 A 
ATOM     18  C   UNL     1      -1.733  10.725  16.921  0.00  0.00    +0.000 A 
ATOM     19  C   UNL     1      -2.819   9.839  17.011  0.00  0.00    +0.000 A 
ATOM     20  C   UNL     1      -3.869  10.085  17.894  0.00  0.00    +0.000 A 
ATOM     21  C   UNL     1      -3.798  11.234  18.663  0.00  0.00    +0.000 A 
ATOM     22  H   UNL     1      -1.838  12.969  20.378  0.00  0.00    +0.000 HD
ENDROOT
BRANCH  11  23
ATOM     23  C   UNL     1      -3.495  13.836  22.642  0.00  0.00    +0.000 C 
ATOM     24  O   UNL     1      -2.436  14.419  22.386  0.00  0.00    +0.000 OA
ENDBRANCH  11  23
TORSDOF 1
ENDMDL
MODEL 3
REMARK VINA RESULT:      -6.3      2.644      3.844
REMARK  Name = 
REMARK  3 active torsions:
REMARK  status: ('A' for Active; 'I' for Inactive)
REMARK    1  A    between atoms: C_1  and  C_2
REMARK    2  A    between atoms: N_5  and  C_6
REMARK    3  A    between atoms: C_11  and  C_12
REMARK                            x       y       z     vdW  Elec       q    Type
REMARK                         _______ _______ _______ _____ _____    ______ ____
ROOT
ATOM      1  C   UNL     1       2.228   8.000  18.327  0.00  0.00    +0.000 C 
ATOM      2  C   UNL     1       2.145   9.494  18.201  0.00  0.00    +0.000 C 
ATOM      3  C   UNL     1       1.344  10.306  18.935  0.00  0.00    +0.000 C 
ATOM      4  C   UNL     1       0.961  11.710  18.185  0.00  0.00    +0.000 C 
ATOM      5  N   UNL     1      -0.406  12.506  18.619  0.00  0.00    +0.000 N 
ATOM      6  C   UNL     1      -0.103  13.988  18.507  0.00  0.00    +0.000 C 
ATOM      7  C   UNL     1      -1.909  12.260  18.283  0.00  0.00    +0.000 C 
ATOM      8  C   UNL     1      -2.648  12.090  19.707  0.00  0.00    +0.000 C 
ATOM      9  C   UNL     1      -1.543  12.072  20.819  0.00  0.00    +0.000 C 
ATOM     10  C   UNL     1      -0.969  10.892  21.872  0.00  0.00    +0.000 C 
ATOM     11  C   UNL     1       0.099  10.062  21.533  0.00  0.00    +0.000 C 
ATOM     12  C   UNL     1       0.418   9.663  20.040  0.00  0.00    +0.000 C 
ATOM     13  C   UNL     1      -0.770  10.257  19.453  0.00  0.00    +0.000 C 
ATOM     14  C   UNL     1      -0.440  11.851  19.895  0.00  0.00    +0.000 C 
ATOM     15  N   UNL     1      -1.569  11.171  23.089  0.00  0.00    +0.000 N 
ATOM     16  C   UNL     1      -2.133  12.460  23.043  0.00  0.00    +0.000 A 
ATOM     17  C   UNL     1      -3.016  13.008  23.951  0.00  0.00    +0.000 A 
ATOM     18  C   UNL     1      -3.454  14.317  23.720  0.00  0.00    +0.000 A 
ATOM     19  C   UNL     1      -2.939  15.070  22.652  0.00  0.00    +0.000 A 
ATOM     20  C   UNL     1      -2.116  14.481  21.695  0.00  0.00    +0.000 A 
ATOM     21  C   UNL     1      -1.837  13.132  21.839  0.00  0.00    +0.000 A 
ATOM     22  H   UNL     1      -1.081  10.953  23.954  0.00  0.00    +0.000 HD
ENDROOT
BRANCH  11  23
ATOM     23  C   UNL     1       0.846   9.257  22.530  0.00  0.00    +0.000 C 
ATOM     24  O   UNL     1       0.851   9.571  23.725  0.00  0.00    +0.000 OA
ENDBRANCH  11  23
TORSDOF 1
ENDMDL
MODEL 4
REMARK VINA RESULT:      -6.2      1.876      3.396
REMARK  Name = 
REMARK  3 active torsions:
REMARK  status: ('A' for Active; 'I' for Inactive)
REMARK    1  A    between atoms: C_1  and  C_2
REMARK    2  A    between atoms: N_5  and  C_6
REMARK    3  A    between atoms: C_11  and  C_12
REMARK                            x       y       z     vdW  Elec       q    Type
REMARK                         _______ _______ _______ _____ _____    ______ ____
ROOT
ATOM      1  C   UNL     1      -3.354  10.053  14.400  0.00  0.00    +0.000 C 
ATOM      2  C   UNL     1      -2.524   9.561  15.551  0.00  0.00    +0.000 C 
ATOM      3  C   UNL     1      -2.523  10.079  16.804  0.00  0.00    +0.000 C 
ATOM      4  C   UNL     1      -1.129   9.827  17.623  0.00  0.00    +0.000 C 
ATOM      5  N   UNL     1      -0.720  10.840  18.846  0.00  0.00    +0.000 N 
ATOM      6  C   UNL     1      -0.020   9.997  19.896  0.00  0.00    +0.000 C 
ATOM      7  C   UNL     1      -0.119  12.279  18.856  0.00  0.00    +0.000 C 
ATOM      8  C   UNL     1      -1.172  13.182  19.679  0.00  0.00    +0.000 C 
ATOM      9  C   UNL     1      -2.430  12.295  19.981  0.00  0.00    +0.000 C 
ATOM     10  C   UNL     1      -4.028  12.322  19.456  0.00  0.00    +0.000 C 
ATOM     11  C   UNL     1      -4.444  11.608  18.332  0.00  0.00    +0.000 C 
ATOM     12  C   UNL     1      -3.478  11.296  17.124  0.00  0.00    +0.000 C 
ATOM     13  C   UNL     1      -2.365  12.104  17.589  0.00  0.00    +0.000 C 
ATOM     14  C   UNL     1      -2.082  11.257  19.020  0.00  0.00    +0.000 C 
ATOM     15  N   UNL     1      -4.738  12.907  20.491  0.00  0.00    +0.000 N 
ATOM     16  C   UNL     1      -3.932  12.942  21.644  0.00  0.00    +0.000 A 
ATOM     17  C   UNL     1      -4.176  13.654  22.801  0.00  0.00    +0.000 A 
ATOM     18  C   UNL     1      -3.243  13.546  23.838  0.00  0.00    +0.000 A 
ATOM     19  C   UNL     1      -2.148  12.672  23.732  0.00  0.00    +0.000 A 
ATOM     20  C   UNL     1      -1.865  12.025  22.531  0.00  0.00    +0.000 A 
ATOM     21  C   UNL     1      -2.698  12.286  21.456  0.00  0.00    +0.000 A 
ATOM     22  H   UNL     1      -5.704  12.635  20.658  0.00  0.00    +0.000 HD
ENDROOT
BRANCH  11  23
ATOM     23  C   UNL     1      -5.870  11.330  18.033  0.00  0.00    +0.000 C 
ATOM     24  O   UNL     1      -6.761  12.092  18.424  0.00  0.00    +0.000 OA
ENDBRANCH  11  23
TORSDOF 1
ENDMDL
MODEL 5
REMARK VINA RESULT:      -6.1      8.883     12.229
REMARK  Name = 
REMARK  3 active torsions:
REMARK  status: ('A' for Active; 'I' for Inactive)
REMARK    1  A    between atoms: C_1  and  C_2
REMARK    2  A    between atoms: N_5  and  C_6
REMARK    3  A    between atoms: C_11  and  C_12
REMARK                            x       y       z     vdW  Elec       q    Type
REMARK                         _______ _______ _______ _____ _____    ______ ____
ROOT
ATOM      1  C   UNL     1       4.430  15.726  23.548  0.00  0.00    +0.000 C 
ATOM      2  C   UNL     1       4.531  15.474  22.071  0.00  0.00    +0.000 C 
ATOM      3  C   UNL     1       5.601  14.943  21.430  0.00  0.00    +0.000 C 
ATOM      4  C   UNL     1       5.715  15.382  19.857  0.00  0.00    +0.000 C 
ATOM      5  N   UNL     1       7.178  15.348  19.117  0.00  0.00    +0.000 N 
ATOM      6  C   UNL     1       6.931  14.930  17.680  0.00  0.00    +0.000 C 
ATOM      7  C   UNL     1       8.399  16.318  19.169  0.00  0.00    +0.000 C 
ATOM      8  C   UNL     1       9.645  15.418  19.659  0.00  0.00    +0.000 C 
ATOM      9  C   UNL     1       9.092  14.001  20.039  0.00  0.00    +0.000 C 
ATOM     10  C   UNL     1       8.939  13.159  21.488  0.00  0.00    +0.000 C 
ATOM     11  C   UNL     1       7.784  13.242  22.267  0.00  0.00    +0.000 C 
ATOM     12  C   UNL     1       6.864  14.523  22.280  0.00  0.00    +0.000 C 
ATOM     13  C   UNL     1       7.737  15.362  21.478  0.00  0.00    +0.000 C 
ATOM     14  C   UNL     1       7.698  14.419  20.080  0.00  0.00    +0.000 C 
ATOM     15  N   UNL     1       9.997  12.265  21.499  0.00  0.00    +0.000 N 
ATOM     16  C   UNL     1      10.556  12.193  20.210  0.00  0.00    +0.000 A 
ATOM     17  C   UNL     1      11.760  11.612  19.864  0.00  0.00    +0.000 A 
ATOM     18  C   UNL     1      12.131  11.646  18.515  0.00  0.00    +0.000 A 
ATOM     19  C   UNL     1      11.264  12.171  17.543  0.00  0.00    +0.000 A 
ATOM     20  C   UNL     1      10.093  12.829  17.912  0.00  0.00    +0.000 A 
ATOM     21  C   UNL     1       9.829  12.948  19.267  0.00  0.00    +0.000 A 
ATOM     22  H   UNL     1       9.894  11.368  21.967  0.00  0.00    +0.000 HD
ENDROOT
BRANCH  11  23
ATOM     23  C   UNL     1       7.470  12.280  23.351  0.00  0.00    +0.000 C 
ATOM     24  O   UNL     1       8.000  11.165  23.384  0.00  0.00    +0.000 OA
ENDBRANCH  11  23
TORSDOF 1
ENDMDL
MODEL 6
REMARK VINA RESULT:      -6.0      3.099      4.252
REMARK  Name = 
REMARK  3 active torsions:
REMARK  status: ('A' for Active; 'I' for Inactive)
REMARK    1  A    between atoms: C_1  and  C_2
REMARK    2  A    between atoms: N_5  and  C_6
REMARK    3  A    between atoms: C_11  and  C_12
REMARK                            x       y       z     vdW  Elec       q    Type
REMARK                         _______ _______ _______ _____ _____    ______ ____
ROOT
ATOM      1  C   UNL     1       1.836   7.763  18.129  0.00  0.00    +0.000 C 
ATOM      2  C   UNL     1       2.283   9.197  18.104  0.00  0.00    +0.000 C 
ATOM      3  C   UNL     1       1.763  10.201  18.851  0.00  0.00    +0.000 C 
ATOM      4  C   UNL     1       1.943  11.685  18.184  0.00  0.00    +0.000 C 
ATOM      5  N   UNL     1       0.909  12.886  18.602  0.00  0.00    +0.000 N 
ATOM      6  C   UNL     1       1.713  14.173  18.609  0.00  0.00    +0.000 C 
ATOM      7  C   UNL     1      -0.559  13.198  18.175  0.00  0.00    +0.000 C 
ATOM      8  C   UNL     1      -1.411  13.229  19.545  0.00  0.00    +0.000 C 
ATOM      9  C   UNL     1      -0.462  12.773  20.708  0.00  0.00    +0.000 C 
ATOM     10  C   UNL     1      -0.408  11.417  21.703  0.00  0.00    +0.000 C 
ATOM     11  C   UNL     1       0.328  10.283  21.361  0.00  0.00    +0.000 C 
ATOM     12  C   UNL     1       0.595   9.870  19.862  0.00  0.00    +0.000 C 
ATOM     13  C   UNL     1      -0.269  10.869  19.259  0.00  0.00    +0.000 C 
ATOM     14  C   UNL     1       0.559  12.225  19.827  0.00  0.00    +0.000 C 
ATOM     15  N   UNL     1      -0.960  11.830  22.905  0.00  0.00    +0.000 N 
ATOM     16  C   UNL     1      -1.038  13.235  22.920  0.00  0.00    +0.000 A 
ATOM     17  C   UNL     1      -1.739  14.013  23.820  0.00  0.00    +0.000 A 
ATOM     18  C   UNL     1      -1.680  15.402  23.659  0.00  0.00    +0.000 A 
ATOM     19  C   UNL     1      -0.862  15.978  22.673  0.00  0.00    +0.000 A 
ATOM     20  C   UNL     1      -0.227  15.184  21.720  0.00  0.00    +0.000 A 
ATOM     21  C   UNL     1      -0.443  13.818  21.782  0.00  0.00    +0.000 A 
ATOM     22  H   UNL     1      -0.640  11.414  23.776  0.00  0.00    +0.000 HD
ENDROOT
BRANCH  11  23
ATOM     23  C   UNL     1       0.678   9.221  22.335  0.00  0.00    +0.000 C 
ATOM     24  O   UNL     1       0.763   9.470  23.542  0.00  0.00    +0.000 OA
ENDBRANCH  11  23
TORSDOF 1
ENDMDL
MODEL 7
REMARK VINA RESULT:      -5.8      2.005      3.325
REMARK  Name = 
REMARK  3 active torsions:
REMARK  status: ('A' for Active; 'I' for Inactive)
REMARK    1  A    between atoms: C_1  and  C_2
REMARK    2  A    between atoms: N_5  and  C_6
REMARK    3  A    between atoms: C_11  and  C_12
REMARK                            x       y       z     vdW  Elec       q    Type
REMARK                         _______ _______ _______ _____ _____    ______ ____
ROOT
ATOM      1  C   UNL     1      -2.971   9.791  15.507  0.00  0.00    +0.000 C 
ATOM      2  C   UNL     1      -2.070   9.550  16.683  0.00  0.00    +0.000 C 
ATOM      3  C   UNL     1      -2.030  10.293  17.816  0.00  0.00    +0.000 C 
ATOM      4  C   UNL     1      -0.590  10.242  18.593  0.00  0.00    +0.000 C 
ATOM      5  N   UNL     1      -0.166  11.478  19.583  0.00  0.00    +0.000 N 
ATOM      6  C   UNL     1       0.616  10.868  20.732  0.00  0.00    +0.000 C 
ATOM      7  C   UNL     1       0.377  12.911  19.293  0.00  0.00    +0.000 C 
ATOM      8  C   UNL     1      -0.671  13.920  19.989  0.00  0.00    +0.000 C 
ATOM      9  C   UNL     1      -1.877  13.067  20.516  0.00  0.00    +0.000 C 
ATOM     10  C   UNL     1      -3.498  12.947  20.082  0.00  0.00    +0.000 C 
ATOM     11  C   UNL     1      -3.937  12.023  19.134  0.00  0.00    +0.000 C 
ATOM     12  C   UNL     1      -3.017  11.519  17.956  0.00  0.00    +0.000 C 
ATOM     13  C   UNL     1      -1.917  12.433  18.202  0.00  0.00    +0.000 C 
ATOM     14  C   UNL     1      -1.534  11.879  19.749  0.00  0.00    +0.000 C 
ATOM     15  N   UNL     1      -4.181  13.695  21.026  0.00  0.00    +0.000 N 
ATOM     16  C   UNL     1      -3.324  13.970  22.108  0.00  0.00    +0.000 A 
ATOM     17  C   UNL     1      -3.542  14.878  23.124  0.00  0.00    +0.000 A 
ATOM     18  C   UNL     1      -2.558  14.995  24.111  0.00  0.00    +0.000 A 
ATOM     19  C   UNL     1      -1.436  14.151  24.112  0.00  0.00    +0.000 A 
ATOM     20  C   UNL     1      -1.183  13.299  23.039  0.00  0.00    +0.000 A 
ATOM     21  C   UNL     1      -2.075  13.327  21.980  0.00  0.00    +0.000 A 
ATOM     22  H   UNL     1      -5.126  13.429  21.292  0.00  0.00    +0.000 HD
ENDROOT
BRANCH  11  23
ATOM     23  C   UNL     1      -5.363  11.651  18.968  0.00  0.00    +0.000 C 
ATOM     24  O   UNL     1      -6.118  11.578  19.943  0.00  0.00    +0.000 OA
ENDBRANCH  11  23
TORSDOF 1
ENDMDL
MODEL 8
REMARK VINA RESULT:      -5.7     10.189     12.641
REMARK  Name = 
REMARK  3 active torsions:
REMARK  status: ('A' for Active; 'I' for Inactive)
REMARK    1  A    between atoms: C_1  and  C_2
REMARK    2  A    between atoms: N_5  and  C_6
REMARK    3  A    between atoms: C_11  and  C_12
REMARK                            x       y       z     vdW  Elec       q    Type
REMARK                         _______ _______ _______ _____ _____    ______ ____
ROOT
ATOM      1  C   UNL     1       5.851  16.142  24.962  0.00  0.00    +0.000 C 
ATOM      2  C   UNL     1       5.682  16.137  23.470  0.00  0.00    +0.000 C 
ATOM      3  C   UNL     1       6.518  15.545  22.581  0.00  0.00    +0.000 C 
ATOM      4  C   UNL     1       6.489  16.223  21.092  0.00  0.00    +0.000 C 
ATOM      5  N   UNL     1       7.791  16.060  20.108  0.00  0.00    +0.000 N 
ATOM      6  C   UNL     1       7.257  15.949  18.692  0.00  0.00    +0.000 C 
ATOM      7  C   UNL     1       9.177  16.775  20.083  0.00  0.00    +0.000 C 
ATOM      8  C   UNL     1      10.273  15.598  20.211  0.00  0.00    +0.000 C 
ATOM      9  C   UNL     1       9.504  14.256  20.476  0.00  0.00    +0.000 C 
ATOM     10  C   UNL     1       9.396  13.216  21.794  0.00  0.00    +0.000 C 
ATOM     11  C   UNL     1       8.408  13.365  22.768  0.00  0.00    +0.000 C 
ATOM     12  C   UNL     1       7.779  14.767  23.126  0.00  0.00    +0.000 C 
ATOM     13  C   UNL     1       8.678  15.564  22.311  0.00  0.00    +0.000 C 
ATOM     14  C   UNL     1       8.245  14.901  20.822  0.00  0.00    +0.000 C 
ATOM     15  N   UNL     1      10.241  12.161  21.492  0.00  0.00    +0.000 N 
ATOM     16  C   UNL     1      10.580  12.217  20.127  0.00  0.00    +0.000 A 
ATOM     17  C   UNL     1      11.578  11.501  19.495  0.00  0.00    +0.000 A 
ATOM     18  C   UNL     1      11.748  11.703  18.121  0.00  0.00    +0.000 A 
ATOM     19  C   UNL     1      10.873  12.534  17.401  0.00  0.00    +0.000 A 
ATOM     20  C   UNL     1       9.926  13.314  18.062  0.00  0.00    +0.000 A 
ATOM     21  C   UNL     1       9.892  13.241  19.444  0.00  0.00    +0.000 A 
ATOM     22  H   UNL     1      10.027  11.229  21.837  0.00  0.00    +0.000 HD
ENDROOT
BRANCH  11  23
ATOM     23  C   UNL     1       8.067  12.301  23.743  0.00  0.00    +0.000 C 
ATOM     24  O   UNL     1       8.077  11.110  23.412  0.00  0.00    +0.000 OA
ENDBRANCH  11  23
TORSDOF 1
ENDMDL
MODEL 9
REMARK VINA RESULT:      -5.7      2.920      5.324
REMARK  Name = 
REMARK  3 active torsions:
REMARK  status: ('A' for Active; 'I' for Inactive)
REMARK    1  A    between atoms: C_1  and  C_2
REMARK    2  A    between atoms: N_5  and  C_6
REMARK    3  A    between atoms: C_11  and  C_12
REMARK                            x       y       z     vdW  Elec       q    Type
REMARK                         _______ _______ _______ _____ _____    ______ ____
ROOT
ATOM      1  C   UNL     1       0.847  17.725  17.874  0.00  0.00    +0.000 C 
ATOM      2  C   UNL     1       0.667  17.407  19.330  0.00  0.00    +0.000 C 
ATOM      3  C   UNL     1       0.486  16.169  19.853  0.00  0.00    +0.000 C 
ATOM      4  C   UNL     1      -0.316  16.164  21.280  0.00  0.00    +0.000 C 
ATOM      5  N   UNL     1      -1.125  14.815  21.742  0.00  0.00    +0.000 N 
ATOM      6  C   UNL     1      -0.995  14.723  23.251  0.00  0.00    +0.000 C 
ATOM      7  C   UNL     1      -2.500  14.220  21.306  0.00  0.00    +0.000 C 
ATOM      8  C   UNL     1      -2.176  12.734  20.767  0.00  0.00    +0.000 C 
ATOM      9  C   UNL     1      -0.617  12.563  20.743  0.00  0.00    +0.000 C 
ATOM     10  C   UNL     1       0.519  12.399  19.513  0.00  0.00    +0.000 C 
ATOM     11  C   UNL     1       1.156  13.505  18.949  0.00  0.00    +0.000 C 
ATOM     12  C   UNL     1       0.476  14.926  18.878  0.00  0.00    +0.000 C 
ATOM     13  C   UNL     1      -0.831  14.509  19.354  0.00  0.00    +0.000 C 
ATOM     14  C   UNL     1      -0.335  13.985  20.879  0.00  0.00    +0.000 C 
ATOM     15  N   UNL     1       0.810  11.046  19.469  0.00  0.00    +0.000 N 
ATOM     16  C   UNL     1       0.312  10.427  20.630  0.00  0.00    +0.000 A 
ATOM     17  C   UNL     1       0.183   9.070  20.852  0.00  0.00    +0.000 A 
ATOM     18  C   UNL     1      -0.334   8.662  22.087  0.00  0.00    +0.000 A 
ATOM     19  C   UNL     1      -0.622   9.600  23.092  0.00  0.00    +0.000 A 
ATOM     20  C   UNL     1      -0.569  10.967  22.828  0.00  0.00    +0.000 A 
ATOM     21  C   UNL     1      -0.231  11.355  21.542  0.00  0.00    +0.000 A 
ATOM     22  H   UNL     1       1.738  10.738  19.189  0.00  0.00    +0.000 HD
ENDROOT
BRANCH  11  23
ATOM     23  C   UNL     1       2.382  13.397  18.122  0.00  0.00    +0.000 C 
ATOM     24  O   UNL     1       2.906  12.299  17.904  0.00  0.00    +0.000 OA
ENDBRANCH  11  23
TORSDOF 1
ENDMDL
