MODEL 1
REMARK VINA RESULT:      -8.2      0.000      0.000
REMARK  Name = 
REMARK  10 active torsions:
REMARK  status: ('A' for Active; 'I' for Inactive)
REMARK    1  A    between atoms: C_1  and  C_2
REMARK    2  A    between atoms: C_5  and  S_6
REMARK    3  A    between atoms: S_6  and  N_9
REMARK    4  A    between atoms: N_9  and  C_10
REMARK    5  A    between atoms: C_13  and  O_14
REMARK    6  A    between atoms: O_14  and  C_15
REMARK    7  A    between atoms: C_19  and  C_20
REMARK    8  A    between atoms: C_20  and  O_22
REMARK    9  A    between atoms: C_25  and  C_26
REMARK   10  A    between atoms: C_26  and  O_28
REMARK                            x       y       z     vdW  Elec       q    Type
REMARK                         _______ _______ _______ _____ _____    ______ ____
ROOT
ATOM      1  C   UNL     1       0.235  10.032  20.063  0.00  0.00    +0.000 A 
ATOM      2  C   UNL     1       0.757   9.812  18.778  0.00  0.00    +0.000 A 
ATOM      3  C   UNL     1       1.642   8.756  18.531  0.00  0.00    +0.000 A 
ATOM      4  C   UNL     1       2.074   7.943  19.577  0.00  0.00    +0.000 A 
ATOM      5  C   UNL     1       1.557   8.147  20.859  0.00  0.00    +0.000 A 
ATOM      6  C   UNL     1       0.613   9.167  21.108  0.00  0.00    +0.000 A 
ENDROOT
BRANCH   1   7
ATOM      7  N   UNL     1      -0.639  11.169  20.247  0.00  0.00    +0.000 N 
ATOM      8  H   UNL     1      -1.237  11.339  19.438  0.00  0.00    +0.000 HD
BRANCH   7   9
ATOM      9  S   UNL     1       0.177  12.638  20.598  0.00  0.00    +0.000 S 
ATOM     10  O   UNL     1      -0.041  13.489  19.444  0.00  0.00    +0.000 OA
ATOM     11  O   UNL     1       1.515  12.371  21.077  0.00  0.00    +0.000 OA
BRANCH   9  16
ATOM     12  C   UNL     1      -2.940  14.882  25.325  0.00  0.00    +0.000 C 
ATOM     13  C   UNL     1      -2.212  14.352  24.120  0.00  0.00    +0.000 A 
ATOM     14  C   UNL     1      -2.660  13.205  23.447  0.00  0.00    +0.000 A 
ATOM     15  C   UNL     1      -1.946  12.684  22.361  0.00  0.00    +0.000 A 
ATOM     16  C   UNL     1      -0.776  13.320  21.940  0.00  0.00    +0.000 A 
ATOM     17  C   UNL     1      -0.329  14.477  22.590  0.00  0.00    +0.000 A 
ATOM     18  C   UNL     1      -1.047  14.985  23.677  0.00  0.00    +0.000 A 
ENDBRANCH   9  16
ENDBRANCH   7   9
ENDBRANCH   1   7
BRANCH   6  19
ATOM     19  C   UNL     1      -0.012   9.263  22.468  0.00  0.00    +0.000 C 
ATOM     20  O   UNL     1       0.241  10.126  23.290  0.00  0.00    +0.000 OA
BRANCH  19  21
ATOM     21  O   UNL     1      -0.957   8.322  22.711  0.00  0.00    +0.000 OA
ATOM     22  H   UNL     1      -1.560   8.104  21.980  0.00  0.00    +0.000 HD
ENDBRANCH  19  21
ENDBRANCH   6  19
BRANCH   4  23
ATOM     23  O   UNL     1       2.923   6.909  19.243  0.00  0.00    +0.000 OA
BRANCH  23  24
ATOM     24  C   UNL     1       2.440   5.622  19.137  0.00  0.00    +0.000 A 
ATOM     25  C   UNL     1       1.852   5.108  17.979  0.00  0.00    +0.000 A 
ATOM     26  C   UNL     1       1.375   3.795  17.956  0.00  0.00    +0.000 A 
ATOM     27  C   UNL     1       1.440   3.003  19.103  0.00  0.00    +0.000 A 
ATOM     28  C   UNL     1       1.972   3.531  20.286  0.00  0.00    +0.000 A 
ATOM     29  C   UNL     1       2.482   4.840  20.296  0.00  0.00    +0.000 A 
BRANCH  28  30
ATOM     30  C   UNL     1       2.066   2.728  21.535  0.00  0.00    +0.000 C 
ATOM     31  O   UNL     1       3.129   2.312  21.966  0.00  0.00    +0.000 OA
BRANCH  30  32
ATOM     32  O   UNL     1       0.888   2.531  22.160  0.00  0.00    +0.000 OA
ATOM     33  H   UNL     1       0.630   3.216  22.804  0.00  0.00    +0.000 HD
ENDBRANCH  30  32
ENDBRANCH  28  30
ENDBRANCH  23  24
ENDBRANCH   4  23
TORSDOF 9
ENDMDL
MODEL 2
REMARK VINA RESULT:      -8.1      3.985      9.599
REMARK  Name = 
REMARK  10 active torsions:
REMARK  status: ('A' for Active; 'I' for Inactive)
REMARK    1  A    between atoms: C_1  and  C_2
REMARK    2  A    between atoms: C_5  and  S_6
REMARK    3  A    between atoms: S_6  and  N_9
REMARK    4  A    between atoms: N_9  and  C_10
REMARK    5  A    between atoms: C_13  and  O_14
REMARK    6  A    between atoms: O_14  and  C_15
REMARK    7  A    between atoms: C_19  and  C_20
REMARK    8  A    between atoms: C_20  and  O_22
REMARK    9  A    between atoms: C_25  and  C_26
REMARK   10  A    between atoms: C_26  and  O_28
REMARK                            x       y       z     vdW  Elec       q    Type
REMARK                         _______ _______ _______ _____ _____    ______ ____
ROOT
ATOM      1  C   UNL     1       2.448   5.792  18.929  0.00  0.00    +0.000 A 
ATOM      2  C   UNL     1       2.653   7.071  18.387  0.00  0.00    +0.000 A 
ATOM      3  C   UNL     1       2.198   8.216  19.051  0.00  0.00    +0.000 A 
ATOM      4  C   UNL     1       1.470   8.099  20.233  0.00  0.00    +0.000 A 
ATOM      5  C   UNL     1       1.264   6.833  20.786  0.00  0.00    +0.000 A 
ATOM      6  C   UNL     1       1.776   5.675  20.160  0.00  0.00    +0.000 A 
ENDROOT
BRANCH   1   7
ATOM      7  N   UNL     1       2.910   4.656  18.162  0.00  0.00    +0.000 N 
ATOM      8  H   UNL     1       2.287   3.851  18.240  0.00  0.00    +0.000 HD
BRANCH   7   9
ATOM      9  S   UNL     1       4.490   4.123  18.570  0.00  0.00    +0.000 S 
ATOM     10  O   UNL     1       4.368   2.699  18.814  0.00  0.00    +0.000 OA
ATOM     11  O   UNL     1       5.078   4.996  19.562  0.00  0.00    +0.000 OA
BRANCH   9  16
ATOM     12  C   UNL     1       7.549   5.006  13.378  0.00  0.00    +0.000 C 
ATOM     13  C   UNL     1       6.798   4.727  14.651  0.00  0.00    +0.000 A 
ATOM     14  C   UNL     1       5.442   4.369  14.630  0.00  0.00    +0.000 A 
ATOM     15  C   UNL     1       4.734   4.166  15.821  0.00  0.00    +0.000 A 
ATOM     16  C   UNL     1       5.389   4.319  17.044  0.00  0.00    +0.000 A 
ATOM     17  C   UNL     1       6.748   4.657  17.079  0.00  0.00    +0.000 A 
ATOM     18  C   UNL     1       7.444   4.862  15.883  0.00  0.00    +0.000 A 
ENDBRANCH   9  16
ENDBRANCH   7   9
ENDBRANCH   1   7
BRANCH   6  19
ATOM     19  C   UNL     1       1.645   4.353  20.859  0.00  0.00    +0.000 C 
ATOM     20  O   UNL     1       2.335   3.992  21.796  0.00  0.00    +0.000 OA
BRANCH  19  21
ATOM     21  O   UNL     1       0.633   3.580  20.397  0.00  0.00    +0.000 OA
ATOM     22  H   UNL     1      -0.222   3.652  20.857  0.00  0.00    +0.000 HD
ENDBRANCH  19  21
ENDBRANCH   6  19
BRANCH   4  23
ATOM     23  O   UNL     1       1.083   9.277  20.838  0.00  0.00    +0.000 OA
BRANCH  23  24
ATOM     24  C   UNL     1       0.624  10.329  20.074  0.00  0.00    +0.000 A 
ATOM     25  C   UNL     1       1.086  11.640  20.205  0.00  0.00    +0.000 A 
ATOM     26  C   UNL     1       0.561  12.654  19.401  0.00  0.00    +0.000 A 
ATOM     27  C   UNL     1      -0.463  12.374  18.494  0.00  0.00    +0.000 A 
ATOM     28  C   UNL     1      -0.974  11.073  18.400  0.00  0.00    +0.000 A 
ATOM     29  C   UNL     1      -0.419  10.049  19.185  0.00  0.00    +0.000 A 
BRANCH  28  30
ATOM     30  C   UNL     1      -2.062  10.722  17.448  0.00  0.00    +0.000 C 
ATOM     31  O   UNL     1      -2.803   9.769  17.625  0.00  0.00    +0.000 OA
BRANCH  30  32
ATOM     32  O   UNL     1      -2.177  11.562  16.399  0.00  0.00    +0.000 OA
ATOM     33  H   UNL     1      -1.420  11.579  15.785  0.00  0.00    +0.000 HD
ENDBRANCH  30  32
ENDBRANCH  28  30
ENDBRANCH  23  24
ENDBRANCH   4  23
TORSDOF 9
ENDMDL
MODEL 3
REMARK VINA RESULT:      -8.1      5.246      7.879
REMARK  Name = 
REMARK  10 active torsions:
REMARK  status: ('A' for Active; 'I' for Inactive)
REMARK    1  A    between atoms: C_1  and  C_2
REMARK    2  A    between atoms: C_5  and  S_6
REMARK    3  A    between atoms: S_6  and  N_9
REMARK    4  A    between atoms: N_9  and  C_10
REMARK    5  A    between atoms: C_13  and  O_14
REMARK    6  A    between atoms: O_14  and  C_15
REMARK    7  A    between atoms: C_19  and  C_20
REMARK    8  A    between atoms: C_20  and  O_22
REMARK    9  A    between atoms: C_25  and  C_26
REMARK   10  A    between atoms: C_26  and  O_28
REMARK                            x       y       z     vdW  Elec       q    Type
REMARK                         _______ _______ _______ _____ _____    ______ ____
ROOT
ATOM      1  C   UNL     1       3.386   5.036  17.551  0.00  0.00    +0.000 A 
ATOM      2  C   UNL     1       4.113   6.136  17.069  0.00  0.00    +0.000 A 
ATOM      3  C   UNL     1       5.355   5.963  16.449  0.00  0.00    +0.000 A 
ATOM      4  C   UNL     1       5.925   4.694  16.360  0.00  0.00    +0.000 A 
ATOM      5  C   UNL     1       5.210   3.590  16.830  0.00  0.00    +0.000 A 
ATOM      6  C   UNL     1       3.926   3.744  17.398  0.00  0.00    +0.000 A 
ENDROOT
BRANCH   1   7
ATOM      7  N   UNL     1       2.131   5.300  18.218  0.00  0.00    +0.000 N 
ATOM      8  H   UNL     1       1.588   6.031  17.756  0.00  0.00    +0.000 HD
BRANCH   7   9
ATOM      9  S   UNL     1       2.287   5.743  19.868  0.00  0.00    +0.000 S 
ATOM     10  O   UNL     1       3.713   5.749  20.135  0.00  0.00    +0.000 OA
ATOM     11  O   UNL     1       1.386   4.965  20.688  0.00  0.00    +0.000 OA
BRANCH   9  16
ATOM     12  C   UNL     1       0.636  11.604  19.948  0.00  0.00    +0.000 C 
ATOM     13  C   UNL     1       0.984  10.142  19.925  0.00  0.00    +0.000 A 
ATOM     14  C   UNL     1       0.843   9.343  21.069  0.00  0.00    +0.000 A 
ATOM     15  C   UNL     1       1.223   7.995  21.056  0.00  0.00    +0.000 A 
ATOM     16  C   UNL     1       1.744   7.439  19.886  0.00  0.00    +0.000 A 
ATOM     17  C   UNL     1       1.871   8.220  18.730  0.00  0.00    +0.000 A 
ATOM     18  C   UNL     1       1.494   9.567  18.756  0.00  0.00    +0.000 A 
ENDBRANCH   9  16
ENDBRANCH   7   9
ENDBRANCH   1   7
BRANCH   6  19
ATOM     19  C   UNL     1       3.142   2.519  17.766  0.00  0.00    +0.000 C 
ATOM     20  O   UNL     1       1.926   2.440  17.745  0.00  0.00    +0.000 OA
BRANCH  19  21
ATOM     21  O   UNL     1       3.906   1.445  18.079  0.00  0.00    +0.000 OA
ATOM     22  H   UNL     1       4.864   1.594  18.161  0.00  0.00    +0.000 HD
ENDBRANCH  19  21
ENDBRANCH   6  19
BRANCH   4  23
ATOM     23  O   UNL     1       7.138   4.608  15.709  0.00  0.00    +0.000 OA
BRANCH  23  24
ATOM     24  C   UNL     1       7.185   4.591  14.331  0.00  0.00    +0.000 A 
ATOM     25  C   UNL     1       7.953   5.476  13.571  0.00  0.00    +0.000 A 
ATOM     26  C   UNL     1       7.937   5.402  12.177  0.00  0.00    +0.000 A 
ATOM     27  C   UNL     1       7.120   4.473  11.531  0.00  0.00    +0.000 A 
ATOM     28  C   UNL     1       6.301   3.622  12.284  0.00  0.00    +0.000 A 
ATOM     29  C   UNL     1       6.345   3.676  13.687  0.00  0.00    +0.000 A 
BRANCH  28  30
ATOM     30  C   UNL     1       5.414   2.613  11.644  0.00  0.00    +0.000 C 
ATOM     31  O   UNL     1       5.781   1.473  11.413  0.00  0.00    +0.000 OA
BRANCH  30  32
ATOM     32  O   UNL     1       4.169   3.057  11.375  0.00  0.00    +0.000 OA
ATOM     33  H   UNL     1       3.515   2.942  12.089  0.00  0.00    +0.000 HD
ENDBRANCH  30  32
ENDBRANCH  28  30
ENDBRANCH  23  24
ENDBRANCH   4  23
TORSDOF 9
ENDMDL
MODEL 4
REMARK VINA RESULT:      -8.0      3.603      9.002
REMARK  Name = 
REMARK  10 active torsions:
REMARK  status: ('A' for Active; 'I' for Inactive)
REMARK    1  A    between atoms: C_1  and  C_2
REMARK    2  A    between atoms: C_5  and  S_6
REMARK    3  A    between atoms: S_6  and  N_9
REMARK    4  A    between atoms: N_9  and  C_10
REMARK    5  A    between atoms: C_13  and  O_14
REMARK    6  A    between atoms: O_14  and  C_15
REMARK    7  A    between atoms: C_19  and  C_20
REMARK    8  A    between atoms: C_20  and  O_22
REMARK    9  A    between atoms: C_25  and  C_26
REMARK   10  A    between atoms: C_26  and  O_28
REMARK                            x       y       z     vdW  Elec       q    Type
REMARK                         _______ _______ _______ _____ _____    ______ ____
ROOT
ATOM      1  C   UNL     1       2.226   4.849  18.911  0.00  0.00    +0.000 A 
ATOM      2  C   UNL     1       2.541   6.021  18.205  0.00  0.00    +0.000 A 
ATOM      3  C   UNL     1       2.416   7.279  18.805  0.00  0.00    +0.000 A 
ATOM      4  C   UNL     1       1.908   7.393  20.097  0.00  0.00    +0.000 A 
ATOM      5  C   UNL     1       1.596   6.235  20.813  0.00  0.00    +0.000 A 
ATOM      6  C   UNL     1       1.781   4.956  20.243  0.00  0.00    +0.000 A 
ENDROOT
BRANCH   1   7
ATOM      7  N   UNL     1       2.341   3.590  18.209  0.00  0.00    +0.000 N 
ATOM      8  H   UNL     1       1.623   2.920  18.486  0.00  0.00    +0.000 HD
BRANCH   7   9
ATOM      9  S   UNL     1       3.862   2.816  18.390  0.00  0.00    +0.000 S 
ATOM     10  O   UNL     1       3.965   1.895  17.275  0.00  0.00    +0.000 OA
ATOM     11  O   UNL     1       4.036   2.353  19.749  0.00  0.00    +0.000 OA
BRANCH   9  16
ATOM     12  C   UNL     1       7.689   7.458  17.443  0.00  0.00    +0.000 C 
ATOM     13  C   UNL     1       6.786   6.274  17.654  0.00  0.00    +0.000 A 
ATOM     14  C   UNL     1       6.077   5.703  16.587  0.00  0.00    +0.000 A 
ATOM     15  C   UNL     1       5.194   4.636  16.800  0.00  0.00    +0.000 A 
ATOM     16  C   UNL     1       5.024   4.133  18.091  0.00  0.00    +0.000 A 
ATOM     17  C   UNL     1       5.742   4.680  19.162  0.00  0.00    +0.000 A 
ATOM     18  C   UNL     1       6.617   5.749  18.939  0.00  0.00    +0.000 A 
ENDBRANCH   9  16
ENDBRANCH   7   9
ENDBRANCH   1   7
BRANCH   6  19
ATOM     19  C   UNL     1       1.560   3.741  21.095  0.00  0.00    +0.000 C 
ATOM     20  O   UNL     1       2.172   3.489  22.118  0.00  0.00    +0.000 OA
BRANCH  19  21
ATOM     21  O   UNL     1       0.554   2.940  20.667  0.00  0.00    +0.000 OA
ATOM     22  H   UNL     1       0.746   2.356  19.913  0.00  0.00    +0.000 HD
ENDBRANCH  19  21
ENDBRANCH   6  19
BRANCH   4  23
ATOM     23  O   UNL     1       1.843   8.666  20.623  0.00  0.00    +0.000 OA
BRANCH  23  24
ATOM     24  C   UNL     1       0.825   9.518  20.252  0.00  0.00    +0.000 A 
ATOM     25  C   UNL     1       0.477   9.779  18.925  0.00  0.00    +0.000 A 
ATOM     26  C   UNL     1      -0.561  10.666  18.632  0.00  0.00    +0.000 A 
ATOM     27  C   UNL     1      -1.228  11.334  19.660  0.00  0.00    +0.000 A 
ATOM     28  C   UNL     1      -0.844  11.125  20.990  0.00  0.00    +0.000 A 
ATOM     29  C   UNL     1       0.177  10.206  21.284  0.00  0.00    +0.000 A 
BRANCH  28  30
ATOM     30  C   UNL     1      -1.524  11.810  22.123  0.00  0.00    +0.000 C 
ATOM     31  O   UNL     1      -2.482  12.548  21.960  0.00  0.00    +0.000 OA
BRANCH  30  32
ATOM     32  O   UNL     1      -1.015  11.519  23.337  0.00  0.00    +0.000 OA
ATOM     33  H   UNL     1      -0.232  10.937  23.340  0.00  0.00    +0.000 HD
ENDBRANCH  30  32
ENDBRANCH  28  30
ENDBRANCH  23  24
ENDBRANCH   4  23
TORSDOF 9
ENDMDL
MODEL 5
REMARK VINA RESULT:      -8.0      1.710      2.286
REMARK  Name = 
REMARK  10 active torsions:
REMARK  status: ('A' for Active; 'I' for Inactive)
REMARK    1  A    between atoms: C_1  and  C_2
REMARK    2  A    between atoms: C_5  and  S_6
REMARK    3  A    between atoms: S_6  and  N_9
REMARK    4  A    between atoms: N_9  and  C_10
REMARK    5  A    between atoms: C_13  and  O_14
REMARK    6  A    between atoms: O_14  and  C_15
REMARK    7  A    between atoms: C_19  and  C_20
REMARK    8  A    between atoms: C_20  and  O_22
REMARK    9  A    between atoms: C_25  and  C_26
REMARK   10  A    between atoms: C_26  and  O_28
REMARK                            x       y       z     vdW  Elec       q    Type
REMARK                         _______ _______ _______ _____ _____    ______ ____
ROOT
ATOM      1  C   UNL     1       0.764  10.050  19.350  0.00  0.00    +0.000 A 
ATOM      2  C   UNL     1       1.381   9.726  18.131  0.00  0.00    +0.000 A 
ATOM      3  C   UNL     1       2.135   8.555  17.994  0.00  0.00    +0.000 A 
ATOM      4  C   UNL     1       2.343   7.721  19.091  0.00  0.00    +0.000 A 
ATOM      5  C   UNL     1       1.729   8.028  20.308  0.00  0.00    +0.000 A 
ATOM      6  C   UNL     1       0.912   9.172  20.441  0.00  0.00    +0.000 A 
ENDROOT
BRANCH   1   7
ATOM      7  N   UNL     1       0.038  11.298  19.425  0.00  0.00    +0.000 N 
ATOM      8  H   UNL     1      -0.130  11.596  20.386  0.00  0.00    +0.000 HD
BRANCH   7   9
ATOM      9  S   UNL     1      -1.477  11.284  18.619  0.00  0.00    +0.000 S 
ATOM     10  O   UNL     1      -1.841   9.886  18.502  0.00  0.00    +0.000 OA
ATOM     11  O   UNL     1      -1.438  12.138  17.453  0.00  0.00    +0.000 OA
BRANCH   9  16
ATOM     12  C   UNL     1      -5.260  13.584  22.802  0.00  0.00    +0.000 C 
ATOM     13  C   UNL     1      -4.323  13.071  21.743  0.00  0.00    +0.000 A 
ATOM     14  C   UNL     1      -4.780  12.779  20.449  0.00  0.00    +0.000 A 
ATOM     15  C   UNL     1      -3.914  12.248  19.485  0.00  0.00    +0.000 A 
ATOM     16  C   UNL     1      -2.578  12.013  19.815  0.00  0.00    +0.000 A 
ATOM     17  C   UNL     1      -2.104  12.320  21.097  0.00  0.00    +0.000 A 
ATOM     18  C   UNL     1      -2.979  12.844  22.055  0.00  0.00    +0.000 A 
ENDBRANCH   9  16
ENDBRANCH   7   9
ENDBRANCH   1   7
BRANCH   6  19
ATOM     19  C   UNL     1       0.168   9.388  21.726  0.00  0.00    +0.000 C 
ATOM     20  O   UNL     1      -0.671   8.630  22.179  0.00  0.00    +0.000 OA
BRANCH  19  21
ATOM     21  O   UNL     1       0.547  10.497  22.406  0.00  0.00    +0.000 OA
ATOM     22  H   UNL     1       0.202  11.349  22.088  0.00  0.00    +0.000 HD
ENDBRANCH  19  21
ENDBRANCH   6  19
BRANCH   4  23
ATOM     23  O   UNL     1       3.073   6.574  18.863  0.00  0.00    +0.000 OA
BRANCH  23  24
ATOM     24  C   UNL     1       2.461   5.340  18.916  0.00  0.00    +0.000 A 
ATOM     25  C   UNL     1       1.741   4.786  17.856  0.00  0.00    +0.000 A 
ATOM     26  C   UNL     1       1.139   3.533  17.994  0.00  0.00    +0.000 A 
ATOM     27  C   UNL     1       1.212   2.847  19.207  0.00  0.00    +0.000 A 
ATOM     28  C   UNL     1       1.881   3.423  20.294  0.00  0.00    +0.000 A 
ATOM     29  C   UNL     1       2.515   4.667  20.141  0.00  0.00    +0.000 A 
BRANCH  28  30
ATOM     30  C   UNL     1       1.990   2.731  21.607  0.00  0.00    +0.000 C 
ATOM     31  O   UNL     1       1.022   2.530  22.322  0.00  0.00    +0.000 OA
BRANCH  30  32
ATOM     32  O   UNL     1       3.236   2.320  21.917  0.00  0.00    +0.000 OA
ATOM     33  H   UNL     1       3.766   1.977  21.175  0.00  0.00    +0.000 HD
ENDBRANCH  30  32
ENDBRANCH  28  30
ENDBRANCH  23  24
ENDBRANCH   4  23
TORSDOF 9
ENDMDL
MODEL 6
REMARK VINA RESULT:      -8.0      5.146      7.688
REMARK  Name = 
REMARK  10 active torsions:
REMARK  status: ('A' for Active; 'I' for Inactive)
REMARK    1  A    between atoms: C_1  and  C_2
REMARK    2  A    between atoms: C_5  and  S_6
REMARK    3  A    between atoms: S_6  and  N_9
REMARK    4  A    between atoms: N_9  and  C_10
REMARK    5  A    between atoms: C_13  and  O_14
REMARK    6  A    between atoms: O_14  and  C_15
REMARK    7  A    between atoms: C_19  and  C_20
REMARK    8  A    between atoms: C_20  and  O_22
REMARK    9  A    between atoms: C_25  and  C_26
REMARK   10  A    between atoms: C_26  and  O_28
REMARK                            x       y       z     vdW  Elec       q    Type
REMARK                         _______ _______ _______ _____ _____    ______ ____
ROOT
ATOM      1  C   UNL     1       3.333   5.269  17.603  0.00  0.00    +0.000 A 
ATOM      2  C   UNL     1       4.064   6.295  16.983  0.00  0.00    +0.000 A 
ATOM      3  C   UNL     1       5.301   6.036  16.382  0.00  0.00    +0.000 A 
ATOM      4  C   UNL     1       5.861   4.762  16.450  0.00  0.00    +0.000 A 
ATOM      5  C   UNL     1       5.142   3.731  17.060  0.00  0.00    +0.000 A 
ATOM      6  C   UNL     1       3.863   3.965  17.611  0.00  0.00    +0.000 A 
ENDROOT
BRANCH   1   7
ATOM      7  N   UNL     1       2.084   5.625  18.239  0.00  0.00    +0.000 N 
ATOM      8  H   UNL     1       1.643   6.439  17.809  0.00  0.00    +0.000 HD
BRANCH   7   9
ATOM      9  S   UNL     1       2.212   5.940  19.921  0.00  0.00    +0.000 S 
ATOM     10  O   UNL     1       3.630   5.895  20.218  0.00  0.00    +0.000 OA
ATOM     11  O   UNL     1       1.275   5.125  20.662  0.00  0.00    +0.000 OA
BRANCH   9  16
ATOM     12  C   UNL     1       0.267  11.695  20.362  0.00  0.00    +0.000 C 
ATOM     13  C   UNL     1       0.805  10.295  20.255  0.00  0.00    +0.000 A 
ATOM     14  C   UNL     1       1.313   9.802  19.044  0.00  0.00    +0.000 A 
ATOM     15  C   UNL     1       1.760   8.479  18.938  0.00  0.00    +0.000 A 
ATOM     16  C   UNL     1       1.703   7.642  20.054  0.00  0.00    +0.000 A 
ATOM     17  C   UNL     1       1.217   8.127  21.275  0.00  0.00    +0.000 A 
ATOM     18  C   UNL     1       0.768   9.449  21.369  0.00  0.00    +0.000 A 
ENDBRANCH   9  16
ENDBRANCH   7   9
ENDBRANCH   1   7
BRANCH   6  19
ATOM     19  C   UNL     1       3.073   2.802  18.135  0.00  0.00    +0.000 C 
ATOM     20  O   UNL     1       2.610   1.910  17.445  0.00  0.00    +0.000 OA
BRANCH  19  21
ATOM     21  O   UNL     1       2.954   2.775  19.484  0.00  0.00    +0.000 OA
ATOM     22  H   UNL     1       3.777   2.707  19.999  0.00  0.00    +0.000 HD
ENDBRANCH  19  21
ENDBRANCH   6  19
BRANCH   4  23
ATOM     23  O   UNL     1       7.069   4.585  15.808  0.00  0.00    +0.000 OA
BRANCH  23  24
ATOM     24  C   UNL     1       7.127   4.571  14.431  0.00  0.00    +0.000 A 
ATOM     25  C   UNL     1       7.910   5.449  13.679  0.00  0.00    +0.000 A 
ATOM     26  C   UNL     1       7.904   5.377  12.285  0.00  0.00    +0.000 A 
ATOM     27  C   UNL     1       7.080   4.460  11.630  0.00  0.00    +0.000 A 
ATOM     28  C   UNL     1       6.246   3.618  12.375  0.00  0.00    +0.000 A 
ATOM     29  C   UNL     1       6.280   3.668  13.779  0.00  0.00    +0.000 A 
BRANCH  28  30
ATOM     30  C   UNL     1       5.351   2.622  11.727  0.00  0.00    +0.000 C 
ATOM     31  O   UNL     1       4.235   2.909  11.326  0.00  0.00    +0.000 OA
BRANCH  30  32
ATOM     32  O   UNL     1       5.891   1.394  11.591  0.00  0.00    +0.000 OA
ATOM     33  H   UNL     1       5.993   0.882  12.414  0.00  0.00    +0.000 HD
ENDBRANCH  30  32
ENDBRANCH  28  30
ENDBRANCH  23  24
ENDBRANCH   4  23
TORSDOF 9
ENDMDL
MODEL 7
REMARK VINA RESULT:      -8.0      1.459      2.078
REMARK  Name = 
REMARK  10 active torsions:
REMARK  status: ('A' for Active; 'I' for Inactive)
REMARK    1  A    between atoms: C_1  and  C_2
REMARK    2  A    between atoms: C_5  and  S_6
REMARK    3  A    between atoms: S_6  and  N_9
REMARK    4  A    between atoms: N_9  and  C_10
REMARK    5  A    between atoms: C_13  and  O_14
REMARK    6  A    between atoms: O_14  and  C_15
REMARK    7  A    between atoms: C_19  and  C_20
REMARK    8  A    between atoms: C_20  and  O_22
REMARK    9  A    between atoms: C_25  and  C_26
REMARK   10  A    between atoms: C_26  and  O_28
REMARK                            x       y       z     vdW  Elec       q    Type
REMARK                         _______ _______ _______ _____ _____    ______ ____
ROOT
ATOM      1  C   UNL     1       1.060   9.923  19.463  0.00  0.00    +0.000 A 
ATOM      2  C   UNL     1       1.650   9.679  18.212  0.00  0.00    +0.000 A 
ATOM      3  C   UNL     1       2.304   8.471  17.948  0.00  0.00    +0.000 A 
ATOM      4  C   UNL     1       2.440   7.512  18.950  0.00  0.00    +0.000 A 
ATOM      5  C   UNL     1       1.853   7.739  20.197  0.00  0.00    +0.000 A 
ATOM      6  C   UNL     1       1.133   8.927  20.455  0.00  0.00    +0.000 A 
ENDROOT
BRANCH   1   7
ATOM      7  N   UNL     1       0.440  11.213  19.673  0.00  0.00    +0.000 N 
ATOM      8  H   UNL     1       0.363  11.454  20.661  0.00  0.00    +0.000 HD
BRANCH   7   9
ATOM      9  S   UNL     1      -1.124  11.366  18.983  0.00  0.00    +0.000 S 
ATOM     10  O   UNL     1      -1.567  10.010  18.722  0.00  0.00    +0.000 OA
ATOM     11  O   UNL     1      -1.119  12.357  17.932  0.00  0.00    +0.000 OA
BRANCH   9  16
ATOM     12  C   UNL     1      -4.417  13.685  23.552  0.00  0.00    +0.000 C 
ATOM     13  C   UNL     1      -3.619  13.056  22.443  0.00  0.00    +0.000 A 
ATOM     14  C   UNL     1      -2.361  12.487  22.686  0.00  0.00    +0.000 A 
ATOM     15  C   UNL     1      -1.599  11.954  21.638  0.00  0.00    +0.000 A 
ATOM     16  C   UNL     1      -2.104  11.985  20.337  0.00  0.00    +0.000 A 
ATOM     17  C   UNL     1      -3.368  12.532  20.083  0.00  0.00    +0.000 A 
ATOM     18  C   UNL     1      -4.118  13.067  21.136  0.00  0.00    +0.000 A 
ENDBRANCH   9  16
ENDBRANCH   7   9
ENDBRANCH   1   7
BRANCH   6  19
ATOM     19  C   UNL     1       0.408   9.068  21.761  0.00  0.00    +0.000 C 
ATOM     20  O   UNL     1      -0.639   8.509  22.039  0.00  0.00    +0.000 OA
BRANCH  19  21
ATOM     21  O   UNL     1       1.047   9.844  22.669  0.00  0.00    +0.000 OA
ATOM     22  H   UNL     1       0.964   9.588  23.605  0.00  0.00    +0.000 HD
ENDBRANCH  19  21
ENDBRANCH   6  19
BRANCH   4  23
ATOM     23  O   UNL     1       3.073   6.339  18.598  0.00  0.00    +0.000 OA
BRANCH  23  24
ATOM     24  C   UNL     1       2.431   5.129  18.759  0.00  0.00    +0.000 A 
ATOM     25  C   UNL     1       1.645   4.532  17.772  0.00  0.00    +0.000 A 
ATOM     26  C   UNL     1       1.017   3.309  18.017  0.00  0.00    +0.000 A 
ATOM     27  C   UNL     1       1.132   2.698  19.267  0.00  0.00    +0.000 A 
ATOM     28  C   UNL     1       1.868   3.320  20.283  0.00  0.00    +0.000 A 
ATOM     29  C   UNL     1       2.527   4.533  20.021  0.00  0.00    +0.000 A 
BRANCH  28  30
ATOM     30  C   UNL     1       2.023   2.709  21.630  0.00  0.00    +0.000 C 
ATOM     31  O   UNL     1       1.090   2.597  22.409  0.00  0.00    +0.000 OA
BRANCH  30  32
ATOM     32  O   UNL     1       3.266   2.263  21.900  0.00  0.00    +0.000 OA
ATOM     33  H   UNL     1       3.452   1.342  21.640  0.00  0.00    +0.000 HD
ENDBRANCH  30  32
ENDBRANCH  28  30
ENDBRANCH  23  24
ENDBRANCH   4  23
TORSDOF 9
ENDMDL
MODEL 8
REMARK VINA RESULT:      -7.8      3.581      8.986
REMARK  Name = 
REMARK  10 active torsions:
REMARK  status: ('A' for Active; 'I' for Inactive)
REMARK    1  A    between atoms: C_1  and  C_2
REMARK    2  A    between atoms: C_5  and  S_6
REMARK    3  A    between atoms: S_6  and  N_9
REMARK    4  A    between atoms: N_9  and  C_10
REMARK    5  A    between atoms: C_13  and  O_14
REMARK    6  A    between atoms: O_14  and  C_15
REMARK    7  A    between atoms: C_19  and  C_20
REMARK    8  A    between atoms: C_20  and  O_22
REMARK    9  A    between atoms: C_25  and  C_26
REMARK   10  A    between atoms: C_26  and  O_28
REMARK                            x       y       z     vdW  Elec       q    Type
REMARK                         _______ _______ _______ _____ _____    ______ ____
ROOT
ATOM      1  C   UNL     1       2.124   4.885  18.938  0.00  0.00    +0.000 A 
ATOM      2  C   UNL     1       2.435   6.073  18.257  0.00  0.00    +0.000 A 
ATOM      3  C   UNL     1       2.355   7.313  18.900  0.00  0.00    +0.000 A 
ATOM      4  C   UNL     1       1.899   7.395  20.214  0.00  0.00    +0.000 A 
ATOM      5  C   UNL     1       1.592   6.221  20.905  0.00  0.00    +0.000 A 
ATOM      6  C   UNL     1       1.732   4.958  20.288  0.00  0.00    +0.000 A 
ENDROOT
BRANCH   1   7
ATOM      7  N   UNL     1       2.189   3.647  18.193  0.00  0.00    +0.000 N 
ATOM      8  H   UNL     1       1.494   2.966  18.503  0.00  0.00    +0.000 HD
BRANCH   7   9
ATOM      9  S   UNL     1       3.720   2.874  18.239  0.00  0.00    +0.000 S 
ATOM     10  O   UNL     1       3.789   2.077  17.030  0.00  0.00    +0.000 OA
ATOM     11  O   UNL     1       3.946   2.273  19.534  0.00  0.00    +0.000 OA
BRANCH   9  16
ATOM     12  C   UNL     1       7.768   7.360  17.474  0.00  0.00    +0.000 C 
ATOM     13  C   UNL     1       6.730   6.293  17.688  0.00  0.00    +0.000 A 
ATOM     14  C   UNL     1       6.522   5.726  18.954  0.00  0.00    +0.000 A 
ATOM     15  C   UNL     1       5.593   4.693  19.134  0.00  0.00    +0.000 A 
ATOM     16  C   UNL     1       4.862   4.227  18.040  0.00  0.00    +0.000 A 
ATOM     17  C   UNL     1       5.046   4.799  16.774  0.00  0.00    +0.000 A 
ATOM     18  C   UNL     1       5.980   5.826  16.604  0.00  0.00    +0.000 A 
ENDBRANCH   9  16
ENDBRANCH   7   9
ENDBRANCH   1   7
BRANCH   6  19
ATOM     19  C   UNL     1       1.519   3.721  21.110  0.00  0.00    +0.000 C 
ATOM     20  O   UNL     1       2.149   3.437  22.115  0.00  0.00    +0.000 OA
BRANCH  19  21
ATOM     21  O   UNL     1       0.503   2.935  20.678  0.00  0.00    +0.000 OA
ATOM     22  H   UNL     1      -0.401   3.269  20.812  0.00  0.00    +0.000 HD
ENDBRANCH  19  21
ENDBRANCH   6  19
BRANCH   4  23
ATOM     23  O   UNL     1       1.877   8.652  20.781  0.00  0.00    +0.000 OA
BRANCH  23  24
ATOM     24  C   UNL     1       0.839   9.517  20.510  0.00  0.00    +0.000 A 
ATOM     25  C   UNL     1       0.372   9.788  19.223  0.00  0.00    +0.000 A 
ATOM     26  C   UNL     1      -0.679  10.688  19.031  0.00  0.00    +0.000 A 
ATOM     27  C   UNL     1      -1.239  11.359  20.119  0.00  0.00    +0.000 A 
ATOM     28  C   UNL     1      -0.735  11.138  21.407  0.00  0.00    +0.000 A 
ATOM     29  C   UNL     1       0.298  10.207  21.601  0.00  0.00    +0.000 A 
BRANCH  28  30
ATOM     30  C   UNL     1      -1.299  11.825  22.601  0.00  0.00    +0.000 C 
ATOM     31  O   UNL     1      -2.061  11.271  23.376  0.00  0.00    +0.000 OA
BRANCH  30  32
ATOM     32  O   UNL     1      -0.870  13.093  22.768  0.00  0.00    +0.000 OA
ATOM     33  H   UNL     1      -1.558  13.748  22.984  0.00  0.00    +0.000 HD
ENDBRANCH  30  32
ENDBRANCH  28  30
ENDBRANCH  23  24
ENDBRANCH   4  23
TORSDOF 9
ENDMDL
MODEL 9
REMARK VINA RESULT:      -7.8      4.035      9.618
REMARK  Name = 
REMARK  10 active torsions:
REMARK  status: ('A' for Active; 'I' for Inactive)
REMARK    1  A    between atoms: C_1  and  C_2
REMARK    2  A    between atoms: C_5  and  S_6
REMARK    3  A    between atoms: S_6  and  N_9
REMARK    4  A    between atoms: N_9  and  C_10
REMARK    5  A    between atoms: C_13  and  O_14
REMARK    6  A    between atoms: O_14  and  C_15
REMARK    7  A    between atoms: C_19  and  C_20
REMARK    8  A    between atoms: C_20  and  O_22
REMARK    9  A    between atoms: C_25  and  C_26
REMARK   10  A    between atoms: C_26  and  O_28
REMARK                            x       y       z     vdW  Elec       q    Type
REMARK                         _______ _______ _______ _____ _____    ______ ____
ROOT
ATOM      1  C   UNL     1       2.466   5.905  18.860  0.00  0.00    +0.000 A 
ATOM      2  C   UNL     1       2.645   7.170  18.277  0.00  0.00    +0.000 A 
ATOM      3  C   UNL     1       2.180   8.327  18.911  0.00  0.00    +0.000 A 
ATOM      4  C   UNL     1       1.467   8.236  20.105  0.00  0.00    +0.000 A 
ATOM      5  C   UNL     1       1.287   6.985  20.699  0.00  0.00    +0.000 A 
ATOM      6  C   UNL     1       1.809   5.816  20.102  0.00  0.00    +0.000 A 
ENDROOT
BRANCH   1   7
ATOM      7  N   UNL     1       2.936   4.753  18.123  0.00  0.00    +0.000 N 
ATOM      8  H   UNL     1       2.333   3.939  18.243  0.00  0.00    +0.000 HD
BRANCH   7   9
ATOM      9  S   UNL     1       4.535   4.269  18.514  0.00  0.00    +0.000 S 
ATOM     10  O   UNL     1       4.462   2.840  18.750  0.00  0.00    +0.000 OA
ATOM     11  O   UNL     1       5.104   5.154  19.506  0.00  0.00    +0.000 OA
BRANCH   9  16
ATOM     12  C   UNL     1       7.553   4.850  13.255  0.00  0.00    +0.000 C 
ATOM     13  C   UNL     1       6.807   4.768  14.559  0.00  0.00    +0.000 A 
ATOM     14  C   UNL     1       7.463   4.956  15.784  0.00  0.00    +0.000 A 
ATOM     15  C   UNL     1       6.773   4.822  16.996  0.00  0.00    +0.000 A 
ATOM     16  C   UNL     1       5.414   4.502  16.982  0.00  0.00    +0.000 A 
ATOM     17  C   UNL     1       4.742   4.331  15.764  0.00  0.00    +0.000 A 
ATOM     18  C   UNL     1       5.442   4.463  14.560  0.00  0.00    +0.000 A 
ENDBRANCH   9  16
ENDBRANCH   7   9
ENDBRANCH   1   7
BRANCH   6  19
ATOM     19  C   UNL     1       1.706   4.514  20.842  0.00  0.00    +0.000 C 
ATOM     20  O   UNL     1       2.443   4.172  21.750  0.00  0.00    +0.000 OA
BRANCH  19  21
ATOM     21  O   UNL     1       0.664   3.739  20.458  0.00  0.00    +0.000 OA
ATOM     22  H   UNL     1       0.026   4.133  19.838  0.00  0.00    +0.000 HD
ENDBRANCH  19  21
ENDBRANCH   6  19
BRANCH   4  23
ATOM     23  O   UNL     1       1.069   9.426  20.678  0.00  0.00    +0.000 OA
BRANCH  23  24
ATOM     24  C   UNL     1       0.529  10.425  19.896  0.00  0.00    +0.000 A 
ATOM     25  C   UNL     1       1.112  11.683  19.733  0.00  0.00    +0.000 A 
ATOM     26  C   UNL     1       0.494  12.646  18.932  0.00  0.00    +0.000 A 
ATOM     27  C   UNL     1      -0.734  12.375  18.327  0.00  0.00    +0.000 A 
ATOM     28  C   UNL     1      -1.356  11.137  18.535  0.00  0.00    +0.000 A 
ATOM     29  C   UNL     1      -0.715  10.159  19.312  0.00  0.00    +0.000 A 
BRANCH  28  30
ATOM     30  C   UNL     1      -2.663  10.798  17.910  0.00  0.00    +0.000 C 
ATOM     31  O   UNL     1      -3.408  11.648  17.450  0.00  0.00    +0.000 OA
BRANCH  30  32
ATOM     32  O   UNL     1      -2.934   9.477  17.868  0.00  0.00    +0.000 OA
ATOM     33  H   UNL     1      -3.536   9.191  17.156  0.00  0.00    +0.000 HD
ENDBRANCH  30  32
ENDBRANCH  28  30
ENDBRANCH  23  24
ENDBRANCH   4  23
TORSDOF 9
ENDMDL
