MODEL 1
REMARK VINA RESULT:      -9.1      0.000      0.000
REMARK  Name = 
REMARK  6 active torsions:
REMARK  status: ('A' for Active; 'I' for Inactive)
REMARK    1  A    between atoms: C_2  and  C_24
REMARK    2  A    between atoms: N_3  and  C_4
REMARK    3  A    between atoms: C_7  and  C_8
REMARK    4  A    between atoms: C_8  and  C_9
REMARK    5  A    between atoms: C_9  and  N_10
REMARK    6  A    between atoms: C_29  and  C_30
REMARK                            x       y       z     vdW  Elec       q    Type
REMARK                         _______ _______ _______ _____ _____    ______ ____
ROOT
ATOM      1  C   UNL     1       1.305   9.710  19.479  0.00  0.00    +0.000 A 
ATOM      2  C   UNL     1       0.860   9.117  20.669  0.00  0.00    +0.000 A 
ATOM      3  C   UNL     1       1.098   7.728  20.983  0.00  0.00    +0.000 A 
ATOM      4  C   UNL     1       1.789   6.861  20.119  0.00  0.00    +0.000 A 
ATOM      5  C   UNL     1       2.228   7.472  18.918  0.00  0.00    +0.000 A 
ATOM      6  C   UNL     1       1.985   8.848  18.604  0.00  0.00    +0.000 A 
ENDROOT
BRANCH   1   9
ATOM      7  O   UNL     1       1.696  12.202  21.095  0.00  0.00    +0.000 OA
ATOM      8  C   UNL     1       1.298  12.230  19.930  0.00  0.00    +0.000 C 
ATOM      9  N   UNL     1       1.120  11.104  19.105  0.00  0.00    +0.000 N 
ATOM     10  H   UNL     1       0.968  11.267  18.113  0.00  0.00    +0.000 HD
BRANCH   8  11
ATOM     11  C   UNL     1       1.040  13.625  19.368  0.00  0.00    +0.000 A 
ATOM     12  C   UNL     1      -0.142  14.336  19.570  0.00  0.00    +0.000 A 
ATOM     13  C   UNL     1      -0.251  15.676  19.146  0.00  0.00    +0.000 A 
ATOM     14  C   UNL     1       0.807  16.336  18.502  0.00  0.00    +0.000 A 
ATOM     15 CL   UNL     1       0.536  17.985  18.061  0.00  0.00    +0.000 Cl
ATOM     16  C   UNL     1       2.006  15.660  18.269  0.00  0.00    +0.000 A 
ATOM     17  C   UNL     1       2.102  14.307  18.716  0.00  0.00    +0.000 A 
BRANCH  16  18
ATOM     18  C   UNL     1       3.208  16.281  17.587  0.00  0.00    +0.000 C 
ATOM     19  F   UNL     1       2.971  16.963  16.433  0.00  0.00    +0.000 F 
ATOM     20  F   UNL     1       3.853  17.170  18.396  0.00  0.00    +0.000 F 
ATOM     21  F   UNL     1       4.142  15.343  17.258  0.00  0.00    +0.000 F 
ENDBRANCH  16  18
ENDBRANCH   8  11
ENDBRANCH   1   9
BRANCH   4  22
ATOM     22  C   UNL     1       2.235   5.386  20.451  0.00  0.00    +0.000 C 
BRANCH  22  23
ATOM     23  C   UNL     1       2.218   4.201  19.394  0.00  0.00    +0.000 C 
BRANCH  23  24
ATOM     24  N   UNL     1       2.874   4.424  18.021  0.00  0.00    +0.000 N 
ATOM     25  C   UNL     1       4.233   4.214  17.789  0.00  0.00    +0.000 A 
ATOM     26  N   UNL     1       4.930   3.843  18.839  0.00  0.00    +0.000 NA
ATOM     27  N   UNL     1       6.298   4.067  18.783  0.00  0.00    +0.000 N 
ATOM     28  C   UNL     1       6.633   5.230  18.100  0.00  0.00    +0.000 A 
ATOM     29  O   UNL     1       7.108   6.256  18.554  0.00  0.00    +0.000 OA
ATOM     30  C   UNL     1       6.284   5.095  16.695  0.00  0.00    +0.000 A 
ATOM     31  C   UNL     1       7.291   5.296  15.735  0.00  0.00    +0.000 A 
ATOM     32  C   UNL     1       7.101   4.790  14.462  0.00  0.00    +0.000 A 
ATOM     33  C   UNL     1       5.898   4.127  14.178  0.00  0.00    +0.000 A 
ATOM     34  C   UNL     1       4.859   3.986  15.159  0.00  0.00    +0.000 A 
ATOM     35  C   UNL     1       5.037   4.491  16.461  0.00  0.00    +0.000 A 
ATOM     36  H   UNL     1       2.411   5.116  17.440  0.00  0.00    +0.000 HD
ATOM     37  H   UNL     1       6.701   3.249  18.326  0.00  0.00    +0.000 HD
ENDBRANCH  23  24
ENDBRANCH  22  23
ENDBRANCH   4  22
TORSDOF 6
ENDMDL
MODEL 2
REMARK VINA RESULT:      -8.9      1.132      1.660
REMARK  Name = 
REMARK  6 active torsions:
REMARK  status: ('A' for Active; 'I' for Inactive)
REMARK    1  A    between atoms: C_2  and  C_24
REMARK    2  A    between atoms: N_3  and  C_4
REMARK    3  A    between atoms: C_7  and  C_8
REMARK    4  A    between atoms: C_8  and  C_9
REMARK    5  A    between atoms: C_9  and  N_10
REMARK    6  A    between atoms: C_29  and  C_30
REMARK                            x       y       z     vdW  Elec       q    Type
REMARK                         _______ _______ _______ _____ _____    ______ ____
ROOT
ATOM      1  C   UNL     1       1.897   8.603  19.163  0.00  0.00    +0.000 A 
ATOM      2  C   UNL     1       2.274   7.700  18.159  0.00  0.00    +0.000 A 
ATOM      3  C   UNL     1       2.336   6.274  18.379  0.00  0.00    +0.000 A 
ATOM      4  C   UNL     1       2.029   5.682  19.615  0.00  0.00    +0.000 A 
ATOM      5  C   UNL     1       1.656   6.607  20.622  0.00  0.00    +0.000 A 
ATOM      6  C   UNL     1       1.602   8.022  20.405  0.00  0.00    +0.000 A 
ENDROOT
BRANCH   1   9
ATOM      7  O   UNL     1      -0.518  10.373  19.230  0.00  0.00    +0.000 OA
ATOM      8  C   UNL     1       0.613  10.814  19.026  0.00  0.00    +0.000 C 
ATOM      9  N   UNL     1       1.793  10.046  19.010  0.00  0.00    +0.000 N 
ATOM     10  H   UNL     1       2.679  10.545  19.017  0.00  0.00    +0.000 HD
BRANCH   8  11
ATOM     11  C   UNL     1       0.694  12.325  18.831  0.00  0.00    +0.000 A 
ATOM     12  C   UNL     1      -0.366  13.197  19.078  0.00  0.00    +0.000 A 
ATOM     13  C   UNL     1      -0.171  14.592  19.019  0.00  0.00    +0.000 A 
ATOM     14  C   UNL     1       1.077  15.152  18.703  0.00  0.00    +0.000 A 
ATOM     15 CL   UNL     1       1.169  16.878  18.692  0.00  0.00    +0.000 Cl
ATOM     16  C   UNL     1       2.164  14.317  18.439  0.00  0.00    +0.000 A 
ATOM     17  C   UNL     1       1.951  12.907  18.515  0.00  0.00    +0.000 A 
BRANCH  16  18
ATOM     18  C   UNL     1       3.551  14.820  18.093  0.00  0.00    +0.000 C 
ATOM     19  F   UNL     1       4.514  13.877  17.907  0.00  0.00    +0.000 F 
ATOM     20  F   UNL     1       3.555  15.560  16.947  0.00  0.00    +0.000 F 
ATOM     21  F   UNL     1       4.044  15.644  19.061  0.00  0.00    +0.000 F 
ENDBRANCH  16  18
ENDBRANCH   8  11
ENDBRANCH   1   9
BRANCH   4  22
ATOM     22  C   UNL     1       1.912   4.135  19.896  0.00  0.00    +0.000 C 
BRANCH  22  23
ATOM     23  C   UNL     1       2.169   3.016  18.799  0.00  0.00    +0.000 C 
BRANCH  23  24
ATOM     24  N   UNL     1       2.862   3.414  17.485  0.00  0.00    +0.000 N 
ATOM     25  C   UNL     1       4.243   3.573  17.377  0.00  0.00    +0.000 A 
ATOM     26  N   UNL     1       4.917   3.395  18.491  0.00  0.00    +0.000 NA
ATOM     27  N   UNL     1       6.176   3.974  18.550  0.00  0.00    +0.000 N 
ATOM     28  C   UNL     1       6.250   5.188  17.878  0.00  0.00    +0.000 A 
ATOM     29  O   UNL     1       6.394   6.301  18.353  0.00  0.00    +0.000 OA
ATOM     30  C   UNL     1       6.076   4.974  16.450  0.00  0.00    +0.000 A 
ATOM     31  C   UNL     1       7.075   5.441  15.580  0.00  0.00    +0.000 A 
ATOM     32  C   UNL     1       7.140   4.910  14.304  0.00  0.00    +0.000 A 
ATOM     33  C   UNL     1       6.187   3.952  13.928  0.00  0.00    +0.000 A 
ATOM     34  C   UNL     1       5.139   3.535  14.816  0.00  0.00    +0.000 A 
ATOM     35  C   UNL     1       5.059   4.062  16.119  0.00  0.00    +0.000 A 
ATOM     36  H   UNL     1       2.286   3.961  16.853  0.00  0.00    +0.000 HD
ATOM     37  H   UNL     1       6.821   3.295  18.145  0.00  0.00    +0.000 HD
ENDBRANCH  23  24
ENDBRANCH  22  23
ENDBRANCH   4  22
TORSDOF 6
ENDMDL
MODEL 3
REMARK VINA RESULT:      -8.9      6.178     11.869
REMARK  Name = 
REMARK  6 active torsions:
REMARK  status: ('A' for Active; 'I' for Inactive)
REMARK    1  A    between atoms: C_2  and  C_24
REMARK    2  A    between atoms: N_3  and  C_4
REMARK    3  A    between atoms: C_7  and  C_8
REMARK    4  A    between atoms: C_8  and  C_9
REMARK    5  A    between atoms: C_9  and  N_10
REMARK    6  A    between atoms: C_29  and  C_30
REMARK                            x       y       z     vdW  Elec       q    Type
REMARK                         _______ _______ _______ _____ _____    ______ ____
ROOT
ATOM      1  C   UNL     1       1.589   9.303  18.857  0.00  0.00    +0.000 A 
ATOM      2  C   UNL     1       2.058  10.325  18.020  0.00  0.00    +0.000 A 
ATOM      3  C   UNL     1       1.765  11.720  18.256  0.00  0.00    +0.000 A 
ATOM      4  C   UNL     1       0.983  12.160  19.337  0.00  0.00    +0.000 A 
ATOM      5  C   UNL     1       0.510  11.116  20.171  0.00  0.00    +0.000 A 
ATOM      6  C   UNL     1       0.795   9.733  19.932  0.00  0.00    +0.000 A 
ENDROOT
BRANCH   1   9
ATOM      7  O   UNL     1       3.892   7.925  17.528  0.00  0.00    +0.000 OA
ATOM      8  C   UNL     1       2.956   7.303  18.030  0.00  0.00    +0.000 C 
ATOM      9  N   UNL     1       1.859   7.883  18.695  0.00  0.00    +0.000 N 
ATOM     10  H   UNL     1       1.250   7.265  19.226  0.00  0.00    +0.000 HD
BRANCH   8  11
ATOM     11  C   UNL     1       3.067   5.783  17.944  0.00  0.00    +0.000 A 
ATOM     12  C   UNL     1       4.124   5.117  17.325  0.00  0.00    +0.000 A 
ATOM     13  C   UNL     1       4.234   3.714  17.414  0.00  0.00    +0.000 A 
ATOM     14  C   UNL     1       3.291   2.941  18.111  0.00  0.00    +0.000 A 
ATOM     15 CL   UNL     1       3.570   1.236  18.154  0.00  0.00    +0.000 Cl
ATOM     16  C   UNL     1       2.211   3.566  18.738  0.00  0.00    +0.000 A 
ATOM     17  C   UNL     1       2.123   4.987  18.646  0.00  0.00    +0.000 A 
BRANCH  16  18
ATOM     18  C   UNL     1       1.143   2.824  19.516  0.00  0.00    +0.000 C 
ATOM     19  F   UNL     1       1.575   1.930  20.446  0.00  0.00    +0.000 F 
ATOM     20  F   UNL     1       0.324   3.675  20.198  0.00  0.00    +0.000 F 
ATOM     21  F   UNL     1       0.323   2.111  18.692  0.00  0.00    +0.000 F 
ENDBRANCH  16  18
ENDBRANCH   8  11
ENDBRANCH   1   9
BRANCH   4  22
ATOM     22  C   UNL     1       0.752  13.661  19.761  0.00  0.00    +0.000 C 
BRANCH  22  23
ATOM     23  C   UNL     1      -0.679  14.343  19.844  0.00  0.00    +0.000 C 
BRANCH  23  24
ATOM     24  N   UNL     1      -1.494  14.199  21.140  0.00  0.00    +0.000 N 
ATOM     25  C   UNL     1      -2.640  13.410  21.229  0.00  0.00    +0.000 A 
ATOM     26  N   UNL     1      -3.003  12.820  20.113  0.00  0.00    +0.000 NA
ATOM     27  N   UNL     1      -4.330  12.426  20.026  0.00  0.00    +0.000 N 
ATOM     28  C   UNL     1      -5.202  13.297  20.668  0.00  0.00    +0.000 A 
ATOM     29  O   UNL     1      -6.032  14.034  20.165  0.00  0.00    +0.000 OA
ATOM     30  C   UNL     1      -4.964  13.265  22.102  0.00  0.00    +0.000 A 
ATOM     31  C   UNL     1      -6.044  12.968  22.951  0.00  0.00    +0.000 A 
ATOM     32  C   UNL     1      -5.774  12.539  24.237  0.00  0.00    +0.000 A 
ATOM     33  C   UNL     1      -4.435  12.451  24.647  0.00  0.00    +0.000 A 
ATOM     34  C   UNL     1      -3.351  12.818  23.780  0.00  0.00    +0.000 A 
ATOM     35  C   UNL     1      -3.607  13.253  22.466  0.00  0.00    +0.000 A 
ATOM     36  H   UNL     1      -1.436  14.997  21.766  0.00  0.00    +0.000 HD
ATOM     37  H   UNL     1      -4.378  11.494  20.440  0.00  0.00    +0.000 HD
ENDBRANCH  23  24
ENDBRANCH  22  23
ENDBRANCH   4  22
TORSDOF 6
ENDMDL
MODEL 4
REMARK VINA RESULT:      -8.9      5.016     10.041
REMARK  Name = 
REMARK  6 active torsions:
REMARK  status: ('A' for Active; 'I' for Inactive)
REMARK    1  A    between atoms: C_2  and  C_24
REMARK    2  A    between atoms: N_3  and  C_4
REMARK    3  A    between atoms: C_7  and  C_8
REMARK    4  A    between atoms: C_8  and  C_9
REMARK    5  A    between atoms: C_9  and  N_10
REMARK    6  A    between atoms: C_29  and  C_30
REMARK                            x       y       z     vdW  Elec       q    Type
REMARK                         _______ _______ _______ _____ _____    ______ ____
ROOT
ATOM      1  C   UNL     1       0.266   8.977  21.657  0.00  0.00    +0.000 A 
ATOM      2  C   UNL     1      -0.098   9.396  22.944  0.00  0.00    +0.000 A 
ATOM      3  C   UNL     1      -0.795  10.637  23.191  0.00  0.00    +0.000 A 
ATOM      4  C   UNL     1      -1.159  11.522  22.162  0.00  0.00    +0.000 A 
ATOM      5  C   UNL     1      -0.779  11.089  20.867  0.00  0.00    +0.000 A 
ATOM      6  C   UNL     1      -0.081   9.862  20.624  0.00  0.00    +0.000 A 
ENDROOT
BRANCH   1   9
ATOM      7  O   UNL     1       1.975   8.289  19.296  0.00  0.00    +0.000 OA
ATOM      8  C   UNL     1       1.720   7.473  20.181  0.00  0.00    +0.000 C 
ATOM      9  N   UNL     1       0.950   7.735  21.331  0.00  0.00    +0.000 N 
ATOM     10  H   UNL     1       0.964   7.043  22.075  0.00  0.00    +0.000 HD
BRANCH   8  11
ATOM     11  C   UNL     1       2.353   6.097  19.997  0.00  0.00    +0.000 A 
ATOM     12  C   UNL     1       2.005   4.976  20.751  0.00  0.00    +0.000 A 
ATOM     13  C   UNL     1       2.525   3.707  20.424  0.00  0.00    +0.000 A 
ATOM     14  C   UNL     1       3.409   3.524  19.348  0.00  0.00    +0.000 A 
ATOM     15 CL   UNL     1       3.944   1.907  19.054  0.00  0.00    +0.000 Cl
ATOM     16  C   UNL     1       3.792   4.620  18.573  0.00  0.00    +0.000 A 
ATOM     17  C   UNL     1       3.247   5.895  18.912  0.00  0.00    +0.000 A 
BRANCH  16  18
ATOM     18  C   UNL     1       4.736   4.529  17.391  0.00  0.00    +0.000 C 
ATOM     19  F   UNL     1       6.009   4.132  17.655  0.00  0.00    +0.000 F 
ATOM     20  F   UNL     1       4.284   3.660  16.441  0.00  0.00    +0.000 F 
ATOM     21  F   UNL     1       4.864   5.729  16.755  0.00  0.00    +0.000 F 
ENDBRANCH  16  18
ENDBRANCH   8  11
ENDBRANCH   1   9
BRANCH   4  22
ATOM     22  C   UNL     1      -2.058  12.806  22.321  0.00  0.00    +0.000 C 
BRANCH  22  23
ATOM     23  C   UNL     1      -2.244  13.900  21.185  0.00  0.00    +0.000 C 
BRANCH  23  24
ATOM     24  N   UNL     1      -1.028  14.742  20.763  0.00  0.00    +0.000 N 
ATOM     25  C   UNL     1      -0.325  14.515  19.581  0.00  0.00    +0.000 A 
ATOM     26  N   UNL     1      -0.751  13.503  18.860  0.00  0.00    +0.000 NA
ATOM     27  N   UNL     1       0.154  12.961  17.959  0.00  0.00    +0.000 N 
ATOM     28  C   UNL     1       1.464  12.984  18.422  0.00  0.00    +0.000 A 
ATOM     29  O   UNL     1       2.163  12.039  18.743  0.00  0.00    +0.000 OA
ATOM     30  C   UNL     1       1.925  14.359  18.533  0.00  0.00    +0.000 A 
ATOM     31  C   UNL     1       3.096  14.728  17.849  0.00  0.00    +0.000 A 
ATOM     32  C   UNL     1       3.324  16.070  17.606  0.00  0.00    +0.000 A 
ATOM     33  C   UNL     1       2.391  17.005  18.081  0.00  0.00    +0.000 A 
ATOM     34  C   UNL     1       1.232  16.607  18.830  0.00  0.00    +0.000 A 
ATOM     35  C   UNL     1       0.982  15.245  19.083  0.00  0.00    +0.000 A 
ATOM     36  H   UNL     1      -0.509  15.149  21.535  0.00  0.00    +0.000 HD
ATOM     37  H   UNL     1       0.062  13.507  17.102  0.00  0.00    +0.000 HD
ENDBRANCH  23  24
ENDBRANCH  22  23
ENDBRANCH   4  22
TORSDOF 6
ENDMDL
MODEL 5
REMARK VINA RESULT:      -8.9      3.834      4.522
REMARK  Name = 
REMARK  6 active torsions:
REMARK  status: ('A' for Active; 'I' for Inactive)
REMARK    1  A    between atoms: C_2  and  C_24
REMARK    2  A    between atoms: N_3  and  C_4
REMARK    3  A    between atoms: C_7  and  C_8
REMARK    4  A    between atoms: C_8  and  C_9
REMARK    5  A    between atoms: C_9  and  N_10
REMARK    6  A    between atoms: C_29  and  C_30
REMARK                            x       y       z     vdW  Elec       q    Type
REMARK                         _______ _______ _______ _____ _____    ______ ____
ROOT
ATOM      1  C   UNL     1       1.164   8.799  19.695  0.00  0.00    +0.000 A 
ATOM      2  C   UNL     1       1.940   8.587  18.547  0.00  0.00    +0.000 A 
ATOM      3  C   UNL     1       2.784   7.426  18.382  0.00  0.00    +0.000 A 
ATOM      4  C   UNL     1       2.898   6.424  19.359  0.00  0.00    +0.000 A 
ATOM      5  C   UNL     1       2.114   6.655  20.518  0.00  0.00    +0.000 A 
ATOM      6  C   UNL     1       1.283   7.810  20.684  0.00  0.00    +0.000 A 
ENDROOT
BRANCH   1   9
ATOM      7  O   UNL     1       1.220  10.878  21.851  0.00  0.00    +0.000 OA
ATOM      8  C   UNL     1       0.349  10.858  20.981  0.00  0.00    +0.000 C 
ATOM      9  N   UNL     1       0.278   9.930  19.924  0.00  0.00    +0.000 N 
ATOM     10  H   UNL     1      -0.373  10.127  19.168  0.00  0.00    +0.000 HD
BRANCH   8  11
ATOM     11  C   UNL     1      -0.683  11.978  21.070  0.00  0.00    +0.000 A 
ATOM     12  C   UNL     1      -0.840  12.967  20.100  0.00  0.00    +0.000 A 
ATOM     13  C   UNL     1      -1.911  13.880  20.178  0.00  0.00    +0.000 A 
ATOM     14  C   UNL     1      -2.845  13.838  21.226  0.00  0.00    +0.000 A 
ATOM     15 CL   UNL     1      -4.118  15.005  21.175  0.00  0.00    +0.000 Cl
ATOM     16  C   UNL     1      -2.722  12.869  22.224  0.00  0.00    +0.000 A 
ATOM     17  C   UNL     1      -1.637  11.947  22.122  0.00  0.00    +0.000 A 
BRANCH  16  18
ATOM     18  C   UNL     1      -3.676  12.736  23.393  0.00  0.00    +0.000 C 
ATOM     19  F   UNL     1      -5.001  12.656  23.094  0.00  0.00    +0.000 F 
ATOM     20  F   UNL     1      -3.415  11.626  24.143  0.00  0.00    +0.000 F 
ATOM     21  F   UNL     1      -3.570  13.789  24.253  0.00  0.00    +0.000 F 
ENDBRANCH  16  18
ENDBRANCH   8  11
ENDBRANCH   1   9
BRANCH   4  22
ATOM     22  C   UNL     1       3.660   5.054  19.196  0.00  0.00    +0.000 C 
BRANCH  22  23
ATOM     23  C   UNL     1       3.227   3.920  18.173  0.00  0.00    +0.000 C 
BRANCH  23  24
ATOM     24  N   UNL     1       3.663   4.042  16.704  0.00  0.00    +0.000 N 
ATOM     25  C   UNL     1       4.999   4.007  16.306  0.00  0.00    +0.000 A 
ATOM     26  N   UNL     1       5.872   3.897  17.281  0.00  0.00    +0.000 NA
ATOM     27  N   UNL     1       7.165   4.312  17.002  0.00  0.00    +0.000 N 
ATOM     28  C   UNL     1       7.215   5.404  16.143  0.00  0.00    +0.000 A 
ATOM     29  O   UNL     1       7.564   6.543  16.398  0.00  0.00    +0.000 OA
ATOM     30  C   UNL     1       6.723   5.021  14.830  0.00  0.00    +0.000 A 
ATOM     31  C   UNL     1       7.557   5.233  13.718  0.00  0.00    +0.000 A 
ATOM     32  C   UNL     1       7.299   4.529  12.556  0.00  0.00    +0.000 A 
ATOM     33  C   UNL     1       6.199   3.660  12.529  0.00  0.00    +0.000 A 
ATOM     34  C   UNL     1       5.326   3.506  13.659  0.00  0.00    +0.000 A 
ATOM     35  C   UNL     1       5.575   4.211  14.852  0.00  0.00    +0.000 A 
ATOM     36  H   UNL     1       3.023   4.568  16.116  0.00  0.00    +0.000 HD
ATOM     37  H   UNL     1       7.641   3.507  16.593  0.00  0.00    +0.000 HD
ENDBRANCH  23  24
ENDBRANCH  22  23
ENDBRANCH   4  22
TORSDOF 6
ENDMDL
MODEL 6
REMARK VINA RESULT:      -8.9      5.425     10.336
REMARK  Name = 
REMARK  6 active torsions:
REMARK  status: ('A' for Active; 'I' for Inactive)
REMARK    1  A    between atoms: C_2  and  C_24
REMARK    2  A    between atoms: N_3  and  C_4
REMARK    3  A    between atoms: C_7  and  C_8
REMARK    4  A    between atoms: C_8  and  C_9
REMARK    5  A    between atoms: C_9  and  N_10
REMARK    6  A    between atoms: C_29  and  C_30
REMARK                            x       y       z     vdW  Elec       q    Type
REMARK                         _______ _______ _______ _____ _____    ______ ____
ROOT
ATOM      1  C   UNL     1       0.821   9.014  20.890  0.00  0.00    +0.000 A 
ATOM      2  C   UNL     1       0.696   8.966  22.285  0.00  0.00    +0.000 A 
ATOM      3  C   UNL     1      -0.093   9.921  23.029  0.00  0.00    +0.000 A 
ATOM      4  C   UNL     1      -0.792  10.972  22.413  0.00  0.00    +0.000 A 
ATOM      5  C   UNL     1      -0.652  11.012  21.004  0.00  0.00    +0.000 A 
ATOM      6  C   UNL     1       0.137  10.070  20.268  0.00  0.00    +0.000 A 
ENDROOT
BRANCH   1   9
ATOM      7  O   UNL     1       1.962   9.350  18.141  0.00  0.00    +0.000 OA
ATOM      8  C   UNL     1       2.065   8.297  18.770  0.00  0.00    +0.000 C 
ATOM      9  N   UNL     1       1.580   8.078  20.074  0.00  0.00    +0.000 N 
ATOM     10  H   UNL     1       1.886   7.237  20.555  0.00  0.00    +0.000 HD
BRANCH   8  11
ATOM     11  C   UNL     1       2.832   7.188  18.056  0.00  0.00    +0.000 A 
ATOM     12  C   UNL     1       4.009   7.397  17.339  0.00  0.00    +0.000 A 
ATOM     13  C   UNL     1       4.740   6.303  16.832  0.00  0.00    +0.000 A 
ATOM     14  C   UNL     1       4.313   4.978  17.017  0.00  0.00    +0.000 A 
ATOM     15 CL   UNL     1       5.324   3.740  16.360  0.00  0.00    +0.000 Cl
ATOM     16  C   UNL     1       3.134   4.723  17.721  0.00  0.00    +0.000 A 
ATOM     17  C   UNL     1       2.413   5.842  18.236  0.00  0.00    +0.000 A 
BRANCH  16  18
ATOM     18  C   UNL     1       2.588   3.333  17.978  0.00  0.00    +0.000 C 
ATOM     19  F   UNL     1       2.444   2.523  16.894  0.00  0.00    +0.000 F 
ATOM     20  F   UNL     1       3.372   2.628  18.844  0.00  0.00    +0.000 F 
ATOM     21  F   UNL     1       1.354   3.375  18.555  0.00  0.00    +0.000 F 
ENDBRANCH  16  18
ENDBRANCH   8  11
ENDBRANCH   1   9
BRANCH   4  22
ATOM     22  C   UNL     1      -1.802  11.953  23.123  0.00  0.00    +0.000 C 
BRANCH  22  23
ATOM     23  C   UNL     1      -1.869  13.512  22.834  0.00  0.00    +0.000 C 
BRANCH  23  24
ATOM     24  N   UNL     1      -0.575  14.251  22.456  0.00  0.00    +0.000 N 
ATOM     25  C   UNL     1      -0.308  14.695  21.161  0.00  0.00    +0.000 A 
ATOM     26  N   UNL     1      -1.228  14.407  20.268  0.00  0.00    +0.000 NA
ATOM     27  N   UNL     1      -0.823  14.405  18.942  0.00  0.00    +0.000 N 
ATOM     28  C   UNL     1       0.479  13.953  18.770  0.00  0.00    +0.000 A 
ATOM     29  O   UNL     1       0.850  12.920  18.240  0.00  0.00    +0.000 OA
ATOM     30  C   UNL     1       1.412  14.890  19.375  0.00  0.00    +0.000 A 
ATOM     31  C   UNL     1       2.433  15.426  18.573  0.00  0.00    +0.000 A 
ATOM     32  C   UNL     1       3.059  16.587  18.990  0.00  0.00    +0.000 A 
ATOM     33  C   UNL     1       2.666  17.159  20.209  0.00  0.00    +0.000 A 
ATOM     34  C   UNL     1       1.660  16.559  21.040  0.00  0.00    +0.000 A 
ATOM     35  C   UNL     1       1.011  15.379  20.630  0.00  0.00    +0.000 A 
ATOM     36  H   UNL     1       0.226  14.023  23.036  0.00  0.00    +0.000 HD
ATOM     37  H   UNL     1      -0.920  15.366  18.614  0.00  0.00    +0.000 HD
ENDBRANCH  23  24
ENDBRANCH  22  23
ENDBRANCH   4  22
TORSDOF 6
ENDMDL
MODEL 7
REMARK VINA RESULT:      -8.8      1.089      1.292
REMARK  Name = 
REMARK  6 active torsions:
REMARK  status: ('A' for Active; 'I' for Inactive)
REMARK    1  A    between atoms: C_2  and  C_24
REMARK    2  A    between atoms: N_3  and  C_4
REMARK    3  A    between atoms: C_7  and  C_8
REMARK    4  A    between atoms: C_8  and  C_9
REMARK    5  A    between atoms: C_9  and  N_10
REMARK    6  A    between atoms: C_29  and  C_30
REMARK                            x       y       z     vdW  Elec       q    Type
REMARK                         _______ _______ _______ _____ _____    ______ ____
ROOT
ATOM      1  C   UNL     1       1.485   9.106  19.921  0.00  0.00    +0.000 A 
ATOM      2  C   UNL     1       1.000   8.439  21.055  0.00  0.00    +0.000 A 
ATOM      3  C   UNL     1       1.126   7.011  21.230  0.00  0.00    +0.000 A 
ATOM      4  C   UNL     1       1.737   6.179  20.277  0.00  0.00    +0.000 A 
ATOM      5  C   UNL     1       2.216   6.866  19.134  0.00  0.00    +0.000 A 
ATOM      6  C   UNL     1       2.085   8.281  18.957  0.00  0.00    +0.000 A 
ENDROOT
BRANCH   1   9
ATOM      7  O   UNL     1      -0.507  10.695  18.347  0.00  0.00    +0.000 OA
ATOM      8  C   UNL     1       0.456  11.219  18.906  0.00  0.00    +0.000 C 
ATOM      9  N   UNL     1       1.412  10.540  19.685  0.00  0.00    +0.000 N 
ATOM     10  H   UNL     1       2.049  11.102  20.244  0.00  0.00    +0.000 HD
BRANCH   8  11
ATOM     11  C   UNL     1       0.547  12.735  18.755  0.00  0.00    +0.000 A 
ATOM     12  C   UNL     1      -0.496  13.609  19.061  0.00  0.00    +0.000 A 
ATOM     13  C   UNL     1      -0.289  15.003  19.038  0.00  0.00    +0.000 A 
ATOM     14  C   UNL     1       0.955  15.561  18.701  0.00  0.00    +0.000 A 
ATOM     15 CL   UNL     1       1.064  17.285  18.740  0.00  0.00    +0.000 Cl
ATOM     16  C   UNL     1       2.025  14.724  18.379  0.00  0.00    +0.000 A 
ATOM     17  C   UNL     1       1.799  13.315  18.418  0.00  0.00    +0.000 A 
BRANCH  16  18
ATOM     18  C   UNL     1       3.405  15.224  18.006  0.00  0.00    +0.000 C 
ATOM     19  F   UNL     1       4.377  14.284  17.860  0.00  0.00    +0.000 F 
ATOM     20  F   UNL     1       3.399  15.913  16.829  0.00  0.00    +0.000 F 
ATOM     21  F   UNL     1       3.893  16.096  18.935  0.00  0.00    +0.000 F 
ENDBRANCH  16  18
ENDBRANCH   8  11
ENDBRANCH   1   9
BRANCH   4  22
ATOM     22  C   UNL     1       2.062   4.647  20.459  0.00  0.00    +0.000 C 
BRANCH  22  23
ATOM     23  C   UNL     1       3.365   3.947  19.881  0.00  0.00    +0.000 C 
BRANCH  23  24
ATOM     24  N   UNL     1       3.701   4.123  18.391  0.00  0.00    +0.000 N 
ATOM     25  C   UNL     1       5.008   4.114  17.904  0.00  0.00    +0.000 A 
ATOM     26  N   UNL     1       5.945   3.980  18.815  0.00  0.00    +0.000 NA
ATOM     27  N   UNL     1       7.214   4.417  18.466  0.00  0.00    +0.000 N 
ATOM     28  C   UNL     1       7.198   5.538  17.644  0.00  0.00    +0.000 A 
ATOM     29  O   UNL     1       7.555   6.671  17.914  0.00  0.00    +0.000 OA
ATOM     30  C   UNL     1       6.623   5.195  16.353  0.00  0.00    +0.000 A 
ATOM     31  C   UNL     1       7.379   5.453  15.197  0.00  0.00    +0.000 A 
ATOM     32  C   UNL     1       7.050   4.786  14.030  0.00  0.00    +0.000 A 
ATOM     33  C   UNL     1       5.957   3.908  14.047  0.00  0.00    +0.000 A 
ATOM     34  C   UNL     1       5.162   3.707  15.226  0.00  0.00    +0.000 A 
ATOM     35  C   UNL     1       5.485   4.373  16.423  0.00  0.00    +0.000 A 
ATOM     36  H   UNL     1       3.019   4.663  17.866  0.00  0.00    +0.000 HD
ATOM     37  H   UNL     1       7.667   3.631  17.999  0.00  0.00    +0.000 HD
ENDBRANCH  23  24
ENDBRANCH  22  23
ENDBRANCH   4  22
TORSDOF 6
ENDMDL
MODEL 8
REMARK VINA RESULT:      -8.8      1.313      1.774
REMARK  Name = 
REMARK  6 active torsions:
REMARK  status: ('A' for Active; 'I' for Inactive)
REMARK    1  A    between atoms: C_2  and  C_24
REMARK    2  A    between atoms: N_3  and  C_4
REMARK    3  A    between atoms: C_7  and  C_8
REMARK    4  A    between atoms: C_8  and  C_9
REMARK    5  A    between atoms: C_9  and  N_10
REMARK    6  A    between atoms: C_29  and  C_30
REMARK                            x       y       z     vdW  Elec       q    Type
REMARK                         _______ _______ _______ _____ _____    ______ ____
ROOT
ATOM      1  C   UNL     1       1.869   8.718  18.950  0.00  0.00    +0.000 A 
ATOM      2  C   UNL     1       1.735   8.014  20.155  0.00  0.00    +0.000 A 
ATOM      3  C   UNL     1       1.878   6.579  20.238  0.00  0.00    +0.000 A 
ATOM      4  C   UNL     1       2.159   5.777  19.119  0.00  0.00    +0.000 A 
ATOM      5  C   UNL     1       2.286   6.501  17.907  0.00  0.00    +0.000 A 
ATOM      6  C   UNL     1       2.136   7.923  17.825  0.00  0.00    +0.000 A 
ENDROOT
BRANCH   1   9
ATOM      7  O   UNL     1      -0.288  10.588  19.855  0.00  0.00    +0.000 OA
ATOM      8  C   UNL     1       0.694  10.976  19.224  0.00  0.00    +0.000 C 
ATOM      9  N   UNL     1       1.758  10.160  18.793  0.00  0.00    +0.000 N 
ATOM     10  H   UNL     1       2.595  10.622  18.447  0.00  0.00    +0.000 HD
BRANCH   8  11
ATOM     11  C   UNL     1       0.741  12.477  18.955  0.00  0.00    +0.000 A 
ATOM     12  C   UNL     1      -0.331  13.339  19.185  0.00  0.00    +0.000 A 
ATOM     13  C   UNL     1      -0.166  14.734  19.054  0.00  0.00    +0.000 A 
ATOM     14  C   UNL     1       1.063  15.302  18.683  0.00  0.00    +0.000 A 
ATOM     15 CL   UNL     1       1.120  17.026  18.588  0.00  0.00    +0.000 Cl
ATOM     16  C   UNL     1       2.161  14.476  18.434  0.00  0.00    +0.000 A 
ATOM     17  C   UNL     1       1.978  13.068  18.582  0.00  0.00    +0.000 A 
BRANCH  16  18
ATOM     18  C   UNL     1       3.529  14.988  18.032  0.00  0.00    +0.000 C 
ATOM     19  F   UNL     1       4.512  14.059  17.892  0.00  0.00    +0.000 F 
ATOM     20  F   UNL     1       3.497  15.651  16.841  0.00  0.00    +0.000 F 
ATOM     21  F   UNL     1       4.016  15.886  18.936  0.00  0.00    +0.000 F 
ENDBRANCH  16  18
ENDBRANCH   8  11
ENDBRANCH   1   9
BRANCH   4  22
ATOM     22  C   UNL     1       2.492   4.237  19.145  0.00  0.00    +0.000 C 
BRANCH  22  23
ATOM     23  C   UNL     1       3.823   3.612  18.546  0.00  0.00    +0.000 C 
BRANCH  23  24
ATOM     24  N   UNL     1       4.103   3.768  17.042  0.00  0.00    +0.000 N 
ATOM     25  C   UNL     1       5.391   3.884  16.520  0.00  0.00    +0.000 A 
ATOM     26  N   UNL     1       6.358   3.888  17.410  0.00  0.00    +0.000 NA
ATOM     27  N   UNL     1       7.562   4.448  17.010  0.00  0.00    +0.000 N 
ATOM     28  C   UNL     1       7.403   5.528  16.150  0.00  0.00    +0.000 A 
ATOM     29  O   UNL     1       7.639   6.703  16.370  0.00  0.00    +0.000 OA
ATOM     30  C   UNL     1       6.840   5.075  14.888  0.00  0.00    +0.000 A 
ATOM     31  C   UNL     1       7.536   5.370  13.704  0.00  0.00    +0.000 A 
ATOM     32  C   UNL     1       7.255   4.628  12.571  0.00  0.00    +0.000 A 
ATOM     33  C   UNL     1       6.266   3.636  12.648  0.00  0.00    +0.000 A 
ATOM     34  C   UNL     1       5.526   3.394  13.855  0.00  0.00    +0.000 A 
ATOM     35  C   UNL     1       5.802   4.137  15.018  0.00  0.00    +0.000 A 
ATOM     36  H   UNL     1       3.354   4.208  16.517  0.00  0.00    +0.000 HD
ATOM     37  H   UNL     1       8.088   3.699  16.559  0.00  0.00    +0.000 HD
ENDBRANCH  23  24
ENDBRANCH  22  23
ENDBRANCH   4  22
TORSDOF 6
ENDMDL
MODEL 9
REMARK VINA RESULT:      -8.8      5.325     11.130
REMARK  Name = 
REMARK  6 active torsions:
REMARK  status: ('A' for Active; 'I' for Inactive)
REMARK    1  A    between atoms: C_2  and  C_24
REMARK    2  A    between atoms: N_3  and  C_4
REMARK    3  A    between atoms: C_7  and  C_8
REMARK    4  A    between atoms: C_8  and  C_9
REMARK    5  A    between atoms: C_9  and  N_10
REMARK    6  A    between atoms: C_29  and  C_30
REMARK                            x       y       z     vdW  Elec       q    Type
REMARK                         _______ _______ _______ _____ _____    ______ ____
ROOT
ATOM      1  C   UNL     1       1.027  10.323  18.932  0.00  0.00    +0.000 A 
ATOM      2  C   UNL     1      -0.255  10.776  19.274  0.00  0.00    +0.000 A 
ATOM      3  C   UNL     1      -0.628  12.171  19.217  0.00  0.00    +0.000 A 
ATOM      4  C   UNL     1       0.264  13.181  18.821  0.00  0.00    +0.000 A 
ATOM      5  C   UNL     1       1.558  12.709  18.486  0.00  0.00    +0.000 A 
ATOM      6  C   UNL     1       1.930  11.327  18.549  0.00  0.00    +0.000 A 
ENDROOT
BRANCH   1   9
ATOM      7  O   UNL     1       1.512   8.485  21.246  0.00  0.00    +0.000 OA
ATOM      8  C   UNL     1       1.703   8.137  20.081  0.00  0.00    +0.000 C 
ATOM      9  N   UNL     1       1.469   8.937  18.946  0.00  0.00    +0.000 N 
ATOM     10  H   UNL     1       1.486   8.481  18.038  0.00  0.00    +0.000 HD
BRANCH   8  11
ATOM     11  C   UNL     1       2.183   6.700  19.903  0.00  0.00    +0.000 A 
ATOM     12  C   UNL     1       1.730   5.630  20.674  0.00  0.00    +0.000 A 
ATOM     13  C   UNL     1       2.107   4.309  20.354  0.00  0.00    +0.000 A 
ATOM     14  C   UNL     1       2.951   4.023  19.269  0.00  0.00    +0.000 A 
ATOM     15 CL   UNL     1       3.306   2.356  18.985  0.00  0.00    +0.000 Cl
ATOM     16  C   UNL     1       3.436   5.065  18.476  0.00  0.00    +0.000 A 
ATOM     17  C   UNL     1       3.035   6.394  18.809  0.00  0.00    +0.000 A 
BRANCH  16  18
ATOM     18  C   UNL     1       4.348   4.863  17.283  0.00  0.00    +0.000 C 
ATOM     19  F   UNL     1       5.587   4.364  17.538  0.00  0.00    +0.000 F 
ATOM     20  F   UNL     1       3.807   4.012  16.364  0.00  0.00    +0.000 F 
ATOM     21  F   UNL     1       4.568   6.030  16.613  0.00  0.00    +0.000 F 
ENDBRANCH  16  18
ENDBRANCH   8  11
ENDBRANCH   1   9
BRANCH   4  22
ATOM     22  C   UNL     1      -0.101  14.694  18.574  0.00  0.00    +0.000 C 
BRANCH  22  23
ATOM     23  C   UNL     1      -0.827  15.613  19.646  0.00  0.00    +0.000 C 
BRANCH  23  24
ATOM     24  N   UNL     1      -2.116  15.099  20.310  0.00  0.00    +0.000 N 
ATOM     25  C   UNL     1      -2.157  14.635  21.624  0.00  0.00    +0.000 A 
ATOM     26  N   UNL     1      -1.003  14.631  22.254  0.00  0.00    +0.000 NA
ATOM     27  N   UNL     1      -0.898  13.782  23.345  0.00  0.00    +0.000 N 
ATOM     28  C   UNL     1      -1.608  12.598  23.186  0.00  0.00    +0.000 A 
ATOM     29  O   UNL     1      -1.165  11.471  23.049  0.00  0.00    +0.000 OA
ATOM     30  C   UNL     1      -3.034  12.879  23.150  0.00  0.00    +0.000 A 
ATOM     31  C   UNL     1      -3.867  12.218  24.069  0.00  0.00    +0.000 A 
ATOM     32  C   UNL     1      -5.117  12.750  24.327  0.00  0.00    +0.000 A 
ATOM     33  C   UNL     1      -5.510  13.906  23.636  0.00  0.00    +0.000 A 
ATOM     34  C   UNL     1      -4.663  14.528  22.657  0.00  0.00    +0.000 A 
ATOM     35  C   UNL     1      -3.386  14.003  22.384  0.00  0.00    +0.000 A 
ATOM     36  H   UNL     1      -2.797  14.710  19.665  0.00  0.00    +0.000 HD
ATOM     37  H   UNL     1      -1.244  14.308  24.149  0.00  0.00    +0.000 HD
ENDBRANCH  23  24
ENDBRANCH  22  23
ENDBRANCH   4  22
TORSDOF 6
ENDMDL
