MODEL 1
REMARK VINA RESULT:      -7.4      0.000      0.000
REMARK  Name = 
REMARK  18 active torsions:
REMARK  status: ('A' for Active; 'I' for Inactive)
REMARK    1  A    between atoms: C_1  and  C_2
REMARK    2  A    between atoms: C_2  and  C_3
REMARK    3  A    between atoms: C_2  and  C_32
REMARK    4  A    between atoms: C_3  and  C_4
REMARK    5  A    between atoms: N_6  and  C_7
REMARK    6  A    between atoms: C_11  and  C_12
REMARK    7  A    between atoms: C_12  and  C_13
REMARK    8  A    between atoms: C_13  and  C_14
REMARK    9  A    between atoms: C_14  and  N_15
REMARK   10  A    between atoms: N_15  and  C_16
REMARK   11  A    between atoms: C_16  and  C_17
REMARK   12  A    between atoms: C_17  and  O_18
REMARK   13  A    between atoms: C_17  and  C_19
REMARK   14  A    between atoms: C_22  and  O_23
REMARK   15  A    between atoms: C_32  and  C_33
REMARK   16  A    between atoms: C_33  and  C_34
REMARK   17  A    between atoms: C_33  and  C_35
REMARK   18  A    between atoms: C_33  and  C_36
REMARK                            x       y       z     vdW  Elec       q    Type
REMARK                         _______ _______ _______ _____ _____    ______ ____
ROOT
ATOM      1  C   UNL     1       1.476   3.220  19.997  0.00  0.00    +0.000 C 
ENDROOT
BRANCH   1   2
ATOM      2  N   UNL     1       0.972   2.997  18.643  0.00  0.00    +0.000 NA
ATOM      3  H   UNL     1       0.065   3.445  18.517  0.00  0.00    +0.000 HD
BRANCH   2   4
ATOM      4  C   UNL     1       1.922   3.448  17.615  0.00  0.00    +0.000 C 
BRANCH   4   5
ATOM      5  C   UNL     1       3.365   2.923  17.895  0.00  0.00    +0.000 C 
BRANCH   5   6
ATOM      6  C   UNL     1       4.390   3.765  17.142  0.00  0.00    +0.000 A 
ATOM      7  C   UNL     1       4.429   3.613  15.735  0.00  0.00    +0.000 A 
ATOM      8  C   UNL     1       5.466   4.145  14.963  0.00  0.00    +0.000 A 
ATOM      9  C   UNL     1       6.535   4.755  15.600  0.00  0.00    +0.000 A 
ATOM     10  C   UNL     1       6.527   4.899  16.986  0.00  0.00    +0.000 A 
ATOM     11  N   UNL     1       7.701   5.316  17.640  0.00  0.00    +0.000 N 
ATOM     12  C   UNL     1       7.811   5.359  19.002  0.00  0.00    +0.000 A 
ATOM     13  O   UNL     1       8.880   5.410  19.596  0.00  0.00    +0.000 OA
ATOM     14  C   UNL     1       6.528   5.406  19.735  0.00  0.00    +0.000 A 
ATOM     15  C   UNL     1       5.399   4.992  19.146  0.00  0.00    +0.000 A 
ATOM     16  C   UNL     1       5.411   4.517  17.755  0.00  0.00    +0.000 A 
ATOM     17  H   UNL     1       8.548   5.379  17.088  0.00  0.00    +0.000 HD
BRANCH   9  18
ATOM     18  O   UNL     1       7.611   5.213  14.893  0.00  0.00    +0.000 OA
ATOM     19  H   UNL     1       8.236   4.480  14.772  0.00  0.00    +0.000 HD
ENDBRANCH   9  18
ENDBRANCH   5   6
BRANCH   5  20
ATOM     20  O   UNL     1       3.472   1.530  17.601  0.00  0.00    +0.000 OA
ATOM     21  H   UNL     1       3.033   1.051  18.322  0.00  0.00    +0.000 HD
ENDBRANCH   5  20
ENDBRANCH   4   5
ENDBRANCH   2   4
ENDBRANCH   1   2
BRANCH   1  22
ATOM     22  C   UNL     1       1.041   4.606  20.480  0.00  0.00    +0.000 C 
BRANCH  22  23
ATOM     23  C   UNL     1       2.244   5.532  20.660  0.00  0.00    +0.000 C 
BRANCH  23  28
ATOM     24  C   UNL     1       1.263   9.098  19.679  0.00  0.00    +0.000 A 
ATOM     25  C   UNL     1       1.798   9.170  18.391  0.00  0.00    +0.000 A 
ATOM     26  C   UNL     1       2.480   8.082  17.848  0.00  0.00    +0.000 A 
ATOM     27  C   UNL     1       2.624   6.907  18.574  0.00  0.00    +0.000 A 
ATOM     28  C   UNL     1       2.097   6.809  19.873  0.00  0.00    +0.000 A 
ATOM     29  C   UNL     1       1.443   7.922  20.422  0.00  0.00    +0.000 A 
BRANCH  24  32
ATOM     30  C   UNL     1      -0.653  10.681  19.852  0.00  0.00    +0.000 C 
ATOM     31  O   UNL     1      -1.322  10.283  18.902  0.00  0.00    +0.000 OA
ATOM     32  N   UNL     1       0.549  10.151  20.286  0.00  0.00    +0.000 N 
ATOM     33  H   UNL     1       0.896  10.469  21.181  0.00  0.00    +0.000 HD
BRANCH  30  34
ATOM     34  C   UNL     1      -1.128  11.862  20.689  0.00  0.00    +0.000 C 
BRANCH  34  36
ATOM     35  C   UNL     1      -0.384  13.600  22.339  0.00  0.00    +0.000 C 
ATOM     36  C   UNL     1      -0.002  12.857  21.056  0.00  0.00    +0.000 C 
BRANCH  36  37
ATOM     37  C   UNL     1       0.349  13.782  19.859  0.00  0.00    +0.000 C 
BRANCH  37  38
ATOM     38  C   UNL     1       1.826  13.858  19.354  0.00  0.00    +0.000 C 
ATOM     39  C   UNL     1       2.099  12.783  18.289  0.00  0.00    +0.000 C 
ATOM     40  C   UNL     1       2.050  15.246  18.708  0.00  0.00    +0.000 C 
ATOM     41  C   UNL     1       2.853  13.722  20.490  0.00  0.00    +0.000 C 
ENDBRANCH  37  38
ENDBRANCH  36  37
ENDBRANCH  34  36
ENDBRANCH  30  34
ENDBRANCH  24  32
ENDBRANCH  23  28
ENDBRANCH  22  23
ENDBRANCH   1  22
TORSDOF 14
ENDMDL
MODEL 2
REMARK VINA RESULT:      -7.1      3.766     11.162
REMARK  Name = 
REMARK  18 active torsions:
REMARK  status: ('A' for Active; 'I' for Inactive)
REMARK    1  A    between atoms: C_1  and  C_2
REMARK    2  A    between atoms: C_2  and  C_3
REMARK    3  A    between atoms: C_2  and  C_32
REMARK    4  A    between atoms: C_3  and  C_4
REMARK    5  A    between atoms: N_6  and  C_7
REMARK    6  A    between atoms: C_11  and  C_12
REMARK    7  A    between atoms: C_12  and  C_13
REMARK    8  A    between atoms: C_13  and  C_14
REMARK    9  A    between atoms: C_14  and  N_15
REMARK   10  A    between atoms: N_15  and  C_16
REMARK   11  A    between atoms: C_16  and  C_17
REMARK   12  A    between atoms: C_17  and  O_18
REMARK   13  A    between atoms: C_17  and  C_19
REMARK   14  A    between atoms: C_22  and  O_23
REMARK   15  A    between atoms: C_32  and  C_33
REMARK   16  A    between atoms: C_33  and  C_34
REMARK   17  A    between atoms: C_33  and  C_35
REMARK   18  A    between atoms: C_33  and  C_36
REMARK                            x       y       z     vdW  Elec       q    Type
REMARK                         _______ _______ _______ _____ _____    ______ ____
ROOT
ATOM      1  C   UNL     1      -2.693  11.285  17.448  0.00  0.00    +0.000 C 
ENDROOT
BRANCH   1   2
ATOM      2  N   UNL     1      -3.903  10.994  18.217  0.00  0.00    +0.000 NA
ATOM      3  H   UNL     1      -3.737  10.235  18.876  0.00  0.00    +0.000 HD
BRANCH   2   4
ATOM      4  C   UNL     1      -4.420  12.182  18.910  0.00  0.00    +0.000 C 
BRANCH   4   5
ATOM      5  C   UNL     1      -3.504  12.593  20.107  0.00  0.00    +0.000 C 
BRANCH   5   6
ATOM      6  C   UNL     1      -4.319  12.670  21.395  0.00  0.00    +0.000 A 
ATOM      7  C   UNL     1      -5.718  12.489  21.275  0.00  0.00    +0.000 A 
ATOM      8  C   UNL     1      -6.591  12.765  22.331  0.00  0.00    +0.000 A 
ATOM      9  C   UNL     1      -6.086  13.321  23.495  0.00  0.00    +0.000 A 
ATOM     10  C   UNL     1      -4.713  13.525  23.628  0.00  0.00    +0.000 A 
ATOM     11  N   UNL     1      -4.233  14.284  24.711  0.00  0.00    +0.000 N 
ATOM     12  C   UNL     1      -2.919  14.635  24.842  0.00  0.00    +0.000 A 
ATOM     13  O   UNL     1      -2.524  15.532  25.574  0.00  0.00    +0.000 OA
ATOM     14  C   UNL     1      -1.967  13.804  24.073  0.00  0.00    +0.000 A 
ATOM     15  C   UNL     1      -2.392  13.090  23.022  0.00  0.00    +0.000 A 
ATOM     16  C   UNL     1      -3.810  13.096  22.637  0.00  0.00    +0.000 A 
ATOM     17  H   UNL     1      -4.917  14.760  25.289  0.00  0.00    +0.000 HD
BRANCH   9  18
ATOM     18  O   UNL     1      -6.911  13.687  24.521  0.00  0.00    +0.000 OA
ATOM     19  H   UNL     1      -7.774  13.937  24.150  0.00  0.00    +0.000 HD
ENDBRANCH   9  18
ENDBRANCH   5   6
BRANCH   5  20
ATOM     20  O   UNL     1      -2.802  13.803  19.826  0.00  0.00    +0.000 OA
ATOM     21  H   UNL     1      -2.964  14.017  18.893  0.00  0.00    +0.000 HD
ENDBRANCH   5  20
ENDBRANCH   4   5
ENDBRANCH   2   4
ENDBRANCH   1   2
BRANCH   1  22
ATOM     22  C   UNL     1      -1.625  10.235  17.767  0.00  0.00    +0.000 C 
BRANCH  22  23
ATOM     23  C   UNL     1      -0.412  10.871  18.446  0.00  0.00    +0.000 C 
BRANCH  23  28
ATOM     24  C   UNL     1       1.580   8.188  20.311  0.00  0.00    +0.000 A 
ATOM     25  C   UNL     1       1.116   8.379  21.614  0.00  0.00    +0.000 A 
ATOM     26  C   UNL     1       0.178   9.373  21.892  0.00  0.00    +0.000 A 
ATOM     27  C   UNL     1      -0.319  10.176  20.874  0.00  0.00    +0.000 A 
ATOM     28  C   UNL     1       0.133  10.006  19.554  0.00  0.00    +0.000 A 
ATOM     29  C   UNL     1       1.102   9.026  19.293  0.00  0.00    +0.000 A 
BRANCH  24  32
ATOM     30  C   UNL     1       2.383   5.833  20.168  0.00  0.00    +0.000 C 
ATOM     31  O   UNL     1       1.408   5.265  20.651  0.00  0.00    +0.000 OA
ATOM     32  N   UNL     1       2.513   7.194  19.954  0.00  0.00    +0.000 N 
ATOM     33  H   UNL     1       3.297   7.499  19.392  0.00  0.00    +0.000 HD
BRANCH  30  34
ATOM     34  C   UNL     1       3.603   5.034  19.730  0.00  0.00    +0.000 C 
BRANCH  34  36
ATOM     35  C   UNL     1       2.799   4.136  17.529  0.00  0.00    +0.000 C 
ATOM     36  C   UNL     1       3.835   5.042  18.200  0.00  0.00    +0.000 C 
BRANCH  36  37
ATOM     37  C   UNL     1       5.309   4.701  17.849  0.00  0.00    +0.000 C 
BRANCH  37  38
ATOM     38  C   UNL     1       6.078   5.593  16.822  0.00  0.00    +0.000 C 
ATOM     39  C   UNL     1       7.077   6.518  17.537  0.00  0.00    +0.000 C 
ATOM     40  C   UNL     1       6.875   4.666  15.872  0.00  0.00    +0.000 C 
ATOM     41  C   UNL     1       5.141   6.437  15.943  0.00  0.00    +0.000 C 
ENDBRANCH  37  38
ENDBRANCH  36  37
ENDBRANCH  34  36
ENDBRANCH  30  34
ENDBRANCH  24  32
ENDBRANCH  23  28
ENDBRANCH  22  23
ENDBRANCH   1  22
TORSDOF 14
ENDMDL
MODEL 3
REMARK VINA RESULT:      -7.0      2.366      9.838
REMARK  Name = 
REMARK  18 active torsions:
REMARK  status: ('A' for Active; 'I' for Inactive)
REMARK    1  A    between atoms: C_1  and  C_2
REMARK    2  A    between atoms: C_2  and  C_3
REMARK    3  A    between atoms: C_2  and  C_32
REMARK    4  A    between atoms: C_3  and  C_4
REMARK    5  A    between atoms: N_6  and  C_7
REMARK    6  A    between atoms: C_11  and  C_12
REMARK    7  A    between atoms: C_12  and  C_13
REMARK    8  A    between atoms: C_13  and  C_14
REMARK    9  A    between atoms: C_14  and  N_15
REMARK   10  A    between atoms: N_15  and  C_16
REMARK   11  A    between atoms: C_16  and  C_17
REMARK   12  A    between atoms: C_17  and  O_18
REMARK   13  A    between atoms: C_17  and  C_19
REMARK   14  A    between atoms: C_22  and  O_23
REMARK   15  A    between atoms: C_32  and  C_33
REMARK   16  A    between atoms: C_33  and  C_34
REMARK   17  A    between atoms: C_33  and  C_35
REMARK   18  A    between atoms: C_33  and  C_36
REMARK                            x       y       z     vdW  Elec       q    Type
REMARK                         _______ _______ _______ _____ _____    ______ ____
ROOT
ATOM      1  C   UNL     1       1.492   8.539  20.500  0.00  0.00    +0.000 C 
ENDROOT
BRANCH   1   2
ATOM      2  N   UNL     1       0.742   8.347  21.740  0.00  0.00    +0.000 NA
ATOM      3  H   UNL     1       1.303   8.619  22.547  0.00  0.00    +0.000 HD
BRANCH   2   4
ATOM      4  C   UNL     1      -0.540   9.067  21.732  0.00  0.00    +0.000 C 
BRANCH   4   5
ATOM      5  C   UNL     1      -0.750   9.884  23.046  0.00  0.00    +0.000 C 
BRANCH   5   6
ATOM      6  C   UNL     1      -1.304  11.269  22.725  0.00  0.00    +0.000 A 
ATOM      7  C   UNL     1      -2.458  11.673  23.439  0.00  0.00    +0.000 A 
ATOM      8  C   UNL     1      -3.191  12.807  23.075  0.00  0.00    +0.000 A 
ATOM      9  C   UNL     1      -2.836  13.500  21.929  0.00  0.00    +0.000 A 
ATOM     10  C   UNL     1      -1.715  13.108  21.200  0.00  0.00    +0.000 A 
ATOM     11  N   UNL     1      -1.488  13.672  19.931  0.00  0.00    +0.000 N 
ATOM     12  C   UNL     1      -0.486  13.249  19.104  0.00  0.00    +0.000 A 
ATOM     13  O   UNL     1      -0.451  13.484  17.903  0.00  0.00    +0.000 OA
ATOM     14  C   UNL     1       0.617  12.525  19.772  0.00  0.00    +0.000 A 
ATOM     15  C   UNL     1       0.423  11.957  20.969  0.00  0.00    +0.000 A 
ATOM     16  C   UNL     1      -0.875  12.072  21.651  0.00  0.00    +0.000 A 
ATOM     17  H   UNL     1      -2.220  14.254  19.540  0.00  0.00    +0.000 HD
BRANCH   9  18
ATOM     18  O   UNL     1      -3.574  14.562  21.487  0.00  0.00    +0.000 OA
ATOM     19  H   UNL     1      -3.050  15.052  20.833  0.00  0.00    +0.000 HD
ENDBRANCH   9  18
ENDBRANCH   5   6
BRANCH   5  20
ATOM     20  O   UNL     1       0.451   9.936  23.816  0.00  0.00    +0.000 OA
ATOM     21  H   UNL     1       1.110   9.394  23.355  0.00  0.00    +0.000 HD
ENDBRANCH   5  20
ENDBRANCH   4   5
ENDBRANCH   2   4
ENDBRANCH   1   2
BRANCH   1  22
ATOM     22  C   UNL     1       2.060   7.195  20.037  0.00  0.00    +0.000 C 
BRANCH  22  23
ATOM     23  C   UNL     1       1.510   6.043  20.877  0.00  0.00    +0.000 C 
BRANCH  23  28
ATOM     24  C   UNL     1       3.730   3.428  19.181  0.00  0.00    +0.000 A 
ATOM     25  C   UNL     1       3.246   2.257  19.767  0.00  0.00    +0.000 A 
ATOM     26  C   UNL     1       2.220   2.310  20.710  0.00  0.00    +0.000 A 
ATOM     27  C   UNL     1       1.656   3.527  21.069  0.00  0.00    +0.000 A 
ATOM     28  C   UNL     1       2.126   4.721  20.496  0.00  0.00    +0.000 A 
ATOM     29  C   UNL     1       3.182   4.659  19.575  0.00  0.00    +0.000 A 
BRANCH  24  32
ATOM     30  C   UNL     1       4.587   3.653  16.853  0.00  0.00    +0.000 C 
ATOM     31  O   UNL     1       3.531   3.905  16.279  0.00  0.00    +0.000 OA
ATOM     32  N   UNL     1       4.753   3.449  18.211  0.00  0.00    +0.000 N 
ATOM     33  H   UNL     1       5.701   3.424  18.561  0.00  0.00    +0.000 HD
BRANCH  30  34
ATOM     34  C   UNL     1       5.886   3.544  16.064  0.00  0.00    +0.000 C 
BRANCH  34  36
ATOM     35  C   UNL     1       6.834   4.661  14.027  0.00  0.00    +0.000 C 
ATOM     36  C   UNL     1       6.365   4.888  15.466  0.00  0.00    +0.000 C 
BRANCH  36  37
ATOM     37  C   UNL     1       7.414   5.574  16.382  0.00  0.00    +0.000 C 
BRANCH  37  38
ATOM     38  C   UNL     1       6.932   6.533  17.518  0.00  0.00    +0.000 C 
ATOM     39  C   UNL     1       7.745   7.838  17.519  0.00  0.00    +0.000 C 
ATOM     40  C   UNL     1       5.449   6.890  17.258  0.00  0.00    +0.000 C 
ATOM     41  C   UNL     1       6.999   5.889  18.912  0.00  0.00    +0.000 C 
ENDBRANCH  37  38
ENDBRANCH  36  37
ENDBRANCH  34  36
ENDBRANCH  30  34
ENDBRANCH  24  32
ENDBRANCH  23  28
ENDBRANCH  22  23
ENDBRANCH   1  22
TORSDOF 14
ENDMDL
MODEL 4
REMARK VINA RESULT:      -6.9      2.003      3.806
REMARK  Name = 
REMARK  18 active torsions:
REMARK  status: ('A' for Active; 'I' for Inactive)
REMARK    1  A    between atoms: C_1  and  C_2
REMARK    2  A    between atoms: C_2  and  C_3
REMARK    3  A    between atoms: C_2  and  C_32
REMARK    4  A    between atoms: C_3  and  C_4
REMARK    5  A    between atoms: N_6  and  C_7
REMARK    6  A    between atoms: C_11  and  C_12
REMARK    7  A    between atoms: C_12  and  C_13
REMARK    8  A    between atoms: C_13  and  C_14
REMARK    9  A    between atoms: C_14  and  N_15
REMARK   10  A    between atoms: N_15  and  C_16
REMARK   11  A    between atoms: C_16  and  C_17
REMARK   12  A    between atoms: C_17  and  O_18
REMARK   13  A    between atoms: C_17  and  C_19
REMARK   14  A    between atoms: C_22  and  O_23
REMARK   15  A    between atoms: C_32  and  C_33
REMARK   16  A    between atoms: C_33  and  C_34
REMARK   17  A    between atoms: C_33  and  C_35
REMARK   18  A    between atoms: C_33  and  C_36
REMARK                            x       y       z     vdW  Elec       q    Type
REMARK                         _______ _______ _______ _____ _____    ______ ____
ROOT
ATOM      1  C   UNL     1       2.108   4.533  20.848  0.00  0.00    +0.000 C 
ENDROOT
BRANCH   1   2
ATOM      2  N   UNL     1       1.912   3.422  19.916  0.00  0.00    +0.000 NA
ATOM      3  H   UNL     1       1.347   3.715  19.120  0.00  0.00    +0.000 HD
BRANCH   2   4
ATOM      4  C   UNL     1       3.186   2.844  19.466  0.00  0.00    +0.000 C 
BRANCH   4   5
ATOM      5  C   UNL     1       3.574   3.347  18.039  0.00  0.00    +0.000 C 
BRANCH   5   6
ATOM      6  C   UNL     1       4.925   4.055  18.077  0.00  0.00    +0.000 A 
ATOM      7  C   UNL     1       5.236   4.772  19.258  0.00  0.00    +0.000 A 
ATOM      8  C   UNL     1       6.325   5.645  19.326  0.00  0.00    +0.000 A 
ATOM      9  C   UNL     1       7.065   5.890  18.181  0.00  0.00    +0.000 A 
ATOM     10  C   UNL     1       6.765   5.210  17.002  0.00  0.00    +0.000 A 
ATOM     11  N   UNL     1       7.370   5.619  15.799  0.00  0.00    +0.000 N 
ATOM     12  C   UNL     1       7.034   5.089  14.585  0.00  0.00    +0.000 A 
ATOM     13  O   UNL     1       7.296   5.619  13.514  0.00  0.00    +0.000 OA
ATOM     14  C   UNL     1       6.370   3.768  14.639  0.00  0.00    +0.000 A 
ATOM     15  C   UNL     1       5.765   3.362  15.763  0.00  0.00    +0.000 A 
ATOM     16  C   UNL     1       5.778   4.206  16.967  0.00  0.00    +0.000 A 
ATOM     17  H   UNL     1       7.910   6.476  15.815  0.00  0.00    +0.000 HD
BRANCH   9  18
ATOM     18  O   UNL     1       8.085   6.800  18.178  0.00  0.00    +0.000 OA
ATOM     19  H   UNL     1       8.879   6.376  18.544  0.00  0.00    +0.000 HD
ENDBRANCH   9  18
ENDBRANCH   5   6
BRANCH   5  20
ATOM     20  O   UNL     1       2.541   4.159  17.482  0.00  0.00    +0.000 OA
ATOM     21  H   UNL     1       1.749   4.030  18.028  0.00  0.00    +0.000 HD
ENDBRANCH   5  20
ENDBRANCH   4   5
ENDBRANCH   2   4
ENDBRANCH   1   2
BRANCH   1  22
ATOM     22  C   UNL     1       1.279   5.734  20.387  0.00  0.00    +0.000 C 
BRANCH  22  23
ATOM     23  C   UNL     1       1.760   7.025  21.050  0.00  0.00    +0.000 C 
BRANCH  23  28
ATOM     24  C   UNL     1       0.863  10.515  19.763  0.00  0.00    +0.000 A 
ATOM     25  C   UNL     1       1.293  10.422  18.438  0.00  0.00    +0.000 A 
ATOM     26  C   UNL     1       1.879   9.247  17.966  0.00  0.00    +0.000 A 
ATOM     27  C   UNL     1       2.029   8.150  18.803  0.00  0.00    +0.000 A 
ATOM     28  C   UNL     1       1.607   8.218  20.142  0.00  0.00    +0.000 A 
ATOM     29  C   UNL     1       1.051   9.416  20.615  0.00  0.00    +0.000 A 
BRANCH  24  32
ATOM     30  C   UNL     1      -1.088  12.002  20.200  0.00  0.00    +0.000 C 
ATOM     31  O   UNL     1      -1.968  11.331  19.668  0.00  0.00    +0.000 OA
ATOM     32  N   UNL     1       0.249  11.663  20.304  0.00  0.00    +0.000 N 
ATOM     33  H   UNL     1       0.821  12.228  20.918  0.00  0.00    +0.000 HD
BRANCH  30  34
ATOM     34  C   UNL     1      -1.420  13.347  20.834  0.00  0.00    +0.000 C 
BRANCH  34  36
ATOM     35  C   UNL     1      -1.195  12.062  22.978  0.00  0.00    +0.000 C 
ATOM     36  C   UNL     1      -1.901  13.240  22.301  0.00  0.00    +0.000 C 
BRANCH  36  37
ATOM     37  C   UNL     1      -3.450  13.195  22.388  0.00  0.00    +0.000 C 
BRANCH  37  38
ATOM     38  C   UNL     1      -4.158  13.635  23.709  0.00  0.00    +0.000 C 
ATOM     39  C   UNL     1      -5.558  14.202  23.422  0.00  0.00    +0.000 C 
ATOM     40  C   UNL     1      -4.319  12.390  24.615  0.00  0.00    +0.000 C 
ATOM     41  C   UNL     1      -3.345  14.666  24.508  0.00  0.00    +0.000 C 
ENDBRANCH  37  38
ENDBRANCH  36  37
ENDBRANCH  34  36
ENDBRANCH  30  34
ENDBRANCH  24  32
ENDBRANCH  23  28
ENDBRANCH  22  23
ENDBRANCH   1  22
TORSDOF 14
ENDMDL
MODEL 5
REMARK VINA RESULT:      -6.9      1.629      3.108
REMARK  Name = 
REMARK  18 active torsions:
REMARK  status: ('A' for Active; 'I' for Inactive)
REMARK    1  A    between atoms: C_1  and  C_2
REMARK    2  A    between atoms: C_2  and  C_3
REMARK    3  A    between atoms: C_2  and  C_32
REMARK    4  A    between atoms: C_3  and  C_4
REMARK    5  A    between atoms: N_6  and  C_7
REMARK    6  A    between atoms: C_11  and  C_12
REMARK    7  A    between atoms: C_12  and  C_13
REMARK    8  A    between atoms: C_13  and  C_14
REMARK    9  A    between atoms: C_14  and  N_15
REMARK   10  A    between atoms: N_15  and  C_16
REMARK   11  A    between atoms: C_16  and  C_17
REMARK   12  A    between atoms: C_17  and  O_18
REMARK   13  A    between atoms: C_17  and  C_19
REMARK   14  A    between atoms: C_22  and  O_23
REMARK   15  A    between atoms: C_32  and  C_33
REMARK   16  A    between atoms: C_33  and  C_34
REMARK   17  A    between atoms: C_33  and  C_35
REMARK   18  A    between atoms: C_33  and  C_36
REMARK                            x       y       z     vdW  Elec       q    Type
REMARK                         _______ _______ _______ _____ _____    ______ ____
ROOT
ATOM      1  C   UNL     1       1.295   3.470  20.707  0.00  0.00    +0.000 C 
ENDROOT
BRANCH   1   2
ATOM      2  N   UNL     1       1.697   2.711  19.523  0.00  0.00    +0.000 NA
ATOM      3  H   UNL     1       1.246   3.082  18.688  0.00  0.00    +0.000 HD
BRANCH   2   4
ATOM      4  C   UNL     1       3.156   2.675  19.355  0.00  0.00    +0.000 C 
BRANCH   4   5
ATOM      5  C   UNL     1       3.584   3.157  17.932  0.00  0.00    +0.000 C 
BRANCH   5   6
ATOM      6  C   UNL     1       4.918   3.893  18.001  0.00  0.00    +0.000 A 
ATOM      7  C   UNL     1       5.207   4.576  19.207  0.00  0.00    +0.000 A 
ATOM      8  C   UNL     1       6.276   5.471  19.311  0.00  0.00    +0.000 A 
ATOM      9  C   UNL     1       7.015   5.772  18.178  0.00  0.00    +0.000 A 
ATOM     10  C   UNL     1       6.735   5.125  16.975  0.00  0.00    +0.000 A 
ATOM     11  N   UNL     1       7.337   5.589  15.790  0.00  0.00    +0.000 N 
ATOM     12  C   UNL     1       7.018   5.092  14.557  0.00  0.00    +0.000 A 
ATOM     13  O   UNL     1       7.273   5.665  13.506  0.00  0.00    +0.000 OA
ATOM     14  C   UNL     1       6.384   3.756  14.563  0.00  0.00    +0.000 A 
ATOM     15  C   UNL     1       5.784   3.299  15.669  0.00  0.00    +0.000 A 
ATOM     16  C   UNL     1       5.772   4.101  16.901  0.00  0.00    +0.000 A 
ATOM     17  H   UNL     1       7.857   6.457  15.837  0.00  0.00    +0.000 HD
BRANCH   9  18
ATOM     18  O   UNL     1       8.014   6.704  18.211  0.00  0.00    +0.000 OA
ATOM     19  H   UNL     1       7.786   7.423  17.599  0.00  0.00    +0.000 HD
ENDBRANCH   9  18
ENDBRANCH   5   6
BRANCH   5  20
ATOM     20  O   UNL     1       2.555   3.935  17.322  0.00  0.00    +0.000 OA
ATOM     21  H   UNL     1       2.031   3.333  16.769  0.00  0.00    +0.000 HD
ENDBRANCH   5  20
ENDBRANCH   4   5
ENDBRANCH   2   4
ENDBRANCH   1   2
BRANCH   1  22
ATOM     22  C   UNL     1       0.835   4.867  20.284  0.00  0.00    +0.000 C 
BRANCH  22  23
ATOM     23  C   UNL     1       1.800   5.942  20.785  0.00  0.00    +0.000 C 
BRANCH  23  28
ATOM     24  C   UNL     1       1.501   9.309  18.991  0.00  0.00    +0.000 A 
ATOM     25  C   UNL     1       2.317   9.085  17.881  0.00  0.00    +0.000 A 
ATOM     26  C   UNL     1       2.969   7.862  17.717  0.00  0.00    +0.000 A 
ATOM     27  C   UNL     1       2.803   6.847  18.649  0.00  0.00    +0.000 A 
ATOM     28  C   UNL     1       1.989   7.047  19.777  0.00  0.00    +0.000 A 
ATOM     29  C   UNL     1       1.366   8.292  19.948  0.00  0.00    +0.000 A 
BRANCH  24  32
ATOM     30  C   UNL     1      -0.353  10.918  18.566  0.00  0.00    +0.000 C 
ATOM     31  O   UNL     1      -0.985  10.273  17.735  0.00  0.00    +0.000 OA
ATOM     32  N   UNL     1       0.800  10.512  19.213  0.00  0.00    +0.000 N 
ATOM     33  H   UNL     1       1.112  11.072  19.996  0.00  0.00    +0.000 HD
BRANCH  30  34
ATOM     34  C   UNL     1      -0.822  12.306  18.985  0.00  0.00    +0.000 C 
BRANCH  34  36
ATOM     35  C   UNL     1      -2.349  13.712  20.395  0.00  0.00    +0.000 C 
ATOM     36  C   UNL     1      -2.072  12.291  19.896  0.00  0.00    +0.000 C 
BRANCH  36  37
ATOM     37  C   UNL     1      -1.941  11.230  21.021  0.00  0.00    +0.000 C 
BRANCH  37  38
ATOM     38  C   UNL     1      -1.414  11.663  22.427  0.00  0.00    +0.000 C 
ATOM     39  C   UNL     1      -0.402  12.815  22.305  0.00  0.00    +0.000 C 
ATOM     40  C   UNL     1      -2.615  12.164  23.265  0.00  0.00    +0.000 C 
ATOM     41  C   UNL     1      -0.775  10.504  23.209  0.00  0.00    +0.000 C 
ENDBRANCH  37  38
ENDBRANCH  36  37
ENDBRANCH  34  36
ENDBRANCH  30  34
ENDBRANCH  24  32
ENDBRANCH  23  28
ENDBRANCH  22  23
ENDBRANCH   1  22
TORSDOF 14
ENDMDL
MODEL 6
REMARK VINA RESULT:      -6.8      2.314     10.030
REMARK  Name = 
REMARK  18 active torsions:
REMARK  status: ('A' for Active; 'I' for Inactive)
REMARK    1  A    between atoms: C_1  and  C_2
REMARK    2  A    between atoms: C_2  and  C_3
REMARK    3  A    between atoms: C_2  and  C_32
REMARK    4  A    between atoms: C_3  and  C_4
REMARK    5  A    between atoms: N_6  and  C_7
REMARK    6  A    between atoms: C_11  and  C_12
REMARK    7  A    between atoms: C_12  and  C_13
REMARK    8  A    between atoms: C_13  and  C_14
REMARK    9  A    between atoms: C_14  and  N_15
REMARK   10  A    between atoms: N_15  and  C_16
REMARK   11  A    between atoms: C_16  and  C_17
REMARK   12  A    between atoms: C_17  and  O_18
REMARK   13  A    between atoms: C_17  and  C_19
REMARK   14  A    between atoms: C_22  and  O_23
REMARK   15  A    between atoms: C_32  and  C_33
REMARK   16  A    between atoms: C_33  and  C_34
REMARK   17  A    between atoms: C_33  and  C_35
REMARK   18  A    between atoms: C_33  and  C_36
REMARK                            x       y       z     vdW  Elec       q    Type
REMARK                         _______ _______ _______ _____ _____    ______ ____
ROOT
ATOM      1  C   UNL     1       2.184   7.351  20.218  0.00  0.00    +0.000 C 
ENDROOT
BRANCH   1   2
ATOM      2  N   UNL     1       1.013   8.200  20.438  0.00  0.00    +0.000 NA
ATOM      3  H   UNL     1       0.182   7.633  20.599  0.00  0.00    +0.000 HD
BRANCH   2   4
ATOM      4  C   UNL     1       1.216   9.152  21.540  0.00  0.00    +0.000 C 
BRANCH   4   5
ATOM      5  C   UNL     1      -0.021  10.086  21.727  0.00  0.00    +0.000 C 
BRANCH   5   6
ATOM      6  C   UNL     1       0.005  11.212  20.698  0.00  0.00    +0.000 A 
ATOM      7  C   UNL     1       0.626  12.422  21.093  0.00  0.00    +0.000 A 
ATOM      8  C   UNL     1       0.510  13.592  20.337  0.00  0.00    +0.000 A 
ATOM      9  C   UNL     1      -0.312  13.595  19.222  0.00  0.00    +0.000 A 
ATOM     10  C   UNL     1      -0.948  12.420  18.826  0.00  0.00    +0.000 A 
ATOM     11  N   UNL     1      -1.944  12.479  17.833  0.00  0.00    +0.000 N 
ATOM     12  C   UNL     1      -2.701  11.397  17.481  0.00  0.00    +0.000 A 
ATOM     13  O   UNL     1      -3.758  11.475  16.870  0.00  0.00    +0.000 OA
ATOM     14  C   UNL     1      -2.121  10.083  17.836  0.00  0.00    +0.000 A 
ATOM     15  C   UNL     1      -1.189   9.993  18.793  0.00  0.00    +0.000 A 
ATOM     16  C   UNL     1      -0.706  11.199  19.482  0.00  0.00    +0.000 A 
ATOM     17  H   UNL     1      -2.250  13.397  17.530  0.00  0.00    +0.000 HD
BRANCH   9  18
ATOM     18  O   UNL     1      -0.523  14.737  18.502  0.00  0.00    +0.000 OA
ATOM     19  H   UNL     1      -0.134  15.484  18.986  0.00  0.00    +0.000 HD
ENDBRANCH   9  18
ENDBRANCH   5   6
BRANCH   5  20
ATOM     20  O   UNL     1      -0.104  10.567  23.069  0.00  0.00    +0.000 OA
ATOM     21  H   UNL     1       0.805  10.717  23.375  0.00  0.00    +0.000 HD
ENDBRANCH   5  20
ENDBRANCH   4   5
ENDBRANCH   2   4
ENDBRANCH   1   2
BRANCH   1  22
ATOM     22  C   UNL     1       1.865   5.921  20.662  0.00  0.00    +0.000 C 
BRANCH  22  23
ATOM     23  C   UNL     1       1.201   5.128  19.536  0.00  0.00    +0.000 C 
BRANCH  23  28
ATOM     24  C   UNL     1       3.934   3.005  17.904  0.00  0.00    +0.000 A 
ATOM     25  C   UNL     1       3.549   1.726  18.312  0.00  0.00    +0.000 A 
ATOM     26  C   UNL     1       2.424   1.551  19.117  0.00  0.00    +0.000 A 
ATOM     27  C   UNL     1       1.663   2.644  19.512  0.00  0.00    +0.000 A 
ATOM     28  C   UNL     1       2.030   3.941  19.117  0.00  0.00    +0.000 A 
ATOM     29  C   UNL     1       3.183   4.109  18.335  0.00  0.00    +0.000 A 
BRANCH  24  32
ATOM     30  C   UNL     1       5.959   4.287  17.223  0.00  0.00    +0.000 C 
ATOM     31  O   UNL     1       5.978   5.117  18.128  0.00  0.00    +0.000 OA
ATOM     32  N   UNL     1       5.049   3.256  17.078  0.00  0.00    +0.000 N 
ATOM     33  H   UNL     1       5.259   2.551  16.384  0.00  0.00    +0.000 HD
BRANCH  30  34
ATOM     34  C   UNL     1       7.009   4.325  16.120  0.00  0.00    +0.000 C 
BRANCH  34  36
ATOM     35  C   UNL     1       5.343   5.767  14.921  0.00  0.00    +0.000 C 
ATOM     36  C   UNL     1       6.443   4.719  14.736  0.00  0.00    +0.000 C 
BRANCH  36  37
ATOM     37  C   UNL     1       6.008   3.468  13.925  0.00  0.00    +0.000 C 
BRANCH  37  38
ATOM     38  C   UNL     1       6.077   3.503  12.364  0.00  0.00    +0.000 C 
ATOM     39  C   UNL     1       7.123   4.522  11.882  0.00  0.00    +0.000 C 
ATOM     40  C   UNL     1       6.504   2.101  11.864  0.00  0.00    +0.000 C 
ATOM     41  C   UNL     1       4.721   3.816  11.713  0.00  0.00    +0.000 C 
ENDBRANCH  37  38
ENDBRANCH  36  37
ENDBRANCH  34  36
ENDBRANCH  30  34
ENDBRANCH  24  32
ENDBRANCH  23  28
ENDBRANCH  22  23
ENDBRANCH   1  22
TORSDOF 14
ENDMDL
MODEL 7
REMARK VINA RESULT:      -6.7      1.386      2.358
REMARK  Name = 
REMARK  18 active torsions:
REMARK  status: ('A' for Active; 'I' for Inactive)
REMARK    1  A    between atoms: C_1  and  C_2
REMARK    2  A    between atoms: C_2  and  C_3
REMARK    3  A    between atoms: C_2  and  C_32
REMARK    4  A    between atoms: C_3  and  C_4
REMARK    5  A    between atoms: N_6  and  C_7
REMARK    6  A    between atoms: C_11  and  C_12
REMARK    7  A    between atoms: C_12  and  C_13
REMARK    8  A    between atoms: C_13  and  C_14
REMARK    9  A    between atoms: C_14  and  N_15
REMARK   10  A    between atoms: N_15  and  C_16
REMARK   11  A    between atoms: C_16  and  C_17
REMARK   12  A    between atoms: C_17  and  O_18
REMARK   13  A    between atoms: C_17  and  C_19
REMARK   14  A    between atoms: C_22  and  O_23
REMARK   15  A    between atoms: C_32  and  C_33
REMARK   16  A    between atoms: C_33  and  C_34
REMARK   17  A    between atoms: C_33  and  C_35
REMARK   18  A    between atoms: C_33  and  C_36
REMARK                            x       y       z     vdW  Elec       q    Type
REMARK                         _______ _______ _______ _____ _____    ______ ____
ROOT
ATOM      1  C   UNL     1       1.937   2.706  20.140  0.00  0.00    +0.000 C 
ENDROOT
BRANCH   1   2
ATOM      2  N   UNL     1       1.548   2.121  18.857  0.00  0.00    +0.000 NA
ATOM      3  H   UNL     1       0.549   2.240  18.695  0.00  0.00    +0.000 HD
BRANCH   2   4
ATOM      4  C   UNL     1       2.325   2.671  17.737  0.00  0.00    +0.000 C 
BRANCH   4   5
ATOM      5  C   UNL     1       3.858   2.454  17.938  0.00  0.00    +0.000 C 
BRANCH   5   6
ATOM      6  C   UNL     1       4.649   3.482  17.134  0.00  0.00    +0.000 A 
ATOM      7  C   UNL     1       4.680   3.305  15.730  0.00  0.00    +0.000 A 
ATOM      8  C   UNL     1       5.550   4.033  14.914  0.00  0.00    +0.000 A 
ATOM      9  C   UNL     1       6.475   4.881  15.502  0.00  0.00    +0.000 A 
ATOM     10  C   UNL     1       6.475   5.056  16.885  0.00  0.00    +0.000 A 
ATOM     11  N   UNL     1       7.545   5.740  17.491  0.00  0.00    +0.000 N 
ATOM     12  C   UNL     1       7.682   5.842  18.847  0.00  0.00    +0.000 A 
ATOM     13  O   UNL     1       8.729   6.143  19.404  0.00  0.00    +0.000 OA
ATOM     14  C   UNL     1       6.442   5.623  19.622  0.00  0.00    +0.000 A 
ATOM     15  C   UNL     1       5.416   4.954  19.079  0.00  0.00    +0.000 A 
ATOM     16  C   UNL     1       5.494   4.457  17.698  0.00  0.00    +0.000 A 
ATOM     17  H   UNL     1       8.341   5.973  16.909  0.00  0.00    +0.000 HD
BRANCH   9  18
ATOM     18  O   UNL     1       7.402   5.547  14.751  0.00  0.00    +0.000 OA
ATOM     19  H   UNL     1       7.824   6.222  15.308  0.00  0.00    +0.000 HD
ENDBRANCH   9  18
ENDBRANCH   5   6
BRANCH   5  20
ATOM     20  O   UNL     1       4.231   1.110  17.634  0.00  0.00    +0.000 OA
ATOM     21  H   UNL     1       4.848   0.821  18.325  0.00  0.00    +0.000 HD
ENDBRANCH   5  20
ENDBRANCH   4   5
ENDBRANCH   2   4
ENDBRANCH   1   2
BRANCH   1  22
ATOM     22  C   UNL     1       1.165   4.009  20.359  0.00  0.00    +0.000 C 
BRANCH  22  23
ATOM     23  C   UNL     1       2.080   5.110  20.897  0.00  0.00    +0.000 C 
BRANCH  23  28
ATOM     24  C   UNL     1       1.517   8.665  19.598  0.00  0.00    +0.000 A 
ATOM     25  C   UNL     1       2.079   8.568  18.323  0.00  0.00    +0.000 A 
ATOM     26  C   UNL     1       2.646   7.369  17.890  0.00  0.00    +0.000 A 
ATOM     27  C   UNL     1       2.646   6.252  18.715  0.00  0.00    +0.000 A 
ATOM     28  C   UNL     1       2.089   6.323  20.003  0.00  0.00    +0.000 A 
ATOM     29  C   UNL     1       1.553   7.543  20.440  0.00  0.00    +0.000 A 
BRANCH  24  32
ATOM     30  C   UNL     1       1.026  11.107  19.559  0.00  0.00    +0.000 C 
ATOM     31  O   UNL     1       1.623  11.410  18.530  0.00  0.00    +0.000 OA
ATOM     32  N   UNL     1       0.913   9.837  20.096  0.00  0.00    +0.000 N 
ATOM     33  H   UNL     1       0.250   9.712  20.849  0.00  0.00    +0.000 HD
BRANCH  30  34
ATOM     34  C   UNL     1       0.309  12.173  20.377  0.00  0.00    +0.000 C 
BRANCH  34  36
ATOM     35  C   UNL     1      -1.940  12.863  21.253  0.00  0.00    +0.000 C 
ATOM     36  C   UNL     1      -1.193  12.315  20.034  0.00  0.00    +0.000 C 
BRANCH  36  37
ATOM     37  C   UNL     1      -1.772  10.990  19.469  0.00  0.00    +0.000 C 
BRANCH  37  38
ATOM     38  C   UNL     1      -2.736  11.036  18.240  0.00  0.00    +0.000 C 
ATOM     39  C   UNL     1      -3.134   9.618  17.799  0.00  0.00    +0.000 C 
ATOM     40  C   UNL     1      -4.022  11.790  18.656  0.00  0.00    +0.000 C 
ATOM     41  C   UNL     1      -2.141  11.794  17.042  0.00  0.00    +0.000 C 
ENDBRANCH  37  38
ENDBRANCH  36  37
ENDBRANCH  34  36
ENDBRANCH  30  34
ENDBRANCH  24  32
ENDBRANCH  23  28
ENDBRANCH  22  23
ENDBRANCH   1  22
TORSDOF 14
ENDMDL
MODEL 8
REMARK VINA RESULT:      -6.7      1.761      3.508
REMARK  Name = 
REMARK  18 active torsions:
REMARK  status: ('A' for Active; 'I' for Inactive)
REMARK    1  A    between atoms: C_1  and  C_2
REMARK    2  A    between atoms: C_2  and  C_3
REMARK    3  A    between atoms: C_2  and  C_32
REMARK    4  A    between atoms: C_3  and  C_4
REMARK    5  A    between atoms: N_6  and  C_7
REMARK    6  A    between atoms: C_11  and  C_12
REMARK    7  A    between atoms: C_12  and  C_13
REMARK    8  A    between atoms: C_13  and  C_14
REMARK    9  A    between atoms: C_14  and  N_15
REMARK   10  A    between atoms: N_15  and  C_16
REMARK   11  A    between atoms: C_16  and  C_17
REMARK   12  A    between atoms: C_17  and  O_18
REMARK   13  A    between atoms: C_17  and  C_19
REMARK   14  A    between atoms: C_22  and  O_23
REMARK   15  A    between atoms: C_32  and  C_33
REMARK   16  A    between atoms: C_33  and  C_34
REMARK   17  A    between atoms: C_33  and  C_35
REMARK   18  A    between atoms: C_33  and  C_36
REMARK                            x       y       z     vdW  Elec       q    Type
REMARK                         _______ _______ _______ _____ _____    ______ ____
ROOT
ATOM      1  C   UNL     1       1.897   3.554  20.713  0.00  0.00    +0.000 C 
ENDROOT
BRANCH   1   2
ATOM      2  N   UNL     1       1.706   3.002  19.372  0.00  0.00    +0.000 NA
ATOM      3  H   UNL     1       1.262   3.687  18.761  0.00  0.00    +0.000 HD
BRANCH   2   4
ATOM      4  C   UNL     1       2.964   2.520  18.785  0.00  0.00    +0.000 C 
BRANCH   4   5
ATOM      5  C   UNL     1       3.355   3.334  17.512  0.00  0.00    +0.000 C 
BRANCH   5   6
ATOM      6  C   UNL     1       4.729   3.973  17.693  0.00  0.00    +0.000 A 
ATOM      7  C   UNL     1       4.978   4.605  18.935  0.00  0.00    +0.000 A 
ATOM      8  C   UNL     1       6.096   5.419  19.137  0.00  0.00    +0.000 A 
ATOM      9  C   UNL     1       6.932   5.694  18.067  0.00  0.00    +0.000 A 
ATOM     10  C   UNL     1       6.694   5.098  16.829  0.00  0.00    +0.000 A 
ATOM     11  N   UNL     1       7.408   5.546  15.702  0.00  0.00    +0.000 N 
ATOM     12  C   UNL     1       7.143   5.103  14.437  0.00  0.00    +0.000 A 
ATOM     13  O   UNL     1       7.510   5.681  13.423  0.00  0.00    +0.000 OA
ATOM     14  C   UNL     1       6.421   3.814  14.361  0.00  0.00    +0.000 A 
ATOM     15  C   UNL     1       5.713   3.374  15.410  0.00  0.00    +0.000 A 
ATOM     16  C   UNL     1       5.671   4.147  16.660  0.00  0.00    +0.000 A 
ATOM     17  H   UNL     1       7.982   6.374  15.810  0.00  0.00    +0.000 HD
BRANCH   9  18
ATOM     18  O   UNL     1       7.987   6.552  18.195  0.00  0.00    +0.000 OA
ATOM     19  H   UNL     1       7.988   6.909  19.099  0.00  0.00    +0.000 HD
ENDBRANCH   9  18
ENDBRANCH   5   6
BRANCH   5  20
ATOM     20  O   UNL     1       2.344   4.285  17.179  0.00  0.00    +0.000 OA
ATOM     21  H   UNL     1       2.141   4.782  17.988  0.00  0.00    +0.000 HD
ENDBRANCH   5  20
ENDBRANCH   4   5
ENDBRANCH   2   4
ENDBRANCH   1   2
BRANCH   1  22
ATOM     22  C   UNL     1       2.507   4.954  20.605  0.00  0.00    +0.000 C 
BRANCH  22  23
ATOM     23  C   UNL     1       1.537   6.020  21.112  0.00  0.00    +0.000 C 
BRANCH  23  28
ATOM     24  C   UNL     1       1.025   9.624  19.931  0.00  0.00    +0.000 A 
ATOM     25  C   UNL     1       1.605   9.567  18.663  0.00  0.00    +0.000 A 
ATOM     26  C   UNL     1       2.168   8.379  18.196  0.00  0.00    +0.000 A 
ATOM     27  C   UNL     1       2.145   7.233  18.980  0.00  0.00    +0.000 A 
ATOM     28  C   UNL     1       1.570   7.265  20.262  0.00  0.00    +0.000 A 
ATOM     29  C   UNL     1       1.038   8.474  20.734  0.00  0.00    +0.000 A 
BRANCH  24  32
ATOM     30  C   UNL     1       1.000  12.040  20.542  0.00  0.00    +0.000 C 
ATOM     31  O   UNL     1       2.104  12.361  20.113  0.00  0.00    +0.000 OA
ATOM     32  N   UNL     1       0.425  10.784  20.462  0.00  0.00    +0.000 N 
ATOM     33  H   UNL     1      -0.555  10.710  20.702  0.00  0.00    +0.000 HD
BRANCH  30  34
ATOM     34  C   UNL     1       0.113  13.065  21.237  0.00  0.00    +0.000 C 
BRANCH  34  36
ATOM     35  C   UNL     1      -1.543  13.174  19.354  0.00  0.00    +0.000 C 
ATOM     36  C   UNL     1      -1.383  12.950  20.861  0.00  0.00    +0.000 C 
BRANCH  36  37
ATOM     37  C   UNL     1      -2.262  13.877  21.743  0.00  0.00    +0.000 C 
BRANCH  37  38
ATOM     38  C   UNL     1      -3.411  13.256  22.600  0.00  0.00    +0.000 C 
ATOM     39  C   UNL     1      -4.558  12.757  21.705  0.00  0.00    +0.000 C 
ATOM     40  C   UNL     1      -2.842  12.043  23.375  0.00  0.00    +0.000 C 
ATOM     41  C   UNL     1      -3.971  14.233  23.648  0.00  0.00    +0.000 C 
ENDBRANCH  37  38
ENDBRANCH  36  37
ENDBRANCH  34  36
ENDBRANCH  30  34
ENDBRANCH  24  32
ENDBRANCH  23  28
ENDBRANCH  22  23
ENDBRANCH   1  22
TORSDOF 14
ENDMDL
MODEL 9
REMARK VINA RESULT:      -6.6      1.663      2.693
REMARK  Name = 
REMARK  18 active torsions:
REMARK  status: ('A' for Active; 'I' for Inactive)
REMARK    1  A    between atoms: C_1  and  C_2
REMARK    2  A    between atoms: C_2  and  C_3
REMARK    3  A    between atoms: C_2  and  C_32
REMARK    4  A    between atoms: C_3  and  C_4
REMARK    5  A    between atoms: N_6  and  C_7
REMARK    6  A    between atoms: C_11  and  C_12
REMARK    7  A    between atoms: C_12  and  C_13
REMARK    8  A    between atoms: C_13  and  C_14
REMARK    9  A    between atoms: C_14  and  N_15
REMARK   10  A    between atoms: N_15  and  C_16
REMARK   11  A    between atoms: C_16  and  C_17
REMARK   12  A    between atoms: C_17  and  O_18
REMARK   13  A    between atoms: C_17  and  C_19
REMARK   14  A    between atoms: C_22  and  O_23
REMARK   15  A    between atoms: C_32  and  C_33
REMARK   16  A    between atoms: C_33  and  C_34
REMARK   17  A    between atoms: C_33  and  C_35
REMARK   18  A    between atoms: C_33  and  C_36
REMARK                            x       y       z     vdW  Elec       q    Type
REMARK                         _______ _______ _______ _____ _____    ______ ____
ROOT
ATOM      1  C   UNL     1       1.835   4.645  19.231  0.00  0.00    +0.000 C 
ENDROOT
BRANCH   1   2
ATOM      2  N   UNL     1       2.027   4.802  17.789  0.00  0.00    +0.000 NA
ATOM      3  H   UNL     1       2.637   5.593  17.591  0.00  0.00    +0.000 HD
BRANCH   2   4
ATOM      4  C   UNL     1       2.542   3.577  17.161  0.00  0.00    +0.000 C 
BRANCH   4   5
ATOM      5  C   UNL     1       4.046   3.341  17.508  0.00  0.00    +0.000 C 
BRANCH   5   6
ATOM      6  C   UNL     1       4.940   4.052  16.497  0.00  0.00    +0.000 A 
ATOM      7  C   UNL     1       5.290   3.325  15.334  0.00  0.00    +0.000 A 
ATOM      8  C   UNL     1       6.280   3.771  14.454  0.00  0.00    +0.000 A 
ATOM      9  C   UNL     1       7.007   4.906  14.778  0.00  0.00    +0.000 A 
ATOM     10  C   UNL     1       6.693   5.627  15.929  0.00  0.00    +0.000 A 
ATOM     11  N   UNL     1       7.566   6.641  16.364  0.00  0.00    +0.000 N 
ATOM     12  C   UNL     1       7.395   7.304  17.547  0.00  0.00    +0.000 A 
ATOM     13  O   UNL     1       8.277   7.949  18.099  0.00  0.00    +0.000 OA
ATOM     14  C   UNL     1       6.027   7.248  18.107  0.00  0.00    +0.000 A 
ATOM     15  C   UNL     1       5.183   6.280  17.729  0.00  0.00    +0.000 A 
ATOM     16  C   UNL     1       5.589   5.280  16.731  0.00  0.00    +0.000 A 
ATOM     17  H   UNL     1       8.458   6.726  15.891  0.00  0.00    +0.000 HD
BRANCH   9  18
ATOM     18  O   UNL     1       8.042   5.331  13.993  0.00  0.00    +0.000 OA
ATOM     19  H   UNL     1       7.715   6.029  13.402  0.00  0.00    +0.000 HD
ENDBRANCH   9  18
ENDBRANCH   5   6
BRANCH   5  20
ATOM     20  O   UNL     1       4.336   1.947  17.617  0.00  0.00    +0.000 OA
ATOM     21  H   UNL     1       4.138   1.546  16.755  0.00  0.00    +0.000 HD
ENDBRANCH   5  20
ENDBRANCH   4   5
ENDBRANCH   2   4
ENDBRANCH   1   2
BRANCH   1  22
ATOM     22  C   UNL     1       2.367   5.887  19.952  0.00  0.00    +0.000 C 
BRANCH  22  23
ATOM     23  C   UNL     1       2.113   7.153  19.133  0.00  0.00    +0.000 C 
BRANCH  23  28
ATOM     24  C   UNL     1       0.842  10.595  20.219  0.00  0.00    +0.000 A 
ATOM     25  C   UNL     1       0.548  10.352  21.562  0.00  0.00    +0.000 A 
ATOM     26  C   UNL     1       0.747   9.084  22.111  0.00  0.00    +0.000 A 
ATOM     27  C   UNL     1       1.253   8.052  21.332  0.00  0.00    +0.000 A 
ATOM     28  C   UNL     1       1.555   8.270  19.978  0.00  0.00    +0.000 A 
ATOM     29  C   UNL     1       1.318   9.538  19.428  0.00  0.00    +0.000 A 
BRANCH  24  32
ATOM     30  C   UNL     1      -0.513  12.415  19.190  0.00  0.00    +0.000 C 
ATOM     31  O   UNL     1      -1.633  11.937  19.347  0.00  0.00    +0.000 OA
ATOM     32  N   UNL     1       0.682  11.852  19.602  0.00  0.00    +0.000 N 
ATOM     33  H   UNL     1       1.505  12.437  19.560  0.00  0.00    +0.000 HD
BRANCH  30  34
ATOM     34  C   UNL     1      -0.338  13.757  18.491  0.00  0.00    +0.000 C 
BRANCH  34  36
ATOM     35  C   UNL     1      -0.097  16.245  18.711  0.00  0.00    +0.000 C 
ATOM     36  C   UNL     1      -0.591  14.975  19.410  0.00  0.00    +0.000 C 
BRANCH  36  37
ATOM     37  C   UNL     1       0.005  14.749  20.826  0.00  0.00    +0.000 C 
BRANCH  37  38
ATOM     38  C   UNL     1      -0.941  14.775  22.069  0.00  0.00    +0.000 C 
ATOM     39  C   UNL     1      -0.902  13.433  22.819  0.00  0.00    +0.000 C 
ATOM     40  C   UNL     1      -0.448  15.880  23.035  0.00  0.00    +0.000 C 
ATOM     41  C   UNL     1      -2.396  15.115  21.707  0.00  0.00    +0.000 C 
ENDBRANCH  37  38
ENDBRANCH  36  37
ENDBRANCH  34  36
ENDBRANCH  30  34
ENDBRANCH  24  32
ENDBRANCH  23  28
ENDBRANCH  22  23
ENDBRANCH   1  22
TORSDOF 14
ENDMDL
