MODEL 1
REMARK VINA RESULT:      -8.2      0.000      0.000
REMARK  Name = 
REMARK  10 active torsions:
REMARK  status: ('A' for Active; 'I' for Inactive)
REMARK    1  A    between atoms: C_1  and  C_2
REMARK    2  A    between atoms: C_2  and  C_3
REMARK    3  A    between atoms: C_3  and  O_4
REMARK    4  A    between atoms: O_4  and  C_5
REMARK    5  A    between atoms: C_8  and  N_9
REMARK    6  A    between atoms: C_13  and  S_14
REMARK    7  A    between atoms: S_14  and  C_15
REMARK    8  A    between atoms: N_16  and  C_17
REMARK    9  A    between atoms: C_17  and  C_18
REMARK   10  A    between atoms: N_19  and  C_20
REMARK                            x       y       z     vdW  Elec       q    Type
REMARK                         _______ _______ _______ _____ _____    ______ ____
ROOT
ATOM      1  N   UNL     1       2.795   6.382  19.392  0.00  0.00    +0.000 N 
ATOM      2  C   UNL     1       2.328   5.339  20.163  0.00  0.00    +0.000 C 
ATOM      3  O   UNL     1       1.252   5.221  20.738  0.00  0.00    +0.000 OA
ATOM      4  C   UNL     1       3.352   4.252  20.211  0.00  0.00    +0.000 C 
ATOM      5  C   UNL     1       4.454   4.708  19.270  0.00  0.00    +0.000 C 
ATOM      6  C   UNL     1       4.002   6.075  18.809  0.00  0.00    +0.000 C 
ATOM      7  O   UNL     1       4.665   6.767  18.045  0.00  0.00    +0.000 OA
ENDROOT
BRANCH   1  11
ATOM      8  C   UNL     1       0.709  10.063  18.826  0.00  0.00    +0.000 A 
ATOM      9  C   UNL     1       1.280   9.380  17.760  0.00  0.00    +0.000 A 
ATOM     10  C   UNL     1       1.961   8.177  17.960  0.00  0.00    +0.000 A 
ATOM     11  C   UNL     1       2.103   7.619  19.233  0.00  0.00    +0.000 A 
ATOM     12  C   UNL     1       1.525   8.318  20.306  0.00  0.00    +0.000 A 
ATOM     13  C   UNL     1       0.843   9.530  20.107  0.00  0.00    +0.000 A 
BRANCH   8  14
ATOM     14  O   UNL     1       0.005  11.238  18.712  0.00  0.00    +0.000 OA
BRANCH  14  15
ATOM     15  C   UNL     1      -1.373  11.118  19.073  0.00  0.00    +0.000 C 
BRANCH  15  17
ATOM     16  C   UNL     1      -2.348  10.295  16.945  0.00  0.00    +0.000 C 
ATOM     17  C   UNL     1      -2.290  11.468  17.913  0.00  0.00    +0.000 C 
ENDBRANCH  15  17
ENDBRANCH  14  15
ENDBRANCH   8  14
ENDBRANCH   1  11
BRANCH   5  18
ATOM     18  S   UNL     1       4.614   3.559  17.870  0.00  0.00    +0.000 S 
BRANCH  18  19
ATOM     19  C   UNL     1       5.704   4.419  16.789  0.00  0.00    +0.000 C 
ATOM     20  N   UNL     1       6.880   4.820  17.119  0.00  0.00    +0.000 NA
ATOM     21  N   UNL     1       5.213   4.562  15.518  0.00  0.00    +0.000 N 
ATOM     22  H   UNL     1       4.212   4.492  15.397  0.00  0.00    +0.000 HD
BRANCH  21  23
ATOM     23  C   UNL     1       5.967   4.441  14.334  0.00  0.00    +0.000 A 
ATOM     24  C   UNL     1       5.542   3.551  13.336  0.00  0.00    +0.000 A 
ATOM     25  C   UNL     1       6.230   3.447  12.120  0.00  0.00    +0.000 A 
ATOM     26  C   UNL     1       7.357   4.230  11.889  0.00  0.00    +0.000 A 
ATOM     27  C   UNL     1       7.782   5.114  12.872  0.00  0.00    +0.000 A 
ATOM     28  F   UNL     1       8.870   5.866  12.656  0.00  0.00    +0.000 F 
ATOM     29  C   UNL     1       7.095   5.232  14.075  0.00  0.00    +0.000 A 
ENDBRANCH  21  23
BRANCH  20  30
ATOM     30  C   UNL     1       7.491   4.590  18.410  0.00  0.00    +0.000 C 
ATOM     31  C   UNL     1       7.931   5.943  18.958  0.00  0.00    +0.000 C 
ENDBRANCH  20  30
ENDBRANCH  18  19
ENDBRANCH   5  18
TORSDOF 8
ENDMDL
MODEL 2
REMARK VINA RESULT:      -8.1      3.533      8.993
REMARK  Name = 
REMARK  10 active torsions:
REMARK  status: ('A' for Active; 'I' for Inactive)
REMARK    1  A    between atoms: C_1  and  C_2
REMARK    2  A    between atoms: C_2  and  C_3
REMARK    3  A    between atoms: C_3  and  O_4
REMARK    4  A    between atoms: O_4  and  C_5
REMARK    5  A    between atoms: C_8  and  N_9
REMARK    6  A    between atoms: C_13  and  S_14
REMARK    7  A    between atoms: S_14  and  C_15
REMARK    8  A    between atoms: N_16  and  C_17
REMARK    9  A    between atoms: C_17  and  C_18
REMARK   10  A    between atoms: N_19  and  C_20
REMARK                            x       y       z     vdW  Elec       q    Type
REMARK                         _______ _______ _______ _____ _____    ______ ____
ROOT
ATOM      1  N   UNL     1       2.723   7.030  18.668  0.00  0.00    +0.000 N 
ATOM      2  C   UNL     1       2.347   6.670  19.944  0.00  0.00    +0.000 C 
ATOM      3  O   UNL     1       2.796   5.786  20.664  0.00  0.00    +0.000 OA
ATOM      4  C   UNL     1       1.247   7.565  20.415  0.00  0.00    +0.000 C 
ATOM      5  C   UNL     1       1.084   8.600  19.315  0.00  0.00    +0.000 C 
ATOM      6  C   UNL     1       2.065   8.163  18.251  0.00  0.00    +0.000 C 
ATOM      7  O   UNL     1       2.195   8.759  17.188  0.00  0.00    +0.000 OA
ENDROOT
BRANCH   1  11
ATOM      8  C   UNL     1       5.637   4.925  16.364  0.00  0.00    +0.000 A 
ATOM      9  C   UNL     1       5.798   6.265  16.691  0.00  0.00    +0.000 A 
ATOM     10  C   UNL     1       4.837   6.943  17.445  0.00  0.00    +0.000 A 
ATOM     11  C   UNL     1       3.675   6.306  17.890  0.00  0.00    +0.000 A 
ATOM     12  C   UNL     1       3.518   4.951  17.553  0.00  0.00    +0.000 A 
ATOM     13  C   UNL     1       4.483   4.270  16.792  0.00  0.00    +0.000 A 
BRANCH   8  14
ATOM     14  O   UNL     1       6.544   4.182  15.648  0.00  0.00    +0.000 OA
BRANCH  14  15
ATOM     15  C   UNL     1       6.676   4.596  14.285  0.00  0.00    +0.000 C 
BRANCH  15  17
ATOM     16  C   UNL     1       6.439   3.370  12.142  0.00  0.00    +0.000 C 
ATOM     17  C   UNL     1       5.702   3.863  13.379  0.00  0.00    +0.000 C 
ENDBRANCH  15  17
ENDBRANCH  14  15
ENDBRANCH   8  14
ENDBRANCH   1  11
BRANCH   5  18
ATOM     18  S   UNL     1       1.481  10.262  19.937  0.00  0.00    +0.000 S 
BRANCH  18  19
ATOM     19  C   UNL     1       0.120  11.221  19.367  0.00  0.00    +0.000 C 
ATOM     20  N   UNL     1       0.212  12.443  18.978  0.00  0.00    +0.000 NA
ATOM     21  N   UNL     1      -1.053  10.518  19.301  0.00  0.00    +0.000 N 
ATOM     22  H   UNL     1      -1.128   9.686  19.868  0.00  0.00    +0.000 HD
BRANCH  21  23
ATOM     23  C   UNL     1      -2.014  10.629  18.276  0.00  0.00    +0.000 A 
ATOM     24  C   UNL     1      -3.131  11.456  18.468  0.00  0.00    +0.000 A 
ATOM     25  C   UNL     1      -4.077  11.640  17.451  0.00  0.00    +0.000 A 
ATOM     26  C   UNL     1      -3.919  10.993  16.228  0.00  0.00    +0.000 A 
ATOM     27  C   UNL     1      -2.816  10.175  16.032  0.00  0.00    +0.000 A 
ATOM     28  F   UNL     1      -2.662   9.545  14.860  0.00  0.00    +0.000 F 
ATOM     29  C   UNL     1      -1.866   9.999  17.033  0.00  0.00    +0.000 A 
ENDBRANCH  21  23
BRANCH  20  30
ATOM     30  C   UNL     1       1.448  13.193  18.917  0.00  0.00    +0.000 C 
ATOM     31  C   UNL     1       1.085  14.671  18.836  0.00  0.00    +0.000 C 
ENDBRANCH  20  30
ENDBRANCH  18  19
ENDBRANCH   5  18
TORSDOF 8
ENDMDL
MODEL 3
REMARK VINA RESULT:      -8.1      5.993     11.285
REMARK  Name = 
REMARK  10 active torsions:
REMARK  status: ('A' for Active; 'I' for Inactive)
REMARK    1  A    between atoms: C_1  and  C_2
REMARK    2  A    between atoms: C_2  and  C_3
REMARK    3  A    between atoms: C_3  and  O_4
REMARK    4  A    between atoms: O_4  and  C_5
REMARK    5  A    between atoms: C_8  and  N_9
REMARK    6  A    between atoms: C_13  and  S_14
REMARK    7  A    between atoms: S_14  and  C_15
REMARK    8  A    between atoms: N_16  and  C_17
REMARK    9  A    between atoms: C_17  and  C_18
REMARK   10  A    between atoms: N_19  and  C_20
REMARK                            x       y       z     vdW  Elec       q    Type
REMARK                         _______ _______ _______ _____ _____    ______ ____
ROOT
ATOM      1  N   UNL     1       0.230  10.835  18.746  0.00  0.00    +0.000 N 
ATOM      2  C   UNL     1      -1.029  10.862  18.186  0.00  0.00    +0.000 C 
ATOM      3  O   UNL     1      -1.757   9.928  17.870  0.00  0.00    +0.000 OA
ATOM      4  C   UNL     1      -1.470  12.279  18.009  0.00  0.00    +0.000 C 
ATOM      5  C   UNL     1      -0.373  13.114  18.647  0.00  0.00    +0.000 C 
ATOM      6  C   UNL     1       0.660  12.098  19.078  0.00  0.00    +0.000 C 
ATOM      7  O   UNL     1       1.713  12.415  19.619  0.00  0.00    +0.000 OA
ENDROOT
BRANCH   1  11
ATOM      8  C   UNL     1       2.532   7.277  19.272  0.00  0.00    +0.000 A 
ATOM      9  C   UNL     1       2.487   7.941  18.053  0.00  0.00    +0.000 A 
ATOM     10  C   UNL     1       1.729   9.103  17.894  0.00  0.00    +0.000 A 
ATOM     11  C   UNL     1       0.981   9.638  18.947  0.00  0.00    +0.000 A 
ATOM     12  C   UNL     1       1.030   8.960  20.176  0.00  0.00    +0.000 A 
ATOM     13  C   UNL     1       1.789   7.789  20.335  0.00  0.00    +0.000 A 
BRANCH   8  14
ATOM     14  O   UNL     1       3.269   6.144  19.517  0.00  0.00    +0.000 OA
BRANCH  14  15
ATOM     15  C   UNL     1       3.612   5.417  18.334  0.00  0.00    +0.000 C 
BRANCH  15  17
ATOM     16  C   UNL     1       1.537   4.246  17.642  0.00  0.00    +0.000 C 
ATOM     17  C   UNL     1       2.908   4.071  18.278  0.00  0.00    +0.000 C 
ENDBRANCH  15  17
ENDBRANCH  14  15
ENDBRANCH   8  14
ENDBRANCH   1  11
BRANCH   5  18
ATOM     18  S   UNL     1      -1.022  14.039  20.071  0.00  0.00    +0.000 S 
BRANCH  18  19
ATOM     19  C   UNL     1      -2.258  12.956  20.703  0.00  0.00    +0.000 C 
ATOM     20  N   UNL     1      -2.037  12.041  21.578  0.00  0.00    +0.000 NA
ATOM     21  N   UNL     1      -3.515  13.228  20.230  0.00  0.00    +0.000 N 
ATOM     22  H   UNL     1      -3.584  13.743  19.364  0.00  0.00    +0.000 HD
BRANCH  21  23
ATOM     23  C   UNL     1      -4.701  13.178  20.989  0.00  0.00    +0.000 A 
ATOM     24  C   UNL     1      -5.746  12.338  20.577  0.00  0.00    +0.000 A 
ATOM     25  C   UNL     1      -6.916  12.216  21.338  0.00  0.00    +0.000 A 
ATOM     26  C   UNL     1      -7.058  12.938  22.520  0.00  0.00    +0.000 A 
ATOM     27  C   UNL     1      -6.026  13.770  22.933  0.00  0.00    +0.000 A 
ATOM     28  F   UNL     1      -6.160  14.472  24.066  0.00  0.00    +0.000 F 
ATOM     29  C   UNL     1      -4.856  13.886  22.190  0.00  0.00    +0.000 A 
ENDBRANCH  21  23
BRANCH  20  30
ATOM     30  C   UNL     1      -0.752  11.792  22.195  0.00  0.00    +0.000 C 
ATOM     31  C   UNL     1      -0.889  10.536  23.049  0.00  0.00    +0.000 C 
ENDBRANCH  20  30
ENDBRANCH  18  19
ENDBRANCH   5  18
TORSDOF 8
ENDMDL
MODEL 4
REMARK VINA RESULT:      -8.1      3.984      9.113
REMARK  Name = 
REMARK  10 active torsions:
REMARK  status: ('A' for Active; 'I' for Inactive)
REMARK    1  A    between atoms: C_1  and  C_2
REMARK    2  A    between atoms: C_2  and  C_3
REMARK    3  A    between atoms: C_3  and  O_4
REMARK    4  A    between atoms: O_4  and  C_5
REMARK    5  A    between atoms: C_8  and  N_9
REMARK    6  A    between atoms: C_13  and  S_14
REMARK    7  A    between atoms: S_14  and  C_15
REMARK    8  A    between atoms: N_16  and  C_17
REMARK    9  A    between atoms: C_17  and  C_18
REMARK   10  A    between atoms: N_19  and  C_20
REMARK                            x       y       z     vdW  Elec       q    Type
REMARK                         _______ _______ _______ _____ _____    ______ ____
ROOT
ATOM      1  N   UNL     1       2.708   6.939  18.714  0.00  0.00    +0.000 N 
ATOM      2  C   UNL     1       2.329   6.549  19.980  0.00  0.00    +0.000 C 
ATOM      3  O   UNL     1       2.768   5.641  20.676  0.00  0.00    +0.000 OA
ATOM      4  C   UNL     1       1.241   7.445  20.477  0.00  0.00    +0.000 C 
ATOM      5  C   UNL     1       1.090   8.511  19.405  0.00  0.00    +0.000 C 
ATOM      6  C   UNL     1       2.064   8.091  18.328  0.00  0.00    +0.000 C 
ATOM      7  O   UNL     1       2.200   8.714  17.281  0.00  0.00    +0.000 OA
ENDROOT
BRANCH   1  11
ATOM      8  C   UNL     1       5.593   4.864  16.347  0.00  0.00    +0.000 A 
ATOM      9  C   UNL     1       5.751   6.204  16.676  0.00  0.00    +0.000 A 
ATOM     10  C   UNL     1       4.799   6.871  17.450  0.00  0.00    +0.000 A 
ATOM     11  C   UNL     1       3.650   6.225  17.915  0.00  0.00    +0.000 A 
ATOM     12  C   UNL     1       3.497   4.870  17.576  0.00  0.00    +0.000 A 
ATOM     13  C   UNL     1       4.452   4.199  16.795  0.00  0.00    +0.000 A 
BRANCH   8  14
ATOM     14  O   UNL     1       6.491   4.130  15.611  0.00  0.00    +0.000 OA
BRANCH  14  15
ATOM     15  C   UNL     1       6.642   4.591  14.266  0.00  0.00    +0.000 C 
BRANCH  15  17
ATOM     16  C   UNL     1       6.497   3.271  12.170  0.00  0.00    +0.000 C 
ATOM     17  C   UNL     1       5.698   3.873  13.317  0.00  0.00    +0.000 C 
ENDBRANCH  15  17
ENDBRANCH  14  15
ENDBRANCH   8  14
ENDBRANCH   1  11
BRANCH   5  18
ATOM     18  S   UNL     1       1.508  10.150  20.072  0.00  0.00    +0.000 S 
BRANCH  18  19
ATOM     19  C   UNL     1       0.191  11.155  19.476  0.00  0.00    +0.000 C 
ATOM     20  N   UNL     1       0.322  12.386  19.129  0.00  0.00    +0.000 NA
ATOM     21  N   UNL     1      -0.992  10.479  19.339  0.00  0.00    +0.000 N 
ATOM     22  H   UNL     1      -1.108   9.631  19.877  0.00  0.00    +0.000 HD
BRANCH  21  23
ATOM     23  C   UNL     1      -1.907  10.641  18.280  0.00  0.00    +0.000 A 
ATOM     24  C   UNL     1      -1.718   9.919  17.092  0.00  0.00    +0.000 A 
ATOM     25  C   UNL     1      -2.639  10.008  16.039  0.00  0.00    +0.000 A 
ATOM     26  C   UNL     1      -3.759  10.825  16.160  0.00  0.00    +0.000 A 
ATOM     27  C   UNL     1      -3.951  11.541  17.334  0.00  0.00    +0.000 A 
ATOM     28  F   UNL     1      -5.025  12.335  17.453  0.00  0.00    +0.000 F 
ATOM     29  C   UNL     1      -3.049  11.448  18.388  0.00  0.00    +0.000 A 
ENDBRANCH  21  23
BRANCH  20  30
ATOM     30  C   UNL     1       1.574  13.111  19.142  0.00  0.00    +0.000 C 
ATOM     31  C   UNL     1       1.274  14.553  18.748  0.00  0.00    +0.000 C 
ENDBRANCH  20  30
ENDBRANCH  18  19
ENDBRANCH   5  18
TORSDOF 8
ENDMDL
MODEL 5
REMARK VINA RESULT:      -8.1      6.028     11.290
REMARK  Name = 
REMARK  10 active torsions:
REMARK  status: ('A' for Active; 'I' for Inactive)
REMARK    1  A    between atoms: C_1  and  C_2
REMARK    2  A    between atoms: C_2  and  C_3
REMARK    3  A    between atoms: C_3  and  O_4
REMARK    4  A    between atoms: O_4  and  C_5
REMARK    5  A    between atoms: C_8  and  N_9
REMARK    6  A    between atoms: C_13  and  S_14
REMARK    7  A    between atoms: S_14  and  C_15
REMARK    8  A    between atoms: N_16  and  C_17
REMARK    9  A    between atoms: C_17  and  C_18
REMARK   10  A    between atoms: N_19  and  C_20
REMARK                            x       y       z     vdW  Elec       q    Type
REMARK                         _______ _______ _______ _____ _____    ______ ____
ROOT
ATOM      1  N   UNL     1       0.217  10.866  18.795  0.00  0.00    +0.000 N 
ATOM      2  C   UNL     1      -1.031  10.921  18.212  0.00  0.00    +0.000 C 
ATOM      3  O   UNL     1      -1.780  10.003  17.897  0.00  0.00    +0.000 OA
ATOM      4  C   UNL     1      -1.429  12.347  18.008  0.00  0.00    +0.000 C 
ATOM      5  C   UNL     1      -0.320  13.160  18.654  0.00  0.00    +0.000 C 
ATOM      6  C   UNL     1       0.677  12.122  19.117  0.00  0.00    +0.000 C 
ATOM      7  O   UNL     1       1.729  12.417  19.672  0.00  0.00    +0.000 OA
ENDROOT
BRANCH   1  11
ATOM      8  C   UNL     1       2.405   7.252  19.406  0.00  0.00    +0.000 A 
ATOM      9  C   UNL     1       2.349   7.866  18.162  0.00  0.00    +0.000 A 
ATOM     10  C   UNL     1       1.629   9.048  17.975  0.00  0.00    +0.000 A 
ATOM     11  C   UNL     1       0.930   9.652  19.025  0.00  0.00    +0.000 A 
ATOM     12  C   UNL     1       0.990   9.023  20.279  0.00  0.00    +0.000 A 
ATOM     13  C   UNL     1       1.712   7.833  20.467  0.00  0.00    +0.000 A 
BRANCH   8  14
ATOM     14  O   UNL     1       3.108   6.103  19.678  0.00  0.00    +0.000 OA
BRANCH  14  15
ATOM     15  C   UNL     1       2.947   5.084  18.688  0.00  0.00    +0.000 C 
BRANCH  15  17
ATOM     16  C   UNL     1       1.478   4.103  20.430  0.00  0.00    +0.000 C 
ATOM     17  C   UNL     1       1.696   4.257  18.932  0.00  0.00    +0.000 C 
ENDBRANCH  15  17
ENDBRANCH  14  15
ENDBRANCH   8  14
ENDBRANCH   1  11
BRANCH   5  18
ATOM     18  S   UNL     1      -0.967  14.123  20.054  0.00  0.00    +0.000 S 
BRANCH  18  19
ATOM     19  C   UNL     1      -2.255  13.093  20.668  0.00  0.00    +0.000 C 
ATOM     20  N   UNL     1      -2.103  12.232  21.610  0.00  0.00    +0.000 NA
ATOM     21  N   UNL     1      -3.474  13.344  20.096  0.00  0.00    +0.000 N 
ATOM     22  H   UNL     1      -3.479  13.804  19.197  0.00  0.00    +0.000 HD
BRANCH  21  23
ATOM     23  C   UNL     1      -4.708  13.352  20.776  0.00  0.00    +0.000 A 
ATOM     24  C   UNL     1      -5.062  14.470  21.546  0.00  0.00    +0.000 A 
ATOM     25  C   UNL     1      -6.305  14.541  22.187  0.00  0.00    +0.000 A 
ATOM     26  C   UNL     1      -7.210  13.489  22.072  0.00  0.00    +0.000 A 
ATOM     27  C   UNL     1      -6.866  12.381  21.311  0.00  0.00    +0.000 A 
ATOM     28  F   UNL     1      -7.730  11.363  21.201  0.00  0.00    +0.000 F 
ATOM     29  C   UNL     1      -5.639  12.310  20.660  0.00  0.00    +0.000 A 
ENDBRANCH  21  23
BRANCH  20  30
ATOM     30  C   UNL     1      -0.865  12.012  22.327  0.00  0.00    +0.000 C 
ATOM     31  C   UNL     1      -0.994  10.688  23.072  0.00  0.00    +0.000 C 
ENDBRANCH  20  30
ENDBRANCH  18  19
ENDBRANCH   5  18
TORSDOF 8
ENDMDL
MODEL 6
REMARK VINA RESULT:      -8.0      3.444      8.876
REMARK  Name = 
REMARK  10 active torsions:
REMARK  status: ('A' for Active; 'I' for Inactive)
REMARK    1  A    between atoms: C_1  and  C_2
REMARK    2  A    between atoms: C_2  and  C_3
REMARK    3  A    between atoms: C_3  and  O_4
REMARK    4  A    between atoms: O_4  and  C_5
REMARK    5  A    between atoms: C_8  and  N_9
REMARK    6  A    between atoms: C_13  and  S_14
REMARK    7  A    between atoms: S_14  and  C_15
REMARK    8  A    between atoms: N_16  and  C_17
REMARK    9  A    between atoms: C_17  and  C_18
REMARK   10  A    between atoms: N_19  and  C_20
REMARK                            x       y       z     vdW  Elec       q    Type
REMARK                         _______ _______ _______ _____ _____    ______ ____
ROOT
ATOM      1  N   UNL     1       2.989   6.850  18.540  0.00  0.00    +0.000 N 
ATOM      2  C   UNL     1       2.666   6.318  19.770  0.00  0.00    +0.000 C 
ATOM      3  O   UNL     1       3.182   5.382  20.370  0.00  0.00    +0.000 OA
ATOM      4  C   UNL     1       1.531   7.086  20.367  0.00  0.00    +0.000 C 
ATOM      5  C   UNL     1       1.283   8.233  19.403  0.00  0.00    +0.000 C 
ATOM      6  C   UNL     1       2.259   7.985  18.276  0.00  0.00    +0.000 C 
ATOM      7  O   UNL     1       2.328   8.710  17.290  0.00  0.00    +0.000 OA
ENDROOT
BRANCH   1  11
ATOM      8  C   UNL     1       5.825   5.083  15.883  0.00  0.00    +0.000 A 
ATOM      9  C   UNL     1       4.711   4.383  16.327  0.00  0.00    +0.000 A 
ATOM     10  C   UNL     1       3.791   4.973  17.197  0.00  0.00    +0.000 A 
ATOM     11  C   UNL     1       3.958   6.280  17.662  0.00  0.00    +0.000 A 
ATOM     12  C   UNL     1       5.089   6.980  17.210  0.00  0.00    +0.000 A 
ATOM     13  C   UNL     1       6.016   6.387  16.337  0.00  0.00    +0.000 A 
BRANCH   8  14
ATOM     14  O   UNL     1       6.763   4.585  15.011  0.00  0.00    +0.000 OA
BRANCH  14  15
ATOM     15  C   UNL     1       6.204   3.799  13.955  0.00  0.00    +0.000 C 
BRANCH  15  17
ATOM     16  C   UNL     1       7.894   5.203  12.803  0.00  0.00    +0.000 C 
ATOM     17  C   UNL     1       6.786   4.178  12.604  0.00  0.00    +0.000 C 
ENDBRANCH  15  17
ENDBRANCH  14  15
ENDBRANCH   8  14
ENDBRANCH   1  11
BRANCH   5  18
ATOM     18  S   UNL     1       1.604   9.829  20.214  0.00  0.00    +0.000 S 
BRANCH  18  19
ATOM     19  C   UNL     1       0.482  10.910  19.394  0.00  0.00    +0.000 C 
ATOM     20  N   UNL     1       0.842  11.908  18.670  0.00  0.00    +0.000 NA
ATOM     21  N   UNL     1      -0.830  10.543  19.535  0.00  0.00    +0.000 N 
ATOM     22  H   UNL     1      -1.065   9.950  20.318  0.00  0.00    +0.000 HD
BRANCH  21  23
ATOM     23  C   UNL     1      -1.809  10.610  18.524  0.00  0.00    +0.000 A 
ATOM     24  C   UNL     1      -2.907  11.467  18.685  0.00  0.00    +0.000 A 
ATOM     25  C   UNL     1      -3.869  11.606  17.676  0.00  0.00    +0.000 A 
ATOM     26  C   UNL     1      -3.747  10.882  16.493  0.00  0.00    +0.000 A 
ATOM     27  C   UNL     1      -2.662  10.033  16.327  0.00  0.00    +0.000 A 
ATOM     28  F   UNL     1      -2.543   9.330  15.193  0.00  0.00    +0.000 F 
ATOM     29  C   UNL     1      -1.696   9.901  17.319  0.00  0.00    +0.000 A 
ENDBRANCH  21  23
BRANCH  20  30
ATOM     30  C   UNL     1       2.216  12.267  18.393  0.00  0.00    +0.000 C 
ATOM     31  C   UNL     1       2.269  13.779  18.209  0.00  0.00    +0.000 C 
ENDBRANCH  20  30
ENDBRANCH  18  19
ENDBRANCH   5  18
TORSDOF 8
ENDMDL
MODEL 7
REMARK VINA RESULT:      -7.9      5.752     11.333
REMARK  Name = 
REMARK  10 active torsions:
REMARK  status: ('A' for Active; 'I' for Inactive)
REMARK    1  A    between atoms: C_1  and  C_2
REMARK    2  A    between atoms: C_2  and  C_3
REMARK    3  A    between atoms: C_3  and  O_4
REMARK    4  A    between atoms: O_4  and  C_5
REMARK    5  A    between atoms: C_8  and  N_9
REMARK    6  A    between atoms: C_13  and  S_14
REMARK    7  A    between atoms: S_14  and  C_15
REMARK    8  A    between atoms: N_16  and  C_17
REMARK    9  A    between atoms: C_17  and  C_18
REMARK   10  A    between atoms: N_19  and  C_20
REMARK                            x       y       z     vdW  Elec       q    Type
REMARK                         _______ _______ _______ _____ _____    ______ ____
ROOT
ATOM      1  N   UNL     1       0.230  10.745  18.736  0.00  0.00    +0.000 N 
ATOM      2  C   UNL     1      -1.025  10.771  18.167  0.00  0.00    +0.000 C 
ATOM      3  O   UNL     1      -1.756   9.836  17.859  0.00  0.00    +0.000 OA
ATOM      4  C   UNL     1      -1.459  12.187  17.968  0.00  0.00    +0.000 C 
ATOM      5  C   UNL     1      -0.362  13.026  18.603  0.00  0.00    +0.000 C 
ATOM      6  C   UNL     1       0.664  12.011  19.054  0.00  0.00    +0.000 C 
ATOM      7  O   UNL     1       1.715  12.331  19.597  0.00  0.00    +0.000 OA
ENDROOT
BRANCH   1  11
ATOM      8  C   UNL     1       2.404   7.146  19.473  0.00  0.00    +0.000 A 
ATOM      9  C   UNL     1       1.704   7.792  20.483  0.00  0.00    +0.000 A 
ATOM     10  C   UNL     1       0.997   8.969  20.229  0.00  0.00    +0.000 A 
ATOM     11  C   UNL     1       0.974   9.548  18.957  0.00  0.00    +0.000 A 
ATOM     12  C   UNL     1       1.687   8.890  17.941  0.00  0.00    +0.000 A 
ATOM     13  C   UNL     1       2.400   7.707  18.197  0.00  0.00    +0.000 A 
BRANCH   8  14
ATOM     14  O   UNL     1       3.103   5.974  19.634  0.00  0.00    +0.000 OA
BRANCH  14  15
ATOM     15  C   UNL     1       4.222   5.848  18.753  0.00  0.00    +0.000 C 
BRANCH  15  17
ATOM     16  C   UNL     1       4.098   4.162  16.937  0.00  0.00    +0.000 C 
ATOM     17  C   UNL     1       4.490   4.397  18.388  0.00  0.00    +0.000 C 
ENDBRANCH  15  17
ENDBRANCH  14  15
ENDBRANCH   8  14
ENDBRANCH   1  11
BRANCH   5  18
ATOM     18  S   UNL     1      -1.016  13.973  20.010  0.00  0.00    +0.000 S 
BRANCH  18  19
ATOM     19  C   UNL     1      -2.251  12.898  20.657  0.00  0.00    +0.000 C 
ATOM     20  N   UNL     1      -2.040  12.030  21.582  0.00  0.00    +0.000 NA
ATOM     21  N   UNL     1      -3.497  13.121  20.135  0.00  0.00    +0.000 N 
ATOM     22  H   UNL     1      -3.549  13.593  19.243  0.00  0.00    +0.000 HD
BRANCH  21  23
ATOM     23  C   UNL     1      -4.705  13.085  20.860  0.00  0.00    +0.000 A 
ATOM     24  C   UNL     1      -5.723  12.208  20.457  0.00  0.00    +0.000 A 
ATOM     25  C   UNL     1      -6.913  12.100  21.188  0.00  0.00    +0.000 A 
ATOM     26  C   UNL     1      -7.102  12.873  22.330  0.00  0.00    +0.000 A 
ATOM     27  C   UNL     1      -6.098  13.742  22.734  0.00  0.00    +0.000 A 
ATOM     28  F   UNL     1      -6.278  14.493  23.829  0.00  0.00    +0.000 F 
ATOM     29  C   UNL     1      -4.909  13.844  22.021  0.00  0.00    +0.000 A 
ENDBRANCH  21  23
BRANCH  20  30
ATOM     30  C   UNL     1      -0.770  11.836  22.249  0.00  0.00    +0.000 C 
ATOM     31  C   UNL     1      -0.882  10.571  23.091  0.00  0.00    +0.000 C 
ENDBRANCH  20  30
ENDBRANCH  18  19
ENDBRANCH   5  18
TORSDOF 8
ENDMDL
MODEL 8
REMARK VINA RESULT:      -7.8      5.733     11.396
REMARK  Name = 
REMARK  10 active torsions:
REMARK  status: ('A' for Active; 'I' for Inactive)
REMARK    1  A    between atoms: C_1  and  C_2
REMARK    2  A    between atoms: C_2  and  C_3
REMARK    3  A    between atoms: C_3  and  O_4
REMARK    4  A    between atoms: O_4  and  C_5
REMARK    5  A    between atoms: C_8  and  N_9
REMARK    6  A    between atoms: C_13  and  S_14
REMARK    7  A    between atoms: S_14  and  C_15
REMARK    8  A    between atoms: N_16  and  C_17
REMARK    9  A    between atoms: C_17  and  C_18
REMARK   10  A    between atoms: N_19  and  C_20
REMARK                            x       y       z     vdW  Elec       q    Type
REMARK                         _______ _______ _______ _____ _____    ______ ____
ROOT
ATOM      1  N   UNL     1       0.189  10.814  18.804  0.00  0.00    +0.000 N 
ATOM      2  C   UNL     1      -1.068  10.844  18.239  0.00  0.00    +0.000 C 
ATOM      3  O   UNL     1      -1.802   9.912  17.931  0.00  0.00    +0.000 OA
ATOM      4  C   UNL     1      -1.499  12.262  18.046  0.00  0.00    +0.000 C 
ATOM      5  C   UNL     1      -0.398  13.096  18.679  0.00  0.00    +0.000 C 
ATOM      6  C   UNL     1       0.627  12.078  19.123  0.00  0.00    +0.000 C 
ATOM      7  O   UNL     1       1.680  12.394  19.664  0.00  0.00    +0.000 OA
ENDROOT
BRANCH   1  11
ATOM      8  C   UNL     1       2.356   7.207  19.523  0.00  0.00    +0.000 A 
ATOM      9  C   UNL     1       1.642   7.840  20.532  0.00  0.00    +0.000 A 
ATOM     10  C   UNL     1       0.938   9.020  20.284  0.00  0.00    +0.000 A 
ATOM     11  C   UNL     1       0.931   9.615  19.019  0.00  0.00    +0.000 A 
ATOM     12  C   UNL     1       1.658   8.970  18.004  0.00  0.00    +0.000 A 
ATOM     13  C   UNL     1       2.368   7.785  18.254  0.00  0.00    +0.000 A 
BRANCH   8  14
ATOM     14  O   UNL     1       3.054   6.034  19.679  0.00  0.00    +0.000 OA
BRANCH  14  15
ATOM     15  C   UNL     1       3.995   5.783  18.631  0.00  0.00    +0.000 C 
BRANCH  15  17
ATOM     16  C   UNL     1       4.866   3.539  19.231  0.00  0.00    +0.000 C 
ATOM     17  C   UNL     1       4.017   4.317  18.235  0.00  0.00    +0.000 C 
ENDBRANCH  15  17
ENDBRANCH  14  15
ENDBRANCH   8  14
ENDBRANCH   1  11
BRANCH   5  18
ATOM     18  S   UNL     1      -1.046  14.041  20.091  0.00  0.00    +0.000 S 
BRANCH  18  19
ATOM     19  C   UNL     1      -2.302  12.981  20.720  0.00  0.00    +0.000 C 
ATOM     20  N   UNL     1      -2.122  12.131  21.667  0.00  0.00    +0.000 NA
ATOM     21  N   UNL     1      -3.531  13.195  20.154  0.00  0.00    +0.000 N 
ATOM     22  H   UNL     1      -3.554  13.649  19.252  0.00  0.00    +0.000 HD
BRANCH  21  23
ATOM     23  C   UNL     1      -4.761  13.175  20.843  0.00  0.00    +0.000 A 
ATOM     24  C   UNL     1      -5.044  14.186  21.773  0.00  0.00    +0.000 A 
ATOM     25  C   UNL     1      -6.279  14.234  22.432  0.00  0.00    +0.000 A 
ATOM     26  C   UNL     1      -7.246  13.266  22.173  0.00  0.00    +0.000 A 
ATOM     27  C   UNL     1      -6.971  12.265  21.252  0.00  0.00    +0.000 A 
ATOM     28  F   UNL     1      -7.896  11.327  21.003  0.00  0.00    +0.000 F 
ATOM     29  C   UNL     1      -5.753  12.219  20.584  0.00  0.00    +0.000 A 
ENDBRANCH  21  23
BRANCH  20  30
ATOM     30  C   UNL     1      -0.874  11.949  22.377  0.00  0.00    +0.000 C 
ATOM     31  C   UNL     1      -0.930  10.590  23.064  0.00  0.00    +0.000 C 
ENDBRANCH  20  30
ENDBRANCH  18  19
ENDBRANCH   5  18
TORSDOF 8
ENDMDL
MODEL 9
REMARK VINA RESULT:      -7.8      0.913      1.504
REMARK  Name = 
REMARK  10 active torsions:
REMARK  status: ('A' for Active; 'I' for Inactive)
REMARK    1  A    between atoms: C_1  and  C_2
REMARK    2  A    between atoms: C_2  and  C_3
REMARK    3  A    between atoms: C_3  and  O_4
REMARK    4  A    between atoms: O_4  and  C_5
REMARK    5  A    between atoms: C_8  and  N_9
REMARK    6  A    between atoms: C_13  and  S_14
REMARK    7  A    between atoms: S_14  and  C_15
REMARK    8  A    between atoms: N_16  and  C_17
REMARK    9  A    between atoms: C_17  and  C_18
REMARK   10  A    between atoms: N_19  and  C_20
REMARK                            x       y       z     vdW  Elec       q    Type
REMARK                         _______ _______ _______ _____ _____    ______ ____
ROOT
ATOM      1  N   UNL     1       2.748   6.449  19.356  0.00  0.00    +0.000 N 
ATOM      2  C   UNL     1       2.319   5.411  20.155  0.00  0.00    +0.000 C 
ATOM      3  O   UNL     1       1.256   5.280  20.751  0.00  0.00    +0.000 OA
ATOM      4  C   UNL     1       3.369   4.349  20.206  0.00  0.00    +0.000 C 
ATOM      5  C   UNL     1       4.443   4.812  19.236  0.00  0.00    +0.000 C 
ATOM      6  C   UNL     1       3.951   6.159  18.757  0.00  0.00    +0.000 C 
ATOM      7  O   UNL     1       4.585   6.850  17.968  0.00  0.00    +0.000 OA
ENDROOT
BRANCH   1  11
ATOM      8  C   UNL     1       0.602  10.116  18.936  0.00  0.00    +0.000 A 
ATOM      9  C   UNL     1       0.798   9.526  20.178  0.00  0.00    +0.000 A 
ATOM     10  C   UNL     1       1.501   8.326  20.301  0.00  0.00    +0.000 A 
ATOM     11  C   UNL     1       2.025   7.667  19.185  0.00  0.00    +0.000 A 
ATOM     12  C   UNL     1       1.820   8.268  17.932  0.00  0.00    +0.000 A 
ATOM     13  C   UNL     1       1.110   9.474  17.807  0.00  0.00    +0.000 A 
BRANCH   8  14
ATOM     14  O   UNL     1      -0.057  11.304  18.731  0.00  0.00    +0.000 OA
BRANCH  14  15
ATOM     15  C   UNL     1      -0.268  12.056  19.929  0.00  0.00    +0.000 C 
BRANCH  15  17
ATOM     16  C   UNL     1       0.382  14.160  18.786  0.00  0.00    +0.000 C 
ATOM     17  C   UNL     1       0.640  13.273  19.995  0.00  0.00    +0.000 C 
ENDBRANCH  15  17
ENDBRANCH  14  15
ENDBRANCH   8  14
ENDBRANCH   1  11
BRANCH   5  18
ATOM     18  S   UNL     1       4.605   3.639  17.856  0.00  0.00    +0.000 S 
BRANCH  18  19
ATOM     19  C   UNL     1       5.722   4.468  16.776  0.00  0.00    +0.000 C 
ATOM     20  N   UNL     1       6.909   4.831  17.107  0.00  0.00    +0.000 NA
ATOM     21  N   UNL     1       5.235   4.627  15.506  0.00  0.00    +0.000 N 
ATOM     22  H   UNL     1       4.233   4.587  15.384  0.00  0.00    +0.000 HD
BRANCH  21  23
ATOM     23  C   UNL     1       5.985   4.485  14.321  0.00  0.00    +0.000 A 
ATOM     24  C   UNL     1       5.564   3.568  13.347  0.00  0.00    +0.000 A 
ATOM     25  C   UNL     1       6.249   3.442  12.131  0.00  0.00    +0.000 A 
ATOM     26  C   UNL     1       7.368   4.229  11.877  0.00  0.00    +0.000 A 
ATOM     27  C   UNL     1       7.788   5.139  12.837  0.00  0.00    +0.000 A 
ATOM     28  F   UNL     1       8.869   5.895  12.600  0.00  0.00    +0.000 F 
ATOM     29  C   UNL     1       7.106   5.279  14.040  0.00  0.00    +0.000 A 
ENDBRANCH  21  23
BRANCH  20  30
ATOM     30  C   UNL     1       7.512   4.582  18.399  0.00  0.00    +0.000 C 
ATOM     31  C   UNL     1       7.886   5.932  19.000  0.00  0.00    +0.000 C 
ENDBRANCH  20  30
ENDBRANCH  18  19
ENDBRANCH   5  18
TORSDOF 8
ENDMDL
