MODEL 1
REMARK VINA RESULT:      -8.2      0.000      0.000
REMARK  Name = 
REMARK  5 active torsions:
REMARK  status: ('A' for Active; 'I' for Inactive)
REMARK    1  A    between atoms: C_1  and  C_2
REMARK    2  A    between atoms: C_12  and  N_13
REMARK    3  A    between atoms: N_13  and  C_14
REMARK    4  A    between atoms: C_14  and  C_15
REMARK    5  A    between atoms: C_25  and  C_26
REMARK                            x       y       z     vdW  Elec       q    Type
REMARK                         _______ _______ _______ _____ _____    ______ ____
ROOT
ATOM      1  C   UNL     1       5.598   3.886  16.004  0.00  0.00    +0.000 C 
ATOM      2  C   UNL     1       4.838   4.580  17.112  0.00  0.00    +0.000 A 
ATOM      3  C   UNL     1       4.391   3.938  18.290  0.00  0.00    +0.000 A 
ATOM      4  C   UNL     1       3.532   4.570  19.191  0.00  0.00    +0.000 A 
ATOM      5  N   UNL     1       2.963   4.064  20.331  0.00  0.00    +0.000 NA
ATOM      6  C   UNL     1       2.261   5.065  20.811  0.00  0.00    +0.000 A 
ATOM      7  N   UNL     1       2.315   6.166  19.994  0.00  0.00    +0.000 N 
ATOM      8  C   UNL     1       1.669   7.390  20.225  0.00  0.00    +0.000 A 
ATOM      9  N   UNL     1       1.412   7.736  21.494  0.00  0.00    +0.000 NA
ATOM     10  C   UNL     1       1.105   9.030  21.671  0.00  0.00    +0.000 A 
ATOM     11  C   UNL     1       0.970   9.930  20.633  0.00  0.00    +0.000 A 
ATOM     12  C   UNL     1       1.093   9.434  19.356  0.00  0.00    +0.000 A 
ATOM     13  N   UNL     1       1.484   8.178  19.157  0.00  0.00    +0.000 NA
ATOM     14  C   UNL     1       3.163   5.874  18.941  0.00  0.00    +0.000 A 
ATOM     15  C   UNL     1       3.693   6.602  17.859  0.00  0.00    +0.000 A 
ATOM     16  C   UNL     1       4.545   5.942  16.952  0.00  0.00    +0.000 A 
ATOM     17  C   UNL     1       5.114   6.692  15.774  0.00  0.00    +0.000 C 
ENDROOT
BRANCH  12  18
ATOM     18  N   UNL     1       0.973  10.275  18.250  0.00  0.00    +0.000 N 
ATOM     19  H   UNL     1       1.869  10.459  17.817  0.00  0.00    +0.000 HD
BRANCH  18  20
ATOM     20  C   UNL     1       0.230  11.514  18.474  0.00  0.00    +0.000 C 
BRANCH  20  21
ATOM     21  C   UNL     1      -1.239  11.224  18.285  0.00  0.00    +0.000 A 
ATOM     22  C   UNL     1      -1.637  10.200  17.409  0.00  0.00    +0.000 A 
ATOM     23  C   UNL     1      -2.989   9.964  17.169  0.00  0.00    +0.000 A 
ATOM     24  C   UNL     1      -3.940  10.753  17.801  0.00  0.00    +0.000 A 
ATOM     25  F   UNL     1      -5.240  10.542  17.552  0.00  0.00    +0.000 F 
ATOM     26  C   UNL     1      -3.569  11.764  18.680  0.00  0.00    +0.000 A 
ATOM     27  C   UNL     1      -2.214  12.002  18.924  0.00  0.00    +0.000 A 
ENDBRANCH  20  21
ENDBRANCH  18  20
ENDBRANCH  12  18
TORSDOF 3
ENDMDL
MODEL 2
REMARK VINA RESULT:      -8.1      5.059      8.223
REMARK  Name = 
REMARK  5 active torsions:
REMARK  status: ('A' for Active; 'I' for Inactive)
REMARK    1  A    between atoms: C_1  and  C_2
REMARK    2  A    between atoms: C_12  and  N_13
REMARK    3  A    between atoms: N_13  and  C_14
REMARK    4  A    between atoms: C_14  and  C_15
REMARK    5  A    between atoms: C_25  and  C_26
REMARK                            x       y       z     vdW  Elec       q    Type
REMARK                         _______ _______ _______ _____ _____    ______ ____
ROOT
ATOM      1  C   UNL     1      -2.737  10.098  14.927  0.00  0.00    +0.000 C 
ATOM      2  C   UNL     1      -3.375  10.632  16.190  0.00  0.00    +0.000 A 
ATOM      3  C   UNL     1      -4.639  11.266  16.234  0.00  0.00    +0.000 A 
ATOM      4  C   UNL     1      -5.100  11.910  17.383  0.00  0.00    +0.000 A 
ATOM      5  N   UNL     1      -6.259  12.618  17.561  0.00  0.00    +0.000 NA
ATOM      6  C   UNL     1      -6.214  12.998  18.818  0.00  0.00    +0.000 A 
ATOM      7  N   UNL     1      -5.048  12.608  19.428  0.00  0.00    +0.000 N 
ATOM      8  C   UNL     1      -4.697  12.864  20.763  0.00  0.00    +0.000 A 
ATOM      9  N   UNL     1      -5.685  13.024  21.654  0.00  0.00    +0.000 NA
ATOM     10  C   UNL     1      -5.302  12.935  22.936  0.00  0.00    +0.000 A 
ATOM     11  C   UNL     1      -3.987  12.782  23.331  0.00  0.00    +0.000 A 
ATOM     12  C   UNL     1      -3.033  12.795  22.341  0.00  0.00    +0.000 A 
ATOM     13  N   UNL     1      -3.392  12.792  21.060  0.00  0.00    +0.000 NA
ATOM     14  C   UNL     1      -4.315  11.872  18.516  0.00  0.00    +0.000 A 
ATOM     15  C   UNL     1      -3.117  11.135  18.565  0.00  0.00    +0.000 A 
ATOM     16  C   UNL     1      -2.661  10.505  17.390  0.00  0.00    +0.000 A 
ATOM     17  C   UNL     1      -1.372   9.723  17.409  0.00  0.00    +0.000 C 
ENDROOT
BRANCH  12  18
ATOM     18  N   UNL     1      -1.681  12.645  22.651  0.00  0.00    +0.000 N 
ATOM     19  H   UNL     1      -1.086  12.899  21.874  0.00  0.00    +0.000 HD
BRANCH  18  20
ATOM     20  C   UNL     1      -1.300  11.347  23.206  0.00  0.00    +0.000 C 
BRANCH  20  21
ATOM     21  C   UNL     1      -0.533  10.590  22.148  0.00  0.00    +0.000 A 
ATOM     22  C   UNL     1      -0.311   9.212  22.305  0.00  0.00    +0.000 A 
ATOM     23  C   UNL     1       0.454   8.511  21.374  0.00  0.00    +0.000 A 
ATOM     24  C   UNL     1       0.996   9.189  20.291  0.00  0.00    +0.000 A 
ATOM     25  F   UNL     1       1.752   8.521  19.409  0.00  0.00    +0.000 F 
ATOM     26  C   UNL     1       0.780  10.551  20.111  0.00  0.00    +0.000 A 
ATOM     27  C   UNL     1       0.013  11.256  21.041  0.00  0.00    +0.000 A 
ENDBRANCH  20  21
ENDBRANCH  18  20
ENDBRANCH  12  18
TORSDOF 3
ENDMDL
MODEL 3
REMARK VINA RESULT:      -8.0      5.136      8.316
REMARK  Name = 
REMARK  5 active torsions:
REMARK  status: ('A' for Active; 'I' for Inactive)
REMARK    1  A    between atoms: C_1  and  C_2
REMARK    2  A    between atoms: C_12  and  N_13
REMARK    3  A    between atoms: N_13  and  C_14
REMARK    4  A    between atoms: C_14  and  C_15
REMARK    5  A    between atoms: C_25  and  C_26
REMARK                            x       y       z     vdW  Elec       q    Type
REMARK                         _______ _______ _______ _____ _____    ______ ____
ROOT
ATOM      1  C   UNL     1      -3.094  10.595  15.215  0.00  0.00    +0.000 C 
ATOM      2  C   UNL     1      -3.632  10.987  16.573  0.00  0.00    +0.000 A 
ATOM      3  C   UNL     1      -4.930  11.505  16.793  0.00  0.00    +0.000 A 
ATOM      4  C   UNL     1      -5.313  12.030  18.029  0.00  0.00    +0.000 A 
ATOM      5  N   UNL     1      -6.497  12.623  18.378  0.00  0.00    +0.000 NA
ATOM      6  C   UNL     1      -6.346  12.920  19.648  0.00  0.00    +0.000 A 
ATOM      7  N   UNL     1      -5.094  12.592  20.105  0.00  0.00    +0.000 N 
ATOM      8  C   UNL     1      -4.622  12.788  21.412  0.00  0.00    +0.000 A 
ATOM      9  N   UNL     1      -5.518  12.803  22.408  0.00  0.00    +0.000 NA
ATOM     10  C   UNL     1      -4.993  12.661  23.635  0.00  0.00    +0.000 A 
ATOM     11  C   UNL     1      -3.635  12.595  23.881  0.00  0.00    +0.000 A 
ATOM     12  C   UNL     1      -2.797  12.756  22.802  0.00  0.00    +0.000 A 
ATOM     13  N   UNL     1      -3.292  12.808  21.568  0.00  0.00    +0.000 NA
ATOM     14  C   UNL     1      -4.410  11.983  19.069  0.00  0.00    +0.000 A 
ATOM     15  C   UNL     1      -3.159  11.350  18.940  0.00  0.00    +0.000 A 
ATOM     16  C   UNL     1      -2.784  10.841  17.681  0.00  0.00    +0.000 A 
ATOM     17  C   UNL     1      -1.444  10.173  17.509  0.00  0.00    +0.000 C 
ENDROOT
BRANCH  12  18
ATOM     18  N   UNL     1      -1.413  12.702  22.960  0.00  0.00    +0.000 N 
ATOM     19  H   UNL     1      -1.069  13.457  23.539  0.00  0.00    +0.000 HD
BRANCH  18  20
ATOM     20  C   UNL     1      -0.639  12.590  21.724  0.00  0.00    +0.000 C 
BRANCH  20  21
ATOM     21  C   UNL     1      -0.144  11.169  21.607  0.00  0.00    +0.000 A 
ATOM     22  C   UNL     1       0.526  10.762  20.441  0.00  0.00    +0.000 A 
ATOM     23  C   UNL     1       0.928   9.436  20.286  0.00  0.00    +0.000 A 
ATOM     24  C   UNL     1       0.659   8.521  21.294  0.00  0.00    +0.000 A 
ATOM     25  F   UNL     1       1.024   7.242  21.135  0.00  0.00    +0.000 F 
ATOM     26  C   UNL     1       0.008   8.905  22.461  0.00  0.00    +0.000 A 
ATOM     27  C   UNL     1      -0.396  10.233  22.620  0.00  0.00    +0.000 A 
ENDBRANCH  20  21
ENDBRANCH  18  20
ENDBRANCH  12  18
TORSDOF 3
ENDMDL
MODEL 4
REMARK VINA RESULT:      -7.9      2.885      7.655
REMARK  Name = 
REMARK  5 active torsions:
REMARK  status: ('A' for Active; 'I' for Inactive)
REMARK    1  A    between atoms: C_1  and  C_2
REMARK    2  A    between atoms: C_12  and  N_13
REMARK    3  A    between atoms: N_13  and  C_14
REMARK    4  A    between atoms: C_14  and  C_15
REMARK    5  A    between atoms: C_25  and  C_26
REMARK                            x       y       z     vdW  Elec       q    Type
REMARK                         _______ _______ _______ _____ _____    ______ ____
ROOT
ATOM      1  C   UNL     1      -4.454  11.613  15.987  0.00  0.00    +0.000 C 
ATOM      2  C   UNL     1      -3.615  11.369  17.221  0.00  0.00    +0.000 A 
ATOM      3  C   UNL     1      -3.622  12.203  18.363  0.00  0.00    +0.000 A 
ATOM      4  C   UNL     1      -2.694  12.047  19.395  0.00  0.00    +0.000 A 
ATOM      5  N   UNL     1      -2.531  12.807  20.522  0.00  0.00    +0.000 NA
ATOM      6  C   UNL     1      -1.540  12.228  21.160  0.00  0.00    +0.000 A 
ATOM      7  N   UNL     1      -1.031  11.165  20.457  0.00  0.00    +0.000 N 
ATOM      8  C   UNL     1       0.032  10.345  20.867  0.00  0.00    +0.000 A 
ATOM      9  N   UNL     1       0.253  10.212  22.181  0.00  0.00    +0.000 NA
ATOM     10  C   UNL     1       1.047   9.183  22.514  0.00  0.00    +0.000 A 
ATOM     11  C   UNL     1       1.669   8.369  21.588  0.00  0.00    +0.000 A 
ATOM     12  C   UNL     1       1.508   8.695  20.262  0.00  0.00    +0.000 A 
ATOM     13  N   UNL     1       0.656   9.653  19.904  0.00  0.00    +0.000 NA
ATOM     14  C   UNL     1      -1.789  11.011  19.311  0.00  0.00    +0.000 A 
ATOM     15  C   UNL     1      -1.832  10.069  18.266  0.00  0.00    +0.000 A 
ATOM     16  C   UNL     1      -2.765  10.253  17.226  0.00  0.00    +0.000 A 
ATOM     17  C   UNL     1      -2.822   9.269  16.085  0.00  0.00    +0.000 C 
ENDROOT
BRANCH  12  18
ATOM     18  N   UNL     1       2.099   7.926  19.260  0.00  0.00    +0.000 N 
ATOM     19  H   UNL     1       1.429   7.637  18.561  0.00  0.00    +0.000 HD
BRANCH  18  20
ATOM     20  C   UNL     1       2.901   6.794  19.723  0.00  0.00    +0.000 C 
BRANCH  20  21
ATOM     21  C   UNL     1       2.159   5.523  19.387  0.00  0.00    +0.000 A 
ATOM     22  C   UNL     1       1.544   4.786  20.414  0.00  0.00    +0.000 A 
ATOM     23  C   UNL     1       0.915   3.575  20.132  0.00  0.00    +0.000 A 
ATOM     24  C   UNL     1       0.902   3.102  18.827  0.00  0.00    +0.000 A 
ATOM     25  F   UNL     1       0.318   1.927  18.560  0.00  0.00    +0.000 F 
ATOM     26  C   UNL     1       1.494   3.821  17.794  0.00  0.00    +0.000 A 
ATOM     27  C   UNL     1       2.125   5.035  18.073  0.00  0.00    +0.000 A 
ENDBRANCH  20  21
ENDBRANCH  18  20
ENDBRANCH  12  18
TORSDOF 3
ENDMDL
MODEL 5
REMARK VINA RESULT:      -7.9      4.979      8.400
REMARK  Name = 
REMARK  5 active torsions:
REMARK  status: ('A' for Active; 'I' for Inactive)
REMARK    1  A    between atoms: C_1  and  C_2
REMARK    2  A    between atoms: C_12  and  N_13
REMARK    3  A    between atoms: N_13  and  C_14
REMARK    4  A    between atoms: C_14  and  C_15
REMARK    5  A    between atoms: C_25  and  C_26
REMARK                            x       y       z     vdW  Elec       q    Type
REMARK                         _______ _______ _______ _____ _____    ______ ____
ROOT
ATOM      1  C   UNL     1      -3.483  10.863  15.211  0.00  0.00    +0.000 C 
ATOM      2  C   UNL     1      -3.933  11.224  16.609  0.00  0.00    +0.000 A 
ATOM      3  C   UNL     1      -5.158  11.864  16.908  0.00  0.00    +0.000 A 
ATOM      4  C   UNL     1      -5.443  12.348  18.186  0.00  0.00    +0.000 A 
ATOM      5  N   UNL     1      -6.544  13.042  18.614  0.00  0.00    +0.000 NA
ATOM      6  C   UNL     1      -6.323  13.239  19.893  0.00  0.00    +0.000 A 
ATOM      7  N   UNL     1      -5.102  12.749  20.282  0.00  0.00    +0.000 N 
ATOM      8  C   UNL     1      -4.571  12.808  21.580  0.00  0.00    +0.000 A 
ATOM      9  N   UNL     1      -5.429  12.857  22.609  0.00  0.00    +0.000 NA
ATOM     10  C   UNL     1      -4.886  12.581  23.804  0.00  0.00    +0.000 A 
ATOM     11  C   UNL     1      -3.537  12.354  23.995  0.00  0.00    +0.000 A 
ATOM     12  C   UNL     1      -2.719  12.492  22.898  0.00  0.00    +0.000 A 
ATOM     13  N   UNL     1      -3.242  12.675  21.688  0.00  0.00    +0.000 NA
ATOM     14  C   UNL     1      -4.520  12.137  19.187  0.00  0.00    +0.000 A 
ATOM     15  C   UNL     1      -3.351  11.382  18.974  0.00  0.00    +0.000 A 
ATOM     16  C   UNL     1      -3.073  10.917  17.674  0.00  0.00    +0.000 A 
ATOM     17  C   UNL     1      -1.820  10.120  17.412  0.00  0.00    +0.000 C 
ENDROOT
BRANCH  12  18
ATOM     18  N   UNL     1      -1.345  12.278  23.001  0.00  0.00    +0.000 N 
ATOM     19  H   UNL     1      -0.822  12.883  22.382  0.00  0.00    +0.000 HD
BRANCH  18  20
ATOM     20  C   UNL     1      -0.909  10.888  22.872  0.00  0.00    +0.000 C 
BRANCH  20  21
ATOM     21  C   UNL     1      -0.116  10.760  21.594  0.00  0.00    +0.000 A 
ATOM     22  C   UNL     1       0.233  11.915  20.875  0.00  0.00    +0.000 A 
ATOM     23  C   UNL     1       0.905  11.811  19.658  0.00  0.00    +0.000 A 
ATOM     24  C   UNL     1       1.224  10.555  19.162  0.00  0.00    +0.000 A 
ATOM     25  F   UNL     1       1.848  10.454  17.981  0.00  0.00    +0.000 F 
ATOM     26  C   UNL     1       0.898   9.399  19.863  0.00  0.00    +0.000 A 
ATOM     27  C   UNL     1       0.226   9.499  21.083  0.00  0.00    +0.000 A 
ENDBRANCH  20  21
ENDBRANCH  18  20
ENDBRANCH  12  18
TORSDOF 3
ENDMDL
MODEL 6
REMARK VINA RESULT:      -7.8      4.982      9.405
REMARK  Name = 
REMARK  5 active torsions:
REMARK  status: ('A' for Active; 'I' for Inactive)
REMARK    1  A    between atoms: C_1  and  C_2
REMARK    2  A    between atoms: C_12  and  N_13
REMARK    3  A    between atoms: N_13  and  C_14
REMARK    4  A    between atoms: C_14  and  C_15
REMARK    5  A    between atoms: C_25  and  C_26
REMARK                            x       y       z     vdW  Elec       q    Type
REMARK                         _______ _______ _______ _____ _____    ______ ____
ROOT
ATOM      1  C   UNL     1      -5.889  14.032  23.571  0.00  0.00    +0.000 C 
ATOM      2  C   UNL     1      -5.730  13.497  22.166  0.00  0.00    +0.000 A 
ATOM      3  C   UNL     1      -6.806  13.071  21.352  0.00  0.00    +0.000 A 
ATOM      4  C   UNL     1      -6.596  12.409  20.141  0.00  0.00    +0.000 A 
ATOM      5  N   UNL     1      -7.522  11.881  19.281  0.00  0.00    +0.000 NA
ATOM      6  C   UNL     1      -6.804  11.390  18.297  0.00  0.00    +0.000 A 
ATOM      7  N   UNL     1      -5.459  11.535  18.524  0.00  0.00    +0.000 N 
ATOM      8  C   UNL     1      -4.433  11.110  17.665  0.00  0.00    +0.000 A 
ATOM      9  N   UNL     1      -4.702  11.031  16.354  0.00  0.00    +0.000 NA
ATOM     10  C   UNL     1      -3.621  10.946  15.565  0.00  0.00    +0.000 A 
ATOM     11  C   UNL     1      -2.330  10.853  16.047  0.00  0.00    +0.000 A 
ATOM     12  C   UNL     1      -2.177  10.775  17.412  0.00  0.00    +0.000 A 
ATOM     13  N   UNL     1      -3.223  10.948  18.216  0.00  0.00    +0.000 NA
ATOM     14  C   UNL     1      -5.299  12.223  19.712  0.00  0.00    +0.000 A 
ATOM     15  C   UNL     1      -4.200  12.753  20.415  0.00  0.00    +0.000 A 
ATOM     16  C   UNL     1      -4.432  13.403  21.643  0.00  0.00    +0.000 A 
ATOM     17  C   UNL     1      -3.273  13.966  22.426  0.00  0.00    +0.000 C 
ENDROOT
BRANCH  12  18
ATOM     18  N   UNL     1      -0.909  10.681  17.983  0.00  0.00    +0.000 N 
ATOM     19  H   UNL     1      -0.733   9.760  18.363  0.00  0.00    +0.000 HD
BRANCH  18  20
ATOM     20  C   UNL     1      -0.573  11.724  18.952  0.00  0.00    +0.000 C 
BRANCH  20  21
ATOM     21  C   UNL     1      -0.387  11.072  20.300  0.00  0.00    +0.000 A 
ATOM     22  C   UNL     1       0.136   9.770  20.375  0.00  0.00    +0.000 A 
ATOM     23  C   UNL     1       0.249   9.126  21.607  0.00  0.00    +0.000 A 
ATOM     24  C   UNL     1      -0.162   9.783  22.758  0.00  0.00    +0.000 A 
ATOM     25  F   UNL     1      -0.075   9.155  23.939  0.00  0.00    +0.000 F 
ATOM     26  C   UNL     1      -0.671  11.075  22.708  0.00  0.00    +0.000 A 
ATOM     27  C   UNL     1      -0.785  11.724  21.477  0.00  0.00    +0.000 A 
ENDBRANCH  20  21
ENDBRANCH  18  20
ENDBRANCH  12  18
TORSDOF 3
ENDMDL
MODEL 7
REMARK VINA RESULT:      -7.8      2.881      7.745
REMARK  Name = 
REMARK  5 active torsions:
REMARK  status: ('A' for Active; 'I' for Inactive)
REMARK    1  A    between atoms: C_1  and  C_2
REMARK    2  A    between atoms: C_12  and  N_13
REMARK    3  A    between atoms: N_13  and  C_14
REMARK    4  A    between atoms: C_14  and  C_15
REMARK    5  A    between atoms: C_25  and  C_26
REMARK                            x       y       z     vdW  Elec       q    Type
REMARK                         _______ _______ _______ _____ _____    ______ ____
ROOT
ATOM      1  C   UNL     1      -4.857  11.908  16.650  0.00  0.00    +0.000 C 
ATOM      2  C   UNL     1      -3.899  11.612  17.782  0.00  0.00    +0.000 A 
ATOM      3  C   UNL     1      -3.767  12.413  18.940  0.00  0.00    +0.000 A 
ATOM      4  C   UNL     1      -2.740  12.207  19.864  0.00  0.00    +0.000 A 
ATOM      5  N   UNL     1      -2.442  12.932  20.988  0.00  0.00    +0.000 NA
ATOM      6  C   UNL     1      -1.404  12.313  21.502  0.00  0.00    +0.000 A 
ATOM      7  N   UNL     1      -0.996  11.261  20.721  0.00  0.00    +0.000 N 
ATOM      8  C   UNL     1       0.084  10.408  20.995  0.00  0.00    +0.000 A 
ATOM      9  N   UNL     1       0.439  10.233  22.275  0.00  0.00    +0.000 NA
ATOM     10  C   UNL     1       1.238   9.178  22.495  0.00  0.00    +0.000 A 
ATOM     11  C   UNL     1       1.741   8.378  21.487  0.00  0.00    +0.000 A 
ATOM     12  C   UNL     1       1.449   8.746  20.194  0.00  0.00    +0.000 A 
ATOM     13  N   UNL     1       0.588   9.731  19.954  0.00  0.00    +0.000 NA
ATOM     14  C   UNL     1      -1.873  11.156  19.657  0.00  0.00    +0.000 A 
ATOM     15  C   UNL     1      -2.048  10.246  18.598  0.00  0.00    +0.000 A 
ATOM     16  C   UNL     1      -3.079  10.479  17.668  0.00  0.00    +0.000 A 
ATOM     17  C   UNL     1      -3.279   9.530  16.514  0.00  0.00    +0.000 C 
ENDROOT
BRANCH  12  18
ATOM     18  N   UNL     1       1.914   7.994  19.116  0.00  0.00    +0.000 N 
ATOM     19  H   UNL     1       1.156   7.607  18.570  0.00  0.00    +0.000 HD
BRANCH  18  20
ATOM     20  C   UNL     1       2.907   6.970  19.440  0.00  0.00    +0.000 C 
BRANCH  20  21
ATOM     21  C   UNL     1       2.263   5.617  19.260  0.00  0.00    +0.000 A 
ATOM     22  C   UNL     1       2.182   5.052  17.976  0.00  0.00    +0.000 A 
ATOM     23  C   UNL     1       1.529   3.836  17.781  0.00  0.00    +0.000 A 
ATOM     24  C   UNL     1       0.957   3.189  18.867  0.00  0.00    +0.000 A 
ATOM     25  F   UNL     1       0.308   2.032  18.676  0.00  0.00    +0.000 F 
ATOM     26  C   UNL     1       1.035   3.724  20.148  0.00  0.00    +0.000 A 
ATOM     27  C   UNL     1       1.690   4.941  20.347  0.00  0.00    +0.000 A 
ENDBRANCH  20  21
ENDBRANCH  18  20
ENDBRANCH  12  18
TORSDOF 3
ENDMDL
MODEL 8
REMARK VINA RESULT:      -7.8      2.574      4.041
REMARK  Name = 
REMARK  5 active torsions:
REMARK  status: ('A' for Active; 'I' for Inactive)
REMARK    1  A    between atoms: C_1  and  C_2
REMARK    2  A    between atoms: C_12  and  N_13
REMARK    3  A    between atoms: N_13  and  C_14
REMARK    4  A    between atoms: C_14  and  C_15
REMARK    5  A    between atoms: C_25  and  C_26
REMARK                            x       y       z     vdW  Elec       q    Type
REMARK                         _______ _______ _______ _____ _____    ______ ____
ROOT
ATOM      1  C   UNL     1       4.277   2.029  20.421  0.00  0.00    +0.000 C 
ATOM      2  C   UNL     1       3.833   3.334  19.798  0.00  0.00    +0.000 A 
ATOM      3  C   UNL     1       4.445   3.922  18.668  0.00  0.00    +0.000 A 
ATOM      4  C   UNL     1       4.126   5.214  18.247  0.00  0.00    +0.000 A 
ATOM      5  N   UNL     1       4.673   5.942  17.223  0.00  0.00    +0.000 NA
ATOM      6  C   UNL     1       4.009   7.075  17.243  0.00  0.00    +0.000 A 
ATOM      7  N   UNL     1       3.104   7.119  18.273  0.00  0.00    +0.000 N 
ATOM      8  C   UNL     1       2.248   8.192  18.566  0.00  0.00    +0.000 A 
ATOM      9  N   UNL     1       1.883   8.999  17.560  0.00  0.00    +0.000 NA
ATOM     10  C   UNL     1       0.829   9.785  17.826  0.00  0.00    +0.000 A 
ATOM     11  C   UNL     1       0.211   9.840  19.060  0.00  0.00    +0.000 A 
ATOM     12  C   UNL     1       0.769   9.093  20.072  0.00  0.00    +0.000 A 
ATOM     13  N   UNL     1       1.756   8.240  19.812  0.00  0.00    +0.000 NA
ATOM     14  C   UNL     1       3.143   5.901  18.927  0.00  0.00    +0.000 A 
ATOM     15  C   UNL     1       2.406   5.307  19.968  0.00  0.00    +0.000 A 
ATOM     16  C   UNL     1       2.754   4.009  20.389  0.00  0.00    +0.000 A 
ATOM     17  C   UNL     1       1.993   3.353  21.513  0.00  0.00    +0.000 C 
ENDROOT
BRANCH  12  18
ATOM     18  N   UNL     1       0.208   9.089  21.348  0.00  0.00    +0.000 N 
ATOM     19  H   UNL     1      -0.803   9.066  21.316  0.00  0.00    +0.000 HD
BRANCH  18  20
ATOM     20  C   UNL     1       0.683  10.136  22.252  0.00  0.00    +0.000 C 
BRANCH  20  21
ATOM     21  C   UNL     1      -0.387  11.195  22.350  0.00  0.00    +0.000 A 
ATOM     22  C   UNL     1      -0.199  12.433  21.714  0.00  0.00    +0.000 A 
ATOM     23  C   UNL     1      -1.145  13.447  21.852  0.00  0.00    +0.000 A 
ATOM     24  C   UNL     1      -2.275  13.223  22.626  0.00  0.00    +0.000 A 
ATOM     25  F   UNL     1      -3.173  14.206  22.779  0.00  0.00    +0.000 F 
ATOM     26  C   UNL     1      -2.487  12.002  23.256  0.00  0.00    +0.000 A 
ATOM     27  C   UNL     1      -1.541  10.983  23.119  0.00  0.00    +0.000 A 
ENDBRANCH  20  21
ENDBRANCH  18  20
ENDBRANCH  12  18
TORSDOF 3
ENDMDL
MODEL 9
REMARK VINA RESULT:      -7.8      4.754      8.285
REMARK  Name = 
REMARK  5 active torsions:
REMARK  status: ('A' for Active; 'I' for Inactive)
REMARK    1  A    between atoms: C_1  and  C_2
REMARK    2  A    between atoms: C_12  and  N_13
REMARK    3  A    between atoms: N_13  and  C_14
REMARK    4  A    between atoms: C_14  and  C_15
REMARK    5  A    between atoms: C_25  and  C_26
REMARK                            x       y       z     vdW  Elec       q    Type
REMARK                         _______ _______ _______ _____ _____    ______ ____
ROOT
ATOM      1  C   UNL     1      -3.535  10.520  14.982  0.00  0.00    +0.000 C 
ATOM      2  C   UNL     1      -3.904  10.936  16.388  0.00  0.00    +0.000 A 
ATOM      3  C   UNL     1      -5.133  11.540  16.740  0.00  0.00    +0.000 A 
ATOM      4  C   UNL     1      -5.352  12.078  18.009  0.00  0.00    +0.000 A 
ATOM      5  N   UNL     1      -6.452  12.748  18.478  0.00  0.00    +0.000 NA
ATOM      6  C   UNL     1      -6.153  13.022  19.727  0.00  0.00    +0.000 A 
ATOM      7  N   UNL     1      -4.887  12.604  20.054  0.00  0.00    +0.000 N 
ATOM      8  C   UNL     1      -4.273  12.753  21.307  0.00  0.00    +0.000 A 
ATOM      9  N   UNL     1      -5.060  12.820  22.390  0.00  0.00    +0.000 NA
ATOM     10  C   UNL     1      -4.426  12.631  23.556  0.00  0.00    +0.000 A 
ATOM     11  C   UNL     1      -3.058  12.469  23.663  0.00  0.00    +0.000 A 
ATOM     12  C   UNL     1      -2.324  12.582  22.506  0.00  0.00    +0.000 A 
ATOM     13  N   UNL     1      -2.935  12.680  21.328  0.00  0.00    +0.000 NA
ATOM     14  C   UNL     1      -4.354  11.959  18.953  0.00  0.00    +0.000 A 
ATOM     15  C   UNL     1      -3.171  11.242  18.696  0.00  0.00    +0.000 A 
ATOM     16  C   UNL     1      -2.961  10.721  17.405  0.00  0.00    +0.000 A 
ATOM     17  C   UNL     1      -1.695   9.963  17.096  0.00  0.00    +0.000 C 
ENDROOT
BRANCH  12  18
ATOM     18  N   UNL     1      -0.938  12.431  22.523  0.00  0.00    +0.000 N 
ATOM     19  H   UNL     1      -0.488  13.134  23.094  0.00  0.00    +0.000 HD
BRANCH  18  20
ATOM     20  C   UNL     1      -0.297  12.326  21.212  0.00  0.00    +0.000 C 
BRANCH  20  21
ATOM     21  C   UNL     1       0.207  10.913  21.046  0.00  0.00    +0.000 A 
ATOM     22  C   UNL     1       0.369  10.096  22.177  0.00  0.00    +0.000 A 
ATOM     23  C   UNL     1       0.898   8.813  22.049  0.00  0.00    +0.000 A 
ATOM     24  C   UNL     1       1.266   8.351  20.794  0.00  0.00    +0.000 A 
ATOM     25  F   UNL     1       1.798   7.127  20.674  0.00  0.00    +0.000 F 
ATOM     26  C   UNL     1       1.104   9.138  19.659  0.00  0.00    +0.000 A 
ATOM     27  C   UNL     1       0.573  10.424  19.783  0.00  0.00    +0.000 A 
ENDBRANCH  20  21
ENDBRANCH  18  20
ENDBRANCH  12  18
TORSDOF 3
ENDMDL
