MODEL 1
REMARK VINA RESULT:      -6.4      0.000      0.000
REMARK  Name = 
REMARK  8 active torsions:
REMARK  status: ('A' for Active; 'I' for Inactive)
REMARK    1  A    between atoms: C_1  and  O_2
REMARK    2  A    between atoms: O_2  and  C_3
REMARK    3  A    between atoms: C_8  and  C_9
REMARK    4  A    between atoms: N_10  and  C_11
REMARK    5  A    between atoms: C_16  and  S_17
REMARK    6  A    between atoms: S_17  and  C_18
REMARK    7  A    between atoms: C_23  and  C_24
REMARK    8  A    between atoms: C_23  and  C_25
REMARK                            x       y       z     vdW  Elec       q    Type
REMARK                         _______ _______ _______ _____ _____    ______ ____
ROOT
ATOM      1  C   UNL     1      -2.699  12.504  22.791  0.00  0.00    +0.000 C 
ATOM      2  N   UNL     1      -3.728  13.112  21.946  0.00  0.00    +0.000 N 
ATOM      3  C   UNL     1      -3.207  14.373  21.981  0.00  0.00    +0.000 C 
ATOM      4  O   UNL     1      -3.559  15.421  21.482  0.00  0.00    +0.000 OA
ATOM      5  C   UNL     1      -2.215  13.982  23.111  0.00  0.00    +0.000 C 
ATOM      6  C   UNL     1      -0.740  14.280  22.871  0.00  0.00    +0.000 C 
ATOM      7  C   UNL     1      -2.613  14.559  24.481  0.00  0.00    +0.000 C 
ENDROOT
BRANCH   1  13
ATOM      8  C   UNL     1      -1.088  11.475  20.837  0.00  0.00    +0.000 A 
ATOM      9  C   UNL     1      -0.071  10.569  20.481  0.00  0.00    +0.000 A 
ATOM     10  C   UNL     1       0.490   9.707  21.421  0.00  0.00    +0.000 A 
ATOM     11  C   UNL     1       0.017   9.709  22.719  0.00  0.00    +0.000 A 
ATOM     12  C   UNL     1      -1.024  10.572  23.067  0.00  0.00    +0.000 A 
ATOM     13  C   UNL     1      -1.600  11.497  22.162  0.00  0.00    +0.000 A 
BRANCH   8  15
ATOM     14  C   UNL     1      -0.727  13.361  19.417  0.00  0.00    +0.000 C 
ATOM     15  O   UNL     1      -1.619  12.375  19.944  0.00  0.00    +0.000 OA
ENDBRANCH   8  15
ENDBRANCH   1  13
BRANCH   2  16
ATOM     16  C   UNL     1      -4.920  12.656  21.342  0.00  0.00    +0.000 A 
ATOM     17  C   UNL     1      -4.850  12.387  19.964  0.00  0.00    +0.000 A 
ATOM     18  C   UNL     1      -5.952  11.936  19.223  0.00  0.00    +0.000 A 
ATOM     19  C   UNL     1      -7.180  11.788  19.845  0.00  0.00    +0.000 A 
ATOM     20  C   UNL     1      -7.286  12.050  21.206  0.00  0.00    +0.000 A 
ATOM     21  C   UNL     1      -6.167  12.459  21.968  0.00  0.00    +0.000 A 
BRANCH  21  22
ATOM     22  S   UNL     1      -6.526  12.819  23.674  0.00  0.00    +0.000 S 
ATOM     23  C   UNL     1      -6.428  14.581  23.821  0.00  0.00    +0.000 C 
ATOM     24  O   UNL     1      -7.916  12.485  23.929  0.00  0.00    +0.000 OA
ATOM     25  O   UNL     1      -5.488  12.204  24.479  0.00  0.00    +0.000 OA
ENDBRANCH  21  22
ENDBRANCH   2  16
TORSDOF 4
ENDMDL
MODEL 2
REMARK VINA RESULT:      -6.3      1.362      2.202
REMARK  Name = 
REMARK  8 active torsions:
REMARK  status: ('A' for Active; 'I' for Inactive)
REMARK    1  A    between atoms: C_1  and  O_2
REMARK    2  A    between atoms: O_2  and  C_3
REMARK    3  A    between atoms: C_8  and  C_9
REMARK    4  A    between atoms: N_10  and  C_11
REMARK    5  A    between atoms: C_16  and  S_17
REMARK    6  A    between atoms: S_17  and  C_18
REMARK    7  A    between atoms: C_23  and  C_24
REMARK    8  A    between atoms: C_23  and  C_25
REMARK                            x       y       z     vdW  Elec       q    Type
REMARK                         _______ _______ _______ _____ _____    ______ ____
ROOT
ATOM      1  C   UNL     1      -1.912  12.448  21.842  0.00  0.00    +0.000 C 
ATOM      2  N   UNL     1      -3.098  13.159  21.362  0.00  0.00    +0.000 N 
ATOM      3  C   UNL     1      -2.553  14.407  21.446  0.00  0.00    +0.000 C 
ATOM      4  O   UNL     1      -2.989  15.511  21.197  0.00  0.00    +0.000 OA
ATOM      5  C   UNL     1      -1.330  13.870  22.239  0.00  0.00    +0.000 C 
ATOM      6  C   UNL     1       0.052  14.214  21.695  0.00  0.00    +0.000 C 
ATOM      7  C   UNL     1      -1.375  14.244  23.731  0.00  0.00    +0.000 C 
ENDROOT
BRANCH   1  13
ATOM      8  C   UNL     1       0.040  10.661  21.155  0.00  0.00    +0.000 A 
ATOM      9  C   UNL     1       0.660   9.896  20.150  0.00  0.00    +0.000 A 
ATOM     10  C   UNL     1       0.225   9.954  18.827  0.00  0.00    +0.000 A 
ATOM     11  C   UNL     1      -0.807  10.805  18.484  0.00  0.00    +0.000 A 
ATOM     12  C   UNL     1      -1.396  11.601  19.469  0.00  0.00    +0.000 A 
ATOM     13  C   UNL     1      -1.020  11.550  20.833  0.00  0.00    +0.000 A 
BRANCH   8  15
ATOM     14  C   UNL     1      -0.100   9.472  23.223  0.00  0.00    +0.000 C 
ATOM     15  O   UNL     1       0.411  10.580  22.477  0.00  0.00    +0.000 OA
ENDBRANCH   8  15
ENDBRANCH   1  13
BRANCH   2  16
ATOM     16  C   UNL     1      -4.410  12.780  21.004  0.00  0.00    +0.000 A 
ATOM     17  C   UNL     1      -4.616  12.473  19.648  0.00  0.00    +0.000 A 
ATOM     18  C   UNL     1      -5.866  12.089  19.138  0.00  0.00    +0.000 A 
ATOM     19  C   UNL     1      -6.964  12.051  19.979  0.00  0.00    +0.000 A 
ATOM     20  C   UNL     1      -6.797  12.355  21.326  0.00  0.00    +0.000 A 
ATOM     21  C   UNL     1      -5.531  12.695  21.854  0.00  0.00    +0.000 A 
BRANCH  21  22
ATOM     22  S   UNL     1      -5.541  13.124  23.582  0.00  0.00    +0.000 S 
ATOM     23  C   UNL     1      -7.217  12.925  24.114  0.00  0.00    +0.000 C 
ATOM     24  O   UNL     1      -4.782  12.119  24.307  0.00  0.00    +0.000 OA
ATOM     25  O   UNL     1      -5.157  14.518  23.689  0.00  0.00    +0.000 OA
ENDBRANCH  21  22
ENDBRANCH   2  16
TORSDOF 4
ENDMDL
MODEL 3
REMARK VINA RESULT:      -6.3      0.915      1.033
REMARK  Name = 
REMARK  8 active torsions:
REMARK  status: ('A' for Active; 'I' for Inactive)
REMARK    1  A    between atoms: C_1  and  O_2
REMARK    2  A    between atoms: O_2  and  C_3
REMARK    3  A    between atoms: C_8  and  C_9
REMARK    4  A    between atoms: N_10  and  C_11
REMARK    5  A    between atoms: C_16  and  S_17
REMARK    6  A    between atoms: S_17  and  C_18
REMARK    7  A    between atoms: C_23  and  C_24
REMARK    8  A    between atoms: C_23  and  C_25
REMARK                            x       y       z     vdW  Elec       q    Type
REMARK                         _______ _______ _______ _____ _____    ______ ____
ROOT
ATOM      1  C   UNL     1      -2.195  12.454  22.614  0.00  0.00    +0.000 C 
ATOM      2  N   UNL     1      -3.207  13.058  21.746  0.00  0.00    +0.000 N 
ATOM      3  C   UNL     1      -2.545  14.238  21.565  0.00  0.00    +0.000 C 
ATOM      4  O   UNL     1      -2.812  15.240  20.936  0.00  0.00    +0.000 OA
ATOM      5  C   UNL     1      -1.525  13.892  22.684  0.00  0.00    +0.000 C 
ATOM      6  C   UNL     1      -0.047  13.971  22.321  0.00  0.00    +0.000 C 
ATOM      7  C   UNL     1      -1.756  14.701  23.973  0.00  0.00    +0.000 C 
ENDROOT
BRANCH   1  13
ATOM      8  C   UNL     1      -0.802  11.007  20.760  0.00  0.00    +0.000 A 
ATOM      9  C   UNL     1       0.070   9.935  20.489  0.00  0.00    +0.000 A 
ATOM     10  C   UNL     1       0.536   9.108  21.509  0.00  0.00    +0.000 A 
ATOM     11  C   UNL     1       0.108   9.315  22.806  0.00  0.00    +0.000 A 
ATOM     12  C   UNL     1      -0.793  10.347  23.074  0.00  0.00    +0.000 A 
ATOM     13  C   UNL     1      -1.265  11.241  22.082  0.00  0.00    +0.000 A 
BRANCH   8  15
ATOM     14  C   UNL     1      -0.225  12.444  18.941  0.00  0.00    +0.000 C 
ATOM     15  O   UNL     1      -1.231  11.872  19.781  0.00  0.00    +0.000 OA
ENDBRANCH   8  15
ENDBRANCH   1  13
BRANCH   2  16
ATOM     16  C   UNL     1      -4.482  12.670  21.282  0.00  0.00    +0.000 A 
ATOM     17  C   UNL     1      -4.563  12.305  19.927  0.00  0.00    +0.000 A 
ATOM     18  C   UNL     1      -5.762  11.905  19.319  0.00  0.00    +0.000 A 
ATOM     19  C   UNL     1      -6.935  11.909  20.054  0.00  0.00    +0.000 A 
ATOM     20  C   UNL     1      -6.893  12.271  21.396  0.00  0.00    +0.000 A 
ATOM     21  C   UNL     1      -5.679  12.628  22.026  0.00  0.00    +0.000 A 
BRANCH  21  22
ATOM     22  S   UNL     1      -5.848  13.133  23.725  0.00  0.00    +0.000 S 
ATOM     23  C   UNL     1      -7.581  13.057  24.076  0.00  0.00    +0.000 C 
ATOM     24  O   UNL     1      -5.237  12.117  24.566  0.00  0.00    +0.000 OA
ATOM     25  O   UNL     1      -5.389  14.505  23.822  0.00  0.00    +0.000 OA
ENDBRANCH  21  22
ENDBRANCH   2  16
TORSDOF 4
ENDMDL
MODEL 4
REMARK VINA RESULT:      -6.2      2.617      6.117
REMARK  Name = 
REMARK  8 active torsions:
REMARK  status: ('A' for Active; 'I' for Inactive)
REMARK    1  A    between atoms: C_1  and  O_2
REMARK    2  A    between atoms: O_2  and  C_3
REMARK    3  A    between atoms: C_8  and  C_9
REMARK    4  A    between atoms: N_10  and  C_11
REMARK    5  A    between atoms: C_16  and  S_17
REMARK    6  A    between atoms: S_17  and  C_18
REMARK    7  A    between atoms: C_23  and  C_24
REMARK    8  A    between atoms: C_23  and  C_25
REMARK                            x       y       z     vdW  Elec       q    Type
REMARK                         _______ _______ _______ _____ _____    ______ ____
ROOT
ATOM      1  C   UNL     1      -2.272  13.276  21.382  0.00  0.00    +0.000 C 
ATOM      2  N   UNL     1      -0.987  12.688  21.762  0.00  0.00    +0.000 N 
ATOM      3  C   UNL     1      -0.369  13.874  22.036  0.00  0.00    +0.000 C 
ATOM      4  O   UNL     1       0.749  14.148  22.416  0.00  0.00    +0.000 OA
ATOM      5  C   UNL     1      -1.533  14.681  21.398  0.00  0.00    +0.000 C 
ATOM      6  C   UNL     1      -2.168  15.772  22.251  0.00  0.00    +0.000 C 
ATOM      7  C   UNL     1      -1.162  15.283  20.031  0.00  0.00    +0.000 C 
ENDROOT
BRANCH   1  13
ATOM      8  C   UNL     1      -4.938  13.255  21.988  0.00  0.00    +0.000 A 
ATOM      9  C   UNL     1      -5.945  13.010  22.940  0.00  0.00    +0.000 A 
ATOM     10  C   UNL     1      -5.632  12.589  24.231  0.00  0.00    +0.000 A 
ATOM     11  C   UNL     1      -4.309  12.445  24.600  0.00  0.00    +0.000 A 
ATOM     12  C   UNL     1      -3.304  12.731  23.675  0.00  0.00    +0.000 A 
ATOM     13  C   UNL     1      -3.568  13.122  22.339  0.00  0.00    +0.000 A 
BRANCH   8  15
ATOM     14  C   UNL     1      -6.604  13.729  20.343  0.00  0.00    +0.000 C 
ATOM     15  O   UNL     1      -5.222  13.616  20.692  0.00  0.00    +0.000 OA
ENDBRANCH   8  15
ENDBRANCH   1  13
BRANCH   2  16
ATOM     16  C   UNL     1      -0.456  11.380  21.781  0.00  0.00    +0.000 A 
ATOM     17  C   UNL     1      -0.657  10.649  22.965  0.00  0.00    +0.000 A 
ATOM     18  C   UNL     1      -0.181   9.341  23.139  0.00  0.00    +0.000 A 
ATOM     19  C   UNL     1       0.560   8.745  22.134  0.00  0.00    +0.000 A 
ATOM     20  C   UNL     1       0.783   9.442  20.951  0.00  0.00    +0.000 A 
ATOM     21  C   UNL     1       0.265  10.742  20.752  0.00  0.00    +0.000 A 
BRANCH  21  22
ATOM     22  S   UNL     1       0.726  11.493  19.206  0.00  0.00    +0.000 S 
ATOM     23  C   UNL     1       1.512  10.214  18.268  0.00  0.00    +0.000 C 
ATOM     24  O   UNL     1      -0.488  11.819  18.476  0.00  0.00    +0.000 OA
ATOM     25  O   UNL     1       1.683  12.543  19.497  0.00  0.00    +0.000 OA
ENDBRANCH  21  22
ENDBRANCH   2  16
TORSDOF 4
ENDMDL
MODEL 5
REMARK VINA RESULT:      -6.2      2.507      4.024
REMARK  Name = 
REMARK  8 active torsions:
REMARK  status: ('A' for Active; 'I' for Inactive)
REMARK    1  A    between atoms: C_1  and  O_2
REMARK    2  A    between atoms: O_2  and  C_3
REMARK    3  A    between atoms: C_8  and  C_9
REMARK    4  A    between atoms: N_10  and  C_11
REMARK    5  A    between atoms: C_16  and  S_17
REMARK    6  A    between atoms: S_17  and  C_18
REMARK    7  A    between atoms: C_23  and  C_24
REMARK    8  A    between atoms: C_23  and  C_25
REMARK                            x       y       z     vdW  Elec       q    Type
REMARK                         _______ _______ _______ _____ _____    ______ ____
ROOT
ATOM      1  C   UNL     1      -0.321  11.468  20.359  0.00  0.00    +0.000 C 
ATOM      2  N   UNL     1      -1.171  12.189  19.410  0.00  0.00    +0.000 N 
ATOM      3  C   UNL     1      -0.423  13.330  19.395  0.00  0.00    +0.000 C 
ATOM      4  O   UNL     1      -0.544  14.383  18.806  0.00  0.00    +0.000 OA
ATOM      5  C   UNL     1       0.416  12.851  20.611  0.00  0.00    +0.000 C 
ATOM      6  C   UNL     1       1.931  12.852  20.449  0.00  0.00    +0.000 C 
ATOM      7  C   UNL     1       0.063  13.597  21.911  0.00  0.00    +0.000 C 
ENDROOT
BRANCH   1  13
ATOM      8  C   UNL     1       1.087   9.143  20.646  0.00  0.00    +0.000 A 
ATOM      9  C   UNL     1       1.816   8.104  20.037  0.00  0.00    +0.000 A 
ATOM     10  C   UNL     1       2.037   8.088  18.661  0.00  0.00    +0.000 A 
ATOM     11  C   UNL     1       1.569   9.127  17.881  0.00  0.00    +0.000 A 
ATOM     12  C   UNL     1       0.886  10.184  18.486  0.00  0.00    +0.000 A 
ATOM     13  C   UNL     1       0.598  10.229  19.872  0.00  0.00    +0.000 A 
BRANCH   8  15
ATOM     14  C   UNL     1      -0.486   8.683  22.383  0.00  0.00    +0.000 C 
ATOM     15  O   UNL     1       0.806   9.154  21.992  0.00  0.00    +0.000 OA
ENDBRANCH   8  15
ENDBRANCH   1  13
BRANCH   2  16
ATOM     16  C   UNL     1      -2.394  11.915  18.760  0.00  0.00    +0.000 A 
ATOM     17  C   UNL     1      -2.299  11.341  17.481  0.00  0.00    +0.000 A 
ATOM     18  C   UNL     1      -3.425  11.020  16.707  0.00  0.00    +0.000 A 
ATOM     19  C   UNL     1      -4.689  11.317  17.186  0.00  0.00    +0.000 A 
ATOM     20  C   UNL     1      -4.820  11.890  18.447  0.00  0.00    +0.000 A 
ATOM     21  C   UNL     1      -3.691  12.171  19.250  0.00  0.00    +0.000 A 
BRANCH  21  22
ATOM     22  S   UNL     1      -4.063  12.975  20.794  0.00  0.00    +0.000 S 
ATOM     23  C   UNL     1      -5.793  12.713  21.064  0.00  0.00    +0.000 C 
ATOM     24  O   UNL     1      -3.391  12.251  21.859  0.00  0.00    +0.000 OA
ATOM     25  O   UNL     1      -3.804  14.391  20.624  0.00  0.00    +0.000 OA
ENDBRANCH  21  22
ENDBRANCH   2  16
TORSDOF 4
ENDMDL
MODEL 6
REMARK VINA RESULT:      -6.1      2.130      3.410
REMARK  Name = 
REMARK  8 active torsions:
REMARK  status: ('A' for Active; 'I' for Inactive)
REMARK    1  A    between atoms: C_1  and  O_2
REMARK    2  A    between atoms: O_2  and  C_3
REMARK    3  A    between atoms: C_8  and  C_9
REMARK    4  A    between atoms: N_10  and  C_11
REMARK    5  A    between atoms: C_16  and  S_17
REMARK    6  A    between atoms: S_17  and  C_18
REMARK    7  A    between atoms: C_23  and  C_24
REMARK    8  A    between atoms: C_23  and  C_25
REMARK                            x       y       z     vdW  Elec       q    Type
REMARK                         _______ _______ _______ _____ _____    ______ ____
ROOT
ATOM      1  C   UNL     1      -2.247  12.226  20.310  0.00  0.00    +0.000 C 
ATOM      2  N   UNL     1      -3.260  13.179  20.767  0.00  0.00    +0.000 N 
ATOM      3  C   UNL     1      -2.491  14.292  20.590  0.00  0.00    +0.000 C 
ATOM      4  O   UNL     1      -2.700  15.472  20.775  0.00  0.00    +0.000 OA
ATOM      5  C   UNL     1      -1.217  13.432  20.363  0.00  0.00    +0.000 C 
ATOM      6  C   UNL     1      -0.419  13.700  19.092  0.00  0.00    +0.000 C 
ATOM      7  C   UNL     1      -0.252  13.467  21.561  0.00  0.00    +0.000 C 
ENDROOT
BRANCH   1  13
ATOM      8  C   UNL     1      -1.567  10.463  18.335  0.00  0.00    +0.000 A 
ATOM      9  C   UNL     1      -1.902   9.849  17.113  0.00  0.00    +0.000 A 
ATOM     10  C   UNL     1      -3.081  10.170  16.443  0.00  0.00    +0.000 A 
ATOM     11  C   UNL     1      -3.921  11.136  16.963  0.00  0.00    +0.000 A 
ATOM     12  C   UNL     1      -3.571  11.781  18.150  0.00  0.00    +0.000 A 
ATOM     13  C   UNL     1      -2.407  11.464  18.892  0.00  0.00    +0.000 A 
BRANCH   8  15
ATOM     14  C   UNL     1       0.731   9.815  18.283  0.00  0.00    +0.000 C 
ATOM     15  O   UNL     1      -0.439  10.123  19.044  0.00  0.00    +0.000 OA
ENDBRANCH   8  15
ENDBRANCH   1  13
BRANCH   2  16
ATOM     16  C   UNL     1      -4.561  13.069  21.303  0.00  0.00    +0.000 A 
ATOM     17  C   UNL     1      -5.620  13.275  20.402  0.00  0.00    +0.000 A 
ATOM     18  C   UNL     1      -6.968  13.208  20.786  0.00  0.00    +0.000 A 
ATOM     19  C   UNL     1      -7.289  12.979  22.112  0.00  0.00    +0.000 A 
ATOM     20  C   UNL     1      -6.266  12.776  23.033  0.00  0.00    +0.000 A 
ATOM     21  C   UNL     1      -4.908  12.794  22.641  0.00  0.00    +0.000 A 
BRANCH  21  22
ATOM     22  S   UNL     1      -3.750  12.592  23.979  0.00  0.00    +0.000 S 
ATOM     23  C   UNL     1      -3.091  14.205  24.288  0.00  0.00    +0.000 C 
ATOM     24  O   UNL     1      -4.492  12.240  25.177  0.00  0.00    +0.000 OA
ATOM     25  O   UNL     1      -2.693  11.714  23.514  0.00  0.00    +0.000 OA
ENDBRANCH  21  22
ENDBRANCH   2  16
TORSDOF 4
ENDMDL
MODEL 7
REMARK VINA RESULT:      -6.1      2.695      5.936
REMARK  Name = 
REMARK  8 active torsions:
REMARK  status: ('A' for Active; 'I' for Inactive)
REMARK    1  A    between atoms: C_1  and  O_2
REMARK    2  A    between atoms: O_2  and  C_3
REMARK    3  A    between atoms: C_8  and  C_9
REMARK    4  A    between atoms: N_10  and  C_11
REMARK    5  A    between atoms: C_16  and  S_17
REMARK    6  A    between atoms: S_17  and  C_18
REMARK    7  A    between atoms: C_23  and  C_24
REMARK    8  A    between atoms: C_23  and  C_25
REMARK                            x       y       z     vdW  Elec       q    Type
REMARK                         _______ _______ _______ _____ _____    ______ ____
ROOT
ATOM      1  C   UNL     1      -2.425  13.291  21.408  0.00  0.00    +0.000 C 
ATOM      2  N   UNL     1      -1.149  12.660  21.750  0.00  0.00    +0.000 N 
ATOM      3  C   UNL     1      -0.495  13.822  22.041  0.00  0.00    +0.000 C 
ATOM      4  O   UNL     1       0.637  14.056  22.405  0.00  0.00    +0.000 OA
ATOM      5  C   UNL     1      -1.648  14.675  21.443  0.00  0.00    +0.000 C 
ATOM      6  C   UNL     1      -2.237  15.762  22.334  0.00  0.00    +0.000 C 
ATOM      7  C   UNL     1      -1.285  15.300  20.084  0.00  0.00    +0.000 C 
ENDROOT
BRANCH   1  13
ATOM      8  C   UNL     1      -5.076  13.365  22.073  0.00  0.00    +0.000 A 
ATOM      9  C   UNL     1      -6.074  13.119  23.033  0.00  0.00    +0.000 A 
ATOM     10  C   UNL     1      -5.756  12.617  24.293  0.00  0.00    +0.000 A 
ATOM     11  C   UNL     1      -4.434  12.391  24.625  0.00  0.00    +0.000 A 
ATOM     12  C   UNL     1      -3.436  12.677  23.693  0.00  0.00    +0.000 A 
ATOM     13  C   UNL     1      -3.707  13.149  22.385  0.00  0.00    +0.000 A 
BRANCH   8  15
ATOM     14  C   UNL     1      -5.682  15.194  20.660  0.00  0.00    +0.000 C 
ATOM     15  O   UNL     1      -5.368  13.806  20.803  0.00  0.00    +0.000 OA
ENDBRANCH   8  15
ENDBRANCH   1  13
BRANCH   2  16
ATOM     16  C   UNL     1      -0.654  11.338  21.728  0.00  0.00    +0.000 A 
ATOM     17  C   UNL     1      -0.681  10.648  22.952  0.00  0.00    +0.000 A 
ATOM     18  C   UNL     1      -0.216   9.332  23.092  0.00  0.00    +0.000 A 
ATOM     19  C   UNL     1       0.340   8.685  22.002  0.00  0.00    +0.000 A 
ATOM     20  C   UNL     1       0.388   9.341  20.776  0.00  0.00    +0.000 A 
ATOM     21  C   UNL     1      -0.123  10.649  20.619  0.00  0.00    +0.000 A 
BRANCH  21  22
ATOM     22  S   UNL     1       0.102  11.342  18.994  0.00  0.00    +0.000 S 
ATOM     23  C   UNL     1      -1.524  11.715  18.405  0.00  0.00    +0.000 C 
ATOM     24  O   UNL     1       0.769  12.625  19.133  0.00  0.00    +0.000 OA
ATOM     25  O   UNL     1       0.701  10.317  18.161  0.00  0.00    +0.000 OA
ENDBRANCH  21  22
ENDBRANCH   2  16
TORSDOF 4
ENDMDL
MODEL 8
REMARK VINA RESULT:      -5.9      2.393      3.921
REMARK  Name = 
REMARK  8 active torsions:
REMARK  status: ('A' for Active; 'I' for Inactive)
REMARK    1  A    between atoms: C_1  and  O_2
REMARK    2  A    between atoms: O_2  and  C_3
REMARK    3  A    between atoms: C_8  and  C_9
REMARK    4  A    between atoms: N_10  and  C_11
REMARK    5  A    between atoms: C_16  and  S_17
REMARK    6  A    between atoms: S_17  and  C_18
REMARK    7  A    between atoms: C_23  and  C_24
REMARK    8  A    between atoms: C_23  and  C_25
REMARK                            x       y       z     vdW  Elec       q    Type
REMARK                         _______ _______ _______ _____ _____    ______ ____
ROOT
ATOM      1  C   UNL     1      -0.237  11.793  20.632  0.00  0.00    +0.000 C 
ATOM      2  N   UNL     1      -1.089  12.348  19.579  0.00  0.00    +0.000 N 
ATOM      3  C   UNL     1      -0.287  13.417  19.302  0.00  0.00    +0.000 C 
ATOM      4  O   UNL     1      -0.380  14.329  18.509  0.00  0.00    +0.000 OA
ATOM      5  C   UNL     1       0.578  13.154  20.566  0.00  0.00    +0.000 C 
ATOM      6  C   UNL     1       2.083  13.035  20.362  0.00  0.00    +0.000 C 
ATOM      7  C   UNL     1       0.316  14.172  21.690  0.00  0.00    +0.000 C 
ENDROOT
BRANCH   1  13
ATOM      8  C   UNL     1       1.046   9.490  21.356  0.00  0.00    +0.000 A 
ATOM      9  C   UNL     1       1.699   8.310  20.955  0.00  0.00    +0.000 A 
ATOM     10  C   UNL     1       1.884   8.008  19.607  0.00  0.00    +0.000 A 
ATOM     11  C   UNL     1       1.454   8.899  18.643  0.00  0.00    +0.000 A 
ATOM     12  C   UNL     1       0.847  10.093  19.035  0.00  0.00    +0.000 A 
ATOM     13  C   UNL     1       0.598  10.429  20.388  0.00  0.00    +0.000 A 
BRANCH   8  15
ATOM     14  C   UNL     1      -0.498   9.457  23.178  0.00  0.00    +0.000 C 
ATOM     15  O   UNL     1       0.800   9.784  22.676  0.00  0.00    +0.000 OA
ENDBRANCH   8  15
ENDBRANCH   1  13
BRANCH   2  16
ATOM     16  C   UNL     1      -2.350  12.015  19.038  0.00  0.00    +0.000 A 
ATOM     17  C   UNL     1      -2.335  11.256  17.856  0.00  0.00    +0.000 A 
ATOM     18  C   UNL     1      -3.506  10.856  17.195  0.00  0.00    +0.000 A 
ATOM     19  C   UNL     1      -4.737  11.256  17.686  0.00  0.00    +0.000 A 
ATOM     20  C   UNL     1      -4.789  12.013  18.852  0.00  0.00    +0.000 A 
ATOM     21  C   UNL     1      -3.614  12.378  19.547  0.00  0.00    +0.000 A 
BRANCH  21  22
ATOM     22  S   UNL     1      -3.887  13.411  20.971  0.00  0.00    +0.000 S 
ATOM     23  C   UNL     1      -3.212  12.521  22.344  0.00  0.00    +0.000 C 
ATOM     24  O   UNL     1      -3.064  14.600  20.837  0.00  0.00    +0.000 OA
ATOM     25  O   UNL     1      -5.321  13.554  21.139  0.00  0.00    +0.000 OA
ENDBRANCH  21  22
ENDBRANCH   2  16
TORSDOF 4
ENDMDL
MODEL 9
REMARK VINA RESULT:      -5.9      1.795      2.487
REMARK  Name = 
REMARK  8 active torsions:
REMARK  status: ('A' for Active; 'I' for Inactive)
REMARK    1  A    between atoms: C_1  and  O_2
REMARK    2  A    between atoms: O_2  and  C_3
REMARK    3  A    between atoms: C_8  and  C_9
REMARK    4  A    between atoms: N_10  and  C_11
REMARK    5  A    between atoms: C_16  and  S_17
REMARK    6  A    between atoms: S_17  and  C_18
REMARK    7  A    between atoms: C_23  and  C_24
REMARK    8  A    between atoms: C_23  and  C_25
REMARK                            x       y       z     vdW  Elec       q    Type
REMARK                         _______ _______ _______ _____ _____    ______ ____
ROOT
ATOM      1  C   UNL     1      -2.186  12.228  21.830  0.00  0.00    +0.000 C 
ATOM      2  N   UNL     1      -2.618  12.767  20.539  0.00  0.00    +0.000 N 
ATOM      3  C   UNL     1      -2.116  14.020  20.739  0.00  0.00    +0.000 C 
ATOM      4  O   UNL     1      -2.112  15.021  20.054  0.00  0.00    +0.000 OA
ATOM      5  C   UNL     1      -1.846  13.724  22.240  0.00  0.00    +0.000 C 
ATOM      6  C   UNL     1      -0.436  13.984  22.754  0.00  0.00    +0.000 C 
ATOM      7  C   UNL     1      -2.845  14.429  23.175  0.00  0.00    +0.000 C 
ENDROOT
BRANCH   1  13
ATOM      8  C   UNL     1       0.113  10.989  21.022  0.00  0.00    +0.000 A 
ATOM      9  C   UNL     1       1.123  10.048  21.295  0.00  0.00    +0.000 A 
ATOM     10  C   UNL     1       1.108   9.292  22.466  0.00  0.00    +0.000 A 
ATOM     11  C   UNL     1       0.064   9.436  23.359  0.00  0.00    +0.000 A 
ATOM     12  C   UNL     1      -0.965  10.334  23.070  0.00  0.00    +0.000 A 
ATOM     13  C   UNL     1      -0.977  11.156  21.917  0.00  0.00    +0.000 A 
BRANCH   8  15
ATOM     14  C   UNL     1       1.330  11.766  19.119  0.00  0.00    +0.000 C 
ATOM     15  O   UNL     1       0.134  11.788  19.903  0.00  0.00    +0.000 OA
ENDBRANCH   8  15
ENDBRANCH   1  13
BRANCH   2  16
ATOM     16  C   UNL     1      -3.369  12.269  19.453  0.00  0.00    +0.000 A 
ATOM     17  C   UNL     1      -2.630  11.765  18.369  0.00  0.00    +0.000 A 
ATOM     18  C   UNL     1      -3.233  11.245  17.215  0.00  0.00    +0.000 A 
ATOM     19  C   UNL     1      -4.612  11.263  17.098  0.00  0.00    +0.000 A 
ATOM     20  C   UNL     1      -5.376  11.760  18.149  0.00  0.00    +0.000 A 
ATOM     21  C   UNL     1      -4.774  12.241  19.335  0.00  0.00    +0.000 A 
BRANCH  21  22
ATOM     22  S   UNL     1      -5.916  12.905  20.528  0.00  0.00    +0.000 S 
ATOM     23  C   UNL     1      -7.529  12.502  19.920  0.00  0.00    +0.000 C 
ATOM     24  O   UNL     1      -5.770  12.158  21.765  0.00  0.00    +0.000 OA
ATOM     25  O   UNL     1      -5.746  14.345  20.543  0.00  0.00    +0.000 OA
ENDBRANCH  21  22
ENDBRANCH   2  16
TORSDOF 4
ENDMDL
