MODEL 1
REMARK VINA RESULT:      -7.2      0.000      0.000
REMARK  Name = 
REMARK  3 active torsions:
REMARK  status: ('A' for Active; 'I' for Inactive)
REMARK    1  A    between atoms: C_1  and  C_2
REMARK    2  A    between atoms: C_6  and  C_7
REMARK    3  A    between atoms: C_12  and  C_13
REMARK                            x       y       z     vdW  Elec       q    Type
REMARK                         _______ _______ _______ _____ _____    ______ ____
ROOT
ATOM      1  C   UNL     1       1.820   7.345  19.901  0.00  0.00    +0.000 C 
ATOM      2  O   UNL     1       1.808   6.276  20.511  0.00  0.00    +0.000 OA
ATOM      3  N   UNL     1       2.411   7.544  18.678  0.00  0.00    +0.000 N 
ATOM      4  C   UNL     1       3.102   6.535  18.005  0.00  0.00    +0.000 A 
ATOM      5  C   UNL     1       2.614   5.232  17.975  0.00  0.00    +0.000 A 
ATOM      6  C   UNL     1       3.389   4.197  17.442  0.00  0.00    +0.000 A 
ATOM      7  C   UNL     1       4.650   4.550  16.955  0.00  0.00    +0.000 A 
ATOM      8  C   UNL     1       5.033   5.884  16.965  0.00  0.00    +0.000 A 
ATOM      9  N   UNL     1       4.270   6.891  17.442  0.00  0.00    +0.000 NA
ATOM     10  H   UNL     1       2.643   8.493  18.392  0.00  0.00    +0.000 HD
ENDROOT
BRANCH   1  16
ATOM     11  C   UNL     1      -0.844  11.687  22.716  0.00  0.00    +0.000 C 
ATOM     12  C   UNL     1      -0.111  10.675  21.886  0.00  0.00    +0.000 A 
ATOM     13  C   UNL     1      -0.062  10.764  20.545  0.00  0.00    +0.000 A 
ATOM     14  C   UNL     1       0.672   9.714  19.776  0.00  0.00    +0.000 A 
ATOM     15  O   UNL     1       0.797   9.832  18.561  0.00  0.00    +0.000 OA
ATOM     16  C   UNL     1       1.212   8.551  20.525  0.00  0.00    +0.000 A 
ATOM     17  C   UNL     1       1.114   8.607  21.863  0.00  0.00    +0.000 A 
ATOM     18  N   UNL     1       0.512   9.636  22.541  0.00  0.00    +0.000 N 
ATOM     19  H   UNL     1       0.428   9.570  23.553  0.00  0.00    +0.000 HD
ENDBRANCH   1  16
BRANCH   6  20
ATOM     20  C   UNL     1       2.898   2.772  17.501  0.00  0.00    +0.000 C 
ATOM     21  C   UNL     1       3.392   1.860  18.600  0.00  0.00    +0.000 C 
ATOM     22  C   UNL     1       1.957   2.293  18.577  0.00  0.00    +0.000 C 
ENDBRANCH   6  20
TORSDOF 2
ENDMDL
MODEL 2
REMARK VINA RESULT:      -7.1      1.739      2.976
REMARK  Name = 
REMARK  3 active torsions:
REMARK  status: ('A' for Active; 'I' for Inactive)
REMARK    1  A    between atoms: C_1  and  C_2
REMARK    2  A    between atoms: C_6  and  C_7
REMARK    3  A    between atoms: C_12  and  C_13
REMARK                            x       y       z     vdW  Elec       q    Type
REMARK                         _______ _______ _______ _____ _____    ______ ____
ROOT
ATOM      1  C   UNL     1       2.203   8.155  18.434  0.00  0.00    +0.000 C 
ATOM      2  O   UNL     1       2.457   8.450  17.265  0.00  0.00    +0.000 OA
ATOM      3  N   UNL     1       2.507   6.952  19.022  0.00  0.00    +0.000 N 
ATOM      4  C   UNL     1       3.119   5.909  18.325  0.00  0.00    +0.000 A 
ATOM      5  C   UNL     1       4.155   6.157  17.430  0.00  0.00    +0.000 A 
ATOM      6  C   UNL     1       4.651   5.133  16.618  0.00  0.00    +0.000 A 
ATOM      7  C   UNL     1       4.052   3.879  16.760  0.00  0.00    +0.000 A 
ATOM      8  C   UNL     1       3.067   3.702  17.723  0.00  0.00    +0.000 A 
ATOM      9  N   UNL     1       2.615   4.680  18.537  0.00  0.00    +0.000 NA
ATOM     10  H   UNL     1       2.006   6.676  19.864  0.00  0.00    +0.000 HD
ENDROOT
BRANCH   1  16
ATOM     11  C   UNL     1      -0.336  12.361  21.552  0.00  0.00    +0.000 C 
ATOM     12  C   UNL     1       0.236  11.175  20.834  0.00  0.00    +0.000 A 
ATOM     13  C   UNL     1       0.492  10.019  21.474  0.00  0.00    +0.000 A 
ATOM     14  C   UNL     1       1.077   8.881  20.703  0.00  0.00    +0.000 A 
ATOM     15  O   UNL     1       1.234   7.796  21.254  0.00  0.00    +0.000 OA
ATOM     16  C   UNL     1       1.463   9.121  19.289  0.00  0.00    +0.000 A 
ATOM     17  C   UNL     1       1.125  10.313  18.774  0.00  0.00    +0.000 A 
ATOM     18  N   UNL     1       0.502  11.304  19.490  0.00  0.00    +0.000 N 
ATOM     19  H   UNL     1       0.336  12.201  19.038  0.00  0.00    +0.000 HD
ENDBRANCH   1  16
BRANCH   6  20
ATOM     20  C   UNL     1       5.705   5.428  15.581  0.00  0.00    +0.000 C 
ATOM     21  C   UNL     1       7.052   4.750  15.674  0.00  0.00    +0.000 C 
ATOM     22  C   UNL     1       6.122   4.411  14.549  0.00  0.00    +0.000 C 
ENDBRANCH   6  20
TORSDOF 2
ENDMDL
MODEL 3
REMARK VINA RESULT:      -7.1      1.466      2.514
REMARK  Name = 
REMARK  3 active torsions:
REMARK  status: ('A' for Active; 'I' for Inactive)
REMARK    1  A    between atoms: C_1  and  C_2
REMARK    2  A    between atoms: C_6  and  C_7
REMARK    3  A    between atoms: C_12  and  C_13
REMARK                            x       y       z     vdW  Elec       q    Type
REMARK                         _______ _______ _______ _____ _____    ______ ____
ROOT
ATOM      1  C   UNL     1       2.131   7.714  19.115  0.00  0.00    +0.000 C 
ATOM      2  O   UNL     1       2.079   7.935  17.905  0.00  0.00    +0.000 OA
ATOM      3  N   UNL     1       2.756   6.634  19.688  0.00  0.00    +0.000 N 
ATOM      4  C   UNL     1       3.382   5.641  18.933  0.00  0.00    +0.000 A 
ATOM      5  C   UNL     1       4.150   5.966  17.819  0.00  0.00    +0.000 A 
ATOM      6  C   UNL     1       4.636   4.963  16.975  0.00  0.00    +0.000 A 
ATOM      7  C   UNL     1       4.309   3.648  17.317  0.00  0.00    +0.000 A 
ATOM      8  C   UNL     1       3.593   3.407  18.482  0.00  0.00    +0.000 A 
ATOM      9  N   UNL     1       3.156   4.373  19.320  0.00  0.00    +0.000 NA
ATOM     10  H   UNL     1       2.499   6.361  20.634  0.00  0.00    +0.000 HD
ENDROOT
BRANCH   1  16
ATOM     11  C   UNL     1      -0.907  10.791  23.009  0.00  0.00    +0.000 C 
ATOM     12  C   UNL     1      -0.077  10.135  21.946  0.00  0.00    +0.000 A 
ATOM     13  C   UNL     1       0.048  10.669  20.718  0.00  0.00    +0.000 A 
ATOM     14  C   UNL     1       0.878   9.957  19.700  0.00  0.00    +0.000 A 
ATOM     15  O   UNL     1       1.070  10.478  18.606  0.00  0.00    +0.000 OA
ATOM     16  C   UNL     1       1.428   8.624  20.057  0.00  0.00    +0.000 A 
ATOM     17  C   UNL     1       1.247   8.227  21.327  0.00  0.00    +0.000 A 
ATOM     18  N   UNL     1       0.556   8.954  22.262  0.00  0.00    +0.000 N 
ATOM     19  H   UNL     1       0.414   8.550  23.186  0.00  0.00    +0.000 HD
ENDBRANCH   1  16
BRANCH   6  20
ATOM     20  C   UNL     1       5.382   5.324  15.716  0.00  0.00    +0.000 C 
ATOM     21  C   UNL     1       6.870   5.068  15.632  0.00  0.00    +0.000 C 
ATOM     22  C   UNL     1       5.926   4.277  14.778  0.00  0.00    +0.000 C 
ENDBRANCH   6  20
TORSDOF 2
ENDMDL
MODEL 4
REMARK VINA RESULT:      -7.1      2.092      7.256
REMARK  Name = 
REMARK  3 active torsions:
REMARK  status: ('A' for Active; 'I' for Inactive)
REMARK    1  A    between atoms: C_1  and  C_2
REMARK    2  A    between atoms: C_6  and  C_7
REMARK    3  A    between atoms: C_12  and  C_13
REMARK                            x       y       z     vdW  Elec       q    Type
REMARK                         _______ _______ _______ _____ _____    ______ ____
ROOT
ATOM      1  C   UNL     1       2.886   6.713  18.209  0.00  0.00    +0.000 C 
ATOM      2  O   UNL     1       2.167   6.026  18.936  0.00  0.00    +0.000 OA
ATOM      3  N   UNL     1       2.770   8.073  18.052  0.00  0.00    +0.000 N 
ATOM      4  C   UNL     1       1.780   8.821  18.692  0.00  0.00    +0.000 A 
ATOM      5  C   UNL     1       1.438   8.570  20.017  0.00  0.00    +0.000 A 
ATOM      6  C   UNL     1       0.339   9.209  20.599  0.00  0.00    +0.000 A 
ATOM      7  C   UNL     1      -0.373  10.091  19.783  0.00  0.00    +0.000 A 
ATOM      8  C   UNL     1       0.075  10.334  18.491  0.00  0.00    +0.000 A 
ATOM      9  N   UNL     1       1.160   9.748  17.940  0.00  0.00    +0.000 NA
ATOM     10  H   UNL     1       3.179   8.510  17.229  0.00  0.00    +0.000 HD
ENDROOT
BRANCH   1  16
ATOM     11  C   UNL     1       6.864   4.566  14.545  0.00  0.00    +0.000 C 
ATOM     12  C   UNL     1       5.860   4.991  15.575  0.00  0.00    +0.000 A 
ATOM     13  C   UNL     1       5.070   4.099  16.200  0.00  0.00    +0.000 A 
ATOM     14  C   UNL     1       4.080   4.590  17.206  0.00  0.00    +0.000 A 
ATOM     15  O   UNL     1       3.416   3.779  17.845  0.00  0.00    +0.000 OA
ATOM     16  C   UNL     1       3.930   6.057  17.379  0.00  0.00    +0.000 A 
ATOM     17  C   UNL     1       4.803   6.827  16.710  0.00  0.00    +0.000 A 
ATOM     18  N   UNL     1       5.763   6.333  15.864  0.00  0.00    +0.000 N 
ATOM     19  H   UNL     1       6.344   6.991  15.349  0.00  0.00    +0.000 HD
ENDBRANCH   1  16
BRANCH   6  20
ATOM     20  C   UNL     1      -0.088   8.859  22.002  0.00  0.00    +0.000 C 
ATOM     21  C   UNL     1       0.684   9.417  23.176  0.00  0.00    +0.000 C 
ATOM     22  C   UNL     1      -0.722   9.871  22.923  0.00  0.00    +0.000 C 
ENDBRANCH   6  20
TORSDOF 2
ENDMDL
MODEL 5
REMARK VINA RESULT:      -7.1      2.816      4.092
REMARK  Name = 
REMARK  3 active torsions:
REMARK  status: ('A' for Active; 'I' for Inactive)
REMARK    1  A    between atoms: C_1  and  C_2
REMARK    2  A    between atoms: C_6  and  C_7
REMARK    3  A    between atoms: C_12  and  C_13
REMARK                            x       y       z     vdW  Elec       q    Type
REMARK                         _______ _______ _______ _____ _____    ______ ____
ROOT
ATOM      1  C   UNL     1       3.660   5.862  17.448  0.00  0.00    +0.000 C 
ATOM      2  O   UNL     1       3.327   4.693  17.257  0.00  0.00    +0.000 OA
ATOM      3  N   UNL     1       4.693   6.498  16.802  0.00  0.00    +0.000 N 
ATOM      4  C   UNL     1       5.504   5.853  15.867  0.00  0.00    +0.000 A 
ATOM      5  C   UNL     1       4.961   4.980  14.930  0.00  0.00    +0.000 A 
ATOM      6  C   UNL     1       5.794   4.216  14.107  0.00  0.00    +0.000 A 
ATOM      7  C   UNL     1       7.169   4.383  14.285  0.00  0.00    +0.000 A 
ATOM      8  C   UNL     1       7.627   5.323  15.199  0.00  0.00    +0.000 A 
ATOM      9  N   UNL     1       6.824   6.091  15.966  0.00  0.00    +0.000 NA
ATOM     10  H   UNL     1       5.094   7.335  17.221  0.00  0.00    +0.000 HD
ENDROOT
BRANCH   1  16
ATOM     11  C   UNL     1       0.632   8.495  21.662  0.00  0.00    +0.000 C 
ATOM     12  C   UNL     1       1.459   7.959  20.532  0.00  0.00    +0.000 A 
ATOM     13  C   UNL     1       1.579   8.623  19.368  0.00  0.00    +0.000 A 
ATOM     14  C   UNL     1       2.406   8.027  18.277  0.00  0.00    +0.000 A 
ATOM     15  O   UNL     1       2.594   8.664  17.244  0.00  0.00    +0.000 OA
ATOM     16  C   UNL     1       2.960   6.665  18.485  0.00  0.00    +0.000 A 
ATOM     17  C   UNL     1       2.784   6.132  19.705  0.00  0.00    +0.000 A 
ATOM     18  N   UNL     1       2.095   6.752  20.716  0.00  0.00    +0.000 N 
ATOM     19  H   UNL     1       1.957   6.251  21.591  0.00  0.00    +0.000 HD
ENDBRANCH   1  16
BRANCH   6  20
ATOM     20  C   UNL     1       5.203   3.199  13.162  0.00  0.00    +0.000 C 
ATOM     21  C   UNL     1       4.709   3.643  11.805  0.00  0.00    +0.000 C 
ATOM     22  C   UNL     1       5.916   2.761  11.909  0.00  0.00    +0.000 C 
ENDBRANCH   6  20
TORSDOF 2
ENDMDL
MODEL 6
REMARK VINA RESULT:      -7.1      6.192      7.822
REMARK  Name = 
REMARK  3 active torsions:
REMARK  status: ('A' for Active; 'I' for Inactive)
REMARK    1  A    between atoms: C_1  and  C_2
REMARK    2  A    between atoms: C_6  and  C_7
REMARK    3  A    between atoms: C_12  and  C_13
REMARK                            x       y       z     vdW  Elec       q    Type
REMARK                         _______ _______ _______ _____ _____    ______ ____
ROOT
ATOM      1  C   UNL     1       8.466   9.418  18.260  0.00  0.00    +0.000 C 
ATOM      2  O   UNL     1       7.509   9.666  17.526  0.00  0.00    +0.000 OA
ATOM      3  N   UNL     1       8.773   8.174  18.755  0.00  0.00    +0.000 N 
ATOM      4  C   UNL     1       7.991   7.048  18.493  0.00  0.00    +0.000 A 
ATOM      5  C   UNL     1       7.461   6.824  17.226  0.00  0.00    +0.000 A 
ATOM      6  C   UNL     1       6.549   5.787  17.012  0.00  0.00    +0.000 A 
ATOM      7  C   UNL     1       6.214   5.012  18.126  0.00  0.00    +0.000 A 
ATOM      8  C   UNL     1       6.838   5.263  19.341  0.00  0.00    +0.000 A 
ATOM      9  N   UNL     1       7.749   6.239  19.539  0.00  0.00    +0.000 NA
ATOM     10  H   UNL     1       9.372   8.105  19.575  0.00  0.00    +0.000 HD
ENDROOT
BRANCH   1  16
ATOM     11  C   UNL     1      12.306  13.570  19.632  0.00  0.00    +0.000 C 
ATOM     12  C   UNL     1      11.235  12.544  19.405  0.00  0.00    +0.000 A 
ATOM     13  C   UNL     1      10.626  11.922  20.430  0.00  0.00    +0.000 A 
ATOM     14  C   UNL     1       9.578  10.898  20.135  0.00  0.00    +0.000 A 
ATOM     15  O   UNL     1       8.955  10.388  21.061  0.00  0.00    +0.000 OA
ATOM     16  C   UNL     1       9.346  10.527  18.716  0.00  0.00    +0.000 A 
ATOM     17  C   UNL     1      10.007  11.248  17.796  0.00  0.00    +0.000 A 
ATOM     18  N   UNL     1      10.894  12.247  18.105  0.00  0.00    +0.000 N 
ATOM     19  H   UNL     1      11.398  12.703  17.347  0.00  0.00    +0.000 HD
ENDBRANCH   1  16
BRANCH   6  20
ATOM     20  C   UNL     1       5.902   5.609  15.662  0.00  0.00    +0.000 C 
ATOM     21  C   UNL     1       6.566   4.729  14.628  0.00  0.00    +0.000 C 
ATOM     22  C   UNL     1       5.265   4.309  15.243  0.00  0.00    +0.000 C 
ENDBRANCH   6  20
TORSDOF 2
ENDMDL
MODEL 7
REMARK VINA RESULT:      -7.0      2.199      3.348
REMARK  Name = 
REMARK  3 active torsions:
REMARK  status: ('A' for Active; 'I' for Inactive)
REMARK    1  A    between atoms: C_1  and  C_2
REMARK    2  A    between atoms: C_6  and  C_7
REMARK    3  A    between atoms: C_12  and  C_13
REMARK                            x       y       z     vdW  Elec       q    Type
REMARK                         _______ _______ _______ _____ _____    ______ ____
ROOT
ATOM      1  C   UNL     1       2.513   7.709  18.773  0.00  0.00    +0.000 C 
ATOM      2  O   UNL     1       3.205   7.734  17.756  0.00  0.00    +0.000 OA
ATOM      3  N   UNL     1       2.554   6.719  19.725  0.00  0.00    +0.000 N 
ATOM      4  C   UNL     1       3.383   5.602  19.610  0.00  0.00    +0.000 A 
ATOM      5  C   UNL     1       4.689   5.724  19.144  0.00  0.00    +0.000 A 
ATOM      6  C   UNL     1       5.456   4.586  18.878  0.00  0.00    +0.000 A 
ATOM      7  C   UNL     1       4.841   3.352  19.104  0.00  0.00    +0.000 A 
ATOM      8  C   UNL     1       3.556   3.320  19.631  0.00  0.00    +0.000 A 
ATOM      9  N   UNL     1       2.828   4.418  19.927  0.00  0.00    +0.000 NA
ATOM     10  H   UNL     1       1.762   6.608  20.354  0.00  0.00    +0.000 HD
ENDROOT
BRANCH   1  16
ATOM     11  C   UNL     1      -1.136  12.216  19.256  0.00  0.00    +0.000 C 
ATOM     12  C   UNL     1      -0.269  10.992  19.255  0.00  0.00    +0.000 A 
ATOM     13  C   UNL     1       0.103  10.391  20.399  0.00  0.00    +0.000 A 
ATOM     14  C   UNL     1       0.982   9.184  20.330  0.00  0.00    +0.000 A 
ATOM     15  O   UNL     1       1.256   8.577  21.360  0.00  0.00    +0.000 OA
ATOM     16  C   UNL     1       1.504   8.777  19.000  0.00  0.00    +0.000 A 
ATOM     17  C   UNL     1       1.028   9.452  17.942  0.00  0.00    +0.000 A 
ATOM     18  N   UNL     1       0.147  10.499  18.039  0.00  0.00    +0.000 N 
ATOM     19  H   UNL     1      -0.116  10.995  17.190  0.00  0.00    +0.000 HD
ENDBRANCH   1  16
BRANCH   6  20
ATOM     20  C   UNL     1       6.834   4.721  18.280  0.00  0.00    +0.000 C 
ATOM     21  C   UNL     1       6.999   4.698  16.777  0.00  0.00    +0.000 C 
ATOM     22  C   UNL     1       7.268   5.961  17.539  0.00  0.00    +0.000 C 
ENDBRANCH   6  20
TORSDOF 2
ENDMDL
MODEL 8
REMARK VINA RESULT:      -6.9      1.904      3.176
REMARK  Name = 
REMARK  3 active torsions:
REMARK  status: ('A' for Active; 'I' for Inactive)
REMARK    1  A    between atoms: C_1  and  C_2
REMARK    2  A    between atoms: C_6  and  C_7
REMARK    3  A    between atoms: C_12  and  C_13
REMARK                            x       y       z     vdW  Elec       q    Type
REMARK                         _______ _______ _______ _____ _____    ______ ____
ROOT
ATOM      1  C   UNL     1       2.484   7.796  18.305  0.00  0.00    +0.000 C 
ATOM      2  O   UNL     1       3.340   8.107  17.477  0.00  0.00    +0.000 OA
ATOM      3  N   UNL     1       2.260   6.519  18.760  0.00  0.00    +0.000 N 
ATOM      4  C   UNL     1       2.979   5.418  18.289  0.00  0.00    +0.000 A 
ATOM      5  C   UNL     1       4.351   5.499  18.070  0.00  0.00    +0.000 A 
ATOM      6  C   UNL     1       5.032   4.450  17.447  0.00  0.00    +0.000 A 
ATOM      7  C   UNL     1       4.265   3.345  17.071  0.00  0.00    +0.000 A 
ATOM      8  C   UNL     1       2.913   3.317  17.385  0.00  0.00    +0.000 A 
ATOM      9  N   UNL     1       2.260   4.313  18.022  0.00  0.00    +0.000 NA
ATOM     10  H   UNL     1       1.365   6.300  19.191  0.00  0.00    +0.000 HD
ENDROOT
BRANCH   1  16
ATOM     11  C   UNL     1      -0.808  12.267  20.045  0.00  0.00    +0.000 C 
ATOM     12  C   UNL     1      -0.031  11.030  19.707  0.00  0.00    +0.000 A 
ATOM     13  C   UNL     1       0.345  10.152  20.654  0.00  0.00    +0.000 A 
ATOM     14  C   UNL     1       1.130   8.946  20.251  0.00  0.00    +0.000 A 
ATOM     15  O   UNL     1       1.404   8.095  21.092  0.00  0.00    +0.000 OA
ATOM     16  C   UNL     1       1.565   8.837  18.835  0.00  0.00    +0.000 A 
ATOM     17  C   UNL     1       1.094   9.773  17.995  0.00  0.00    +0.000 A 
ATOM     18  N   UNL     1       0.296  10.817  18.386  0.00  0.00    +0.000 N 
ATOM     19  H   UNL     1       0.033  11.516  17.695  0.00  0.00    +0.000 HD
ENDBRANCH   1  16
BRANCH   6  20
ATOM     20  C   UNL     1       6.499   4.583  17.123  0.00  0.00    +0.000 C 
ATOM     21  C   UNL     1       6.921   4.935  15.714  0.00  0.00    +0.000 C 
ATOM     22  C   UNL     1       7.136   5.916  16.827  0.00  0.00    +0.000 C 
ENDBRANCH   6  20
TORSDOF 2
ENDMDL
MODEL 9
REMARK VINA RESULT:      -6.9      1.753      2.953
REMARK  Name = 
REMARK  3 active torsions:
REMARK  status: ('A' for Active; 'I' for Inactive)
REMARK    1  A    between atoms: C_1  and  C_2
REMARK    2  A    between atoms: C_6  and  C_7
REMARK    3  A    between atoms: C_12  and  C_13
REMARK                            x       y       z     vdW  Elec       q    Type
REMARK                         _______ _______ _______ _____ _____    ______ ____
ROOT
ATOM      1  C   UNL     1       1.508   8.858  19.306  0.00  0.00    +0.000 C 
ATOM      2  O   UNL     1       1.647   9.132  18.114  0.00  0.00    +0.000 OA
ATOM      3  N   UNL     1       1.948   7.701  19.901  0.00  0.00    +0.000 N 
ATOM      4  C   UNL     1       2.581   6.683  19.186  0.00  0.00    +0.000 A 
ATOM      5  C   UNL     1       3.523   6.977  18.205  0.00  0.00    +0.000 A 
ATOM      6  C   UNL     1       4.030   5.966  17.383  0.00  0.00    +0.000 A 
ATOM      7  C   UNL     1       3.541   4.677  17.607  0.00  0.00    +0.000 A 
ATOM      8  C   UNL     1       2.650   4.459  18.650  0.00  0.00    +0.000 A 
ATOM      9  N   UNL     1       2.190   5.428  19.471  0.00  0.00    +0.000 NA
ATOM     10  H   UNL     1       1.537   7.417  20.788  0.00  0.00    +0.000 HD
ENDROOT
BRANCH   1  16
ATOM     11  C   UNL     1      -0.900  12.860  22.778  0.00  0.00    +0.000 C 
ATOM     12  C   UNL     1      -0.405  11.740  21.911  0.00  0.00    +0.000 A 
ATOM     13  C   UNL     1      -0.637  10.452  22.222  0.00  0.00    +0.000 A 
ATOM     14  C   UNL     1      -0.103   9.384  21.324  0.00  0.00    +0.000 A 
ATOM     15  O   UNL     1      -0.381   8.210  21.550  0.00  0.00    +0.000 OA
ATOM     16  C   UNL     1       0.766   9.794  20.192  0.00  0.00    +0.000 A 
ATOM     17  C   UNL     1       0.889  11.115  19.985  0.00  0.00    +0.000 A 
ATOM     18  N   UNL     1       0.306  12.069  20.779  0.00  0.00    +0.000 N 
ATOM     19  H   UNL     1       0.501  13.049  20.587  0.00  0.00    +0.000 HD
ENDBRANCH   1  16
BRANCH   6  20
ATOM     20  C   UNL     1       4.974   6.304  16.257  0.00  0.00    +0.000 C 
ATOM     21  C   UNL     1       6.438   5.951  16.381  0.00  0.00    +0.000 C 
ATOM     22  C   UNL     1       5.582   5.243  15.375  0.00  0.00    +0.000 C 
ENDBRANCH   6  20
TORSDOF 2
ENDMDL
