MODEL 1
REMARK VINA RESULT:      -7.1      0.000      0.000
REMARK  Name = 
REMARK  6 active torsions:
REMARK  status: ('A' for Active; 'I' for Inactive)
REMARK    1  A    between atoms: C_1  and  N_2
REMARK    2  A    between atoms: N_2  and  C_3
REMARK    3  A    between atoms: N_2  and  C_4
REMARK    4  A    between atoms: C_4  and  C_5
REMARK    5  A    between atoms: C_12  and  C_14
REMARK    6  A    between atoms: N_18  and  C_19
REMARK                            x       y       z     vdW  Elec       q    Type
REMARK                         _______ _______ _______ _____ _____    ______ ____
ROOT
ATOM      1  C   UNL     1       6.175   4.286  16.685  0.00  0.00    +0.000 C 
ATOM      2  O   UNL     1       7.554   4.447  17.090  0.00  0.00    +0.000 OA
ATOM      3  C   UNL     1       7.704   5.760  17.666  0.00  0.00    +0.000 C 
ATOM      4  C   UNL     1       6.299   6.285  17.920  0.00  0.00    +0.000 C 
ATOM      5  C   UNL     1       5.791   5.769  19.270  0.00  0.00    +0.000 C 
ATOM      6  C   UNL     1       4.274   5.694  19.372  0.00  0.00    +0.000 C 
ATOM      7  N   UNL     1       3.649   5.087  18.196  0.00  0.00    +0.000 N 
ATOM      8  C   UNL     1       2.753   4.006  18.186  0.00  0.00    +0.000 C 
ATOM      9  O   UNL     1       2.393   3.516  17.112  0.00  0.00    +0.000 OA
ATOM     10  C   UNL     1       4.039   5.682  16.920  0.00  0.00    +0.000 C 
ATOM     11  C   UNL     1       5.549   5.679  16.746  0.00  0.00    +0.000 C 
ENDROOT
BRANCH   8  12
ATOM     12  C   UNL     1       2.295   3.435  19.444  0.00  0.00    +0.000 A 
ATOM     13  C   UNL     1       1.061   3.520  20.088  0.00  0.00    +0.000 A 
ATOM     14  C   UNL     1       1.153   2.875  21.339  0.00  0.00    +0.000 A 
ATOM     15  C   UNL     1       2.389   2.280  21.392  0.00  0.00    +0.000 A 
ATOM     16  N   UNL     1       3.060   2.589  20.234  0.00  0.00    +0.000 N 
ATOM     17  C   UNL     1       4.399   2.121  19.935  0.00  0.00    +0.000 C 
ENDBRANCH   8  12
BRANCH   1  18
ATOM     18  C   UNL     1       6.015   3.549  15.341  0.00  0.00    +0.000 C 
BRANCH  18  20
ATOM     19  C   UNL     1       7.343   4.926  13.835  0.00  0.00    +0.000 C 
ATOM     20  N   UNL     1       6.011   4.386  14.120  0.00  0.00    +0.000 NA
ATOM     21  C   UNL     1       5.568   3.574  12.982  0.00  0.00    +0.000 C 
ENDBRANCH  18  20
ENDBRANCH   1  18
TORSDOF 3
ENDMDL
MODEL 2
REMARK VINA RESULT:      -6.8      2.181      6.064
REMARK  Name = 
REMARK  6 active torsions:
REMARK  status: ('A' for Active; 'I' for Inactive)
REMARK    1  A    between atoms: C_1  and  N_2
REMARK    2  A    between atoms: N_2  and  C_3
REMARK    3  A    between atoms: N_2  and  C_4
REMARK    4  A    between atoms: C_4  and  C_5
REMARK    5  A    between atoms: C_12  and  C_14
REMARK    6  A    between atoms: N_18  and  C_19
REMARK                            x       y       z     vdW  Elec       q    Type
REMARK                         _______ _______ _______ _____ _____    ______ ____
ROOT
ATOM      1  C   UNL     1       1.882   4.683  20.474  0.00  0.00    +0.000 C 
ATOM      2  O   UNL     1       1.916   3.973  21.734  0.00  0.00    +0.000 OA
ATOM      3  C   UNL     1       1.660   2.579  21.472  0.00  0.00    +0.000 C 
ATOM      4  C   UNL     1       1.806   2.386  19.970  0.00  0.00    +0.000 C 
ATOM      5  C   UNL     1       3.282   2.165  19.618  0.00  0.00    +0.000 C 
ATOM      6  C   UNL     1       3.642   2.559  18.192  0.00  0.00    +0.000 C 
ATOM      7  N   UNL     1       3.094   3.858  17.799  0.00  0.00    +0.000 N 
ATOM      8  C   UNL     1       3.809   4.944  17.270  0.00  0.00    +0.000 C 
ATOM      9  O   UNL     1       3.240   6.025  17.093  0.00  0.00    +0.000 OA
ATOM     10  C   UNL     1       1.657   4.005  18.013  0.00  0.00    +0.000 C 
ATOM     11  C   UNL     1       1.279   3.715  19.456  0.00  0.00    +0.000 C 
ENDROOT
BRANCH   8  12
ATOM     12  C   UNL     1       5.229   4.806  16.985  0.00  0.00    +0.000 A 
ATOM     13  C   UNL     1       5.899   4.584  15.782  0.00  0.00    +0.000 A 
ATOM     14  C   UNL     1       7.275   4.422  16.048  0.00  0.00    +0.000 A 
ATOM     15  C   UNL     1       7.457   4.684  17.384  0.00  0.00    +0.000 A 
ATOM     16  N   UNL     1       6.228   4.951  17.936  0.00  0.00    +0.000 N 
ATOM     17  C   UNL     1       6.033   5.283  19.333  0.00  0.00    +0.000 C 
ENDBRANCH   8  12
BRANCH   1  18
ATOM     18  C   UNL     1       1.192   6.058  20.566  0.00  0.00    +0.000 C 
BRANCH  18  20
ATOM     19  C   UNL     1       2.158   7.791  19.154  0.00  0.00    +0.000 C 
ATOM     20  N   UNL     1       2.071   7.248  20.513  0.00  0.00    +0.000 NA
ATOM     21  C   UNL     1       1.540   8.279  21.410  0.00  0.00    +0.000 C 
ENDBRANCH  18  20
ENDBRANCH   1  18
TORSDOF 3
ENDMDL
MODEL 3
REMARK VINA RESULT:      -6.6      2.187      6.175
REMARK  Name = 
REMARK  6 active torsions:
REMARK  status: ('A' for Active; 'I' for Inactive)
REMARK    1  A    between atoms: C_1  and  N_2
REMARK    2  A    between atoms: N_2  and  C_3
REMARK    3  A    between atoms: N_2  and  C_4
REMARK    4  A    between atoms: C_4  and  C_5
REMARK    5  A    between atoms: C_12  and  C_14
REMARK    6  A    between atoms: N_18  and  C_19
REMARK                            x       y       z     vdW  Elec       q    Type
REMARK                         _______ _______ _______ _____ _____    ______ ____
ROOT
ATOM      1  C   UNL     1       1.767   4.695  20.422  0.00  0.00    +0.000 C 
ATOM      2  O   UNL     1       1.660   3.959  21.663  0.00  0.00    +0.000 OA
ATOM      3  C   UNL     1       1.401   2.577  21.346  0.00  0.00    +0.000 C 
ATOM      4  C   UNL     1       1.690   2.411  19.862  0.00  0.00    +0.000 C 
ATOM      5  C   UNL     1       3.188   2.162  19.652  0.00  0.00    +0.000 C 
ATOM      6  C   UNL     1       3.696   2.575  18.277  0.00  0.00    +0.000 C 
ATOM      7  N   UNL     1       3.218   3.894  17.862  0.00  0.00    +0.000 N 
ATOM      8  C   UNL     1       4.006   4.974  17.430  0.00  0.00    +0.000 C 
ATOM      9  O   UNL     1       3.482   6.071  17.222  0.00  0.00    +0.000 OA
ATOM     10  C   UNL     1       1.771   4.073  17.937  0.00  0.00    +0.000 C 
ATOM     11  C   UNL     1       1.246   3.762  19.329  0.00  0.00    +0.000 C 
ENDROOT
BRANCH   8  12
ATOM     12  C   UNL     1       5.444   4.806  17.283  0.00  0.00    +0.000 A 
ATOM     13  C   UNL     1       6.461   4.780  18.237  0.00  0.00    +0.000 A 
ATOM     14  C   UNL     1       7.704   4.695  17.577  0.00  0.00    +0.000 A 
ATOM     15  C   UNL     1       7.437   4.527  16.241  0.00  0.00    +0.000 A 
ATOM     16  N   UNL     1       6.075   4.557  16.073  0.00  0.00    +0.000 N 
ATOM     17  C   UNL     1       5.422   4.400  14.788  0.00  0.00    +0.000 C 
ENDBRANCH   8  12
BRANCH   1  18
ATOM     18  C   UNL     1       1.102   6.084  20.477  0.00  0.00    +0.000 C 
BRANCH  18  20
ATOM     19  C   UNL     1       2.137   7.845  19.152  0.00  0.00    +0.000 C 
ATOM     20  N   UNL     1       2.008   7.255  20.487  0.00  0.00    +0.000 NA
ATOM     21  C   UNL     1       1.480   8.264  21.410  0.00  0.00    +0.000 C 
ENDBRANCH  18  20
ENDBRANCH   1  18
TORSDOF 3
ENDMDL
MODEL 4
REMARK VINA RESULT:      -6.3      1.623      6.041
REMARK  Name = 
REMARK  6 active torsions:
REMARK  status: ('A' for Active; 'I' for Inactive)
REMARK    1  A    between atoms: C_1  and  N_2
REMARK    2  A    between atoms: N_2  and  C_3
REMARK    3  A    between atoms: N_2  and  C_4
REMARK    4  A    between atoms: C_4  and  C_5
REMARK    5  A    between atoms: C_12  and  C_14
REMARK    6  A    between atoms: N_18  and  C_19
REMARK                            x       y       z     vdW  Elec       q    Type
REMARK                         _______ _______ _______ _____ _____    ______ ____
ROOT
ATOM      1  C   UNL     1       2.878   2.735  20.174  0.00  0.00    +0.000 C 
ATOM      2  O   UNL     1       1.590   2.107  19.976  0.00  0.00    +0.000 OA
ATOM      3  C   UNL     1       0.623   3.141  19.702  0.00  0.00    +0.000 C 
ATOM      4  C   UNL     1       1.413   4.404  19.395  0.00  0.00    +0.000 C 
ATOM      5  C   UNL     1       1.819   4.413  17.917  0.00  0.00    +0.000 C 
ATOM      6  C   UNL     1       3.063   5.240  17.623  0.00  0.00    +0.000 C 
ATOM      7  N   UNL     1       4.153   4.993  18.568  0.00  0.00    +0.000 N 
ATOM      8  C   UNL     1       5.473   4.636  18.251  0.00  0.00    +0.000 C 
ATOM      9  O   UNL     1       6.262   4.341  19.153  0.00  0.00    +0.000 OA
ATOM     10  C   UNL     1       3.784   5.124  19.975  0.00  0.00    +0.000 C 
ATOM     11  C   UNL     1       2.603   4.231  20.323  0.00  0.00    +0.000 C 
ENDROOT
BRANCH   8  12
ATOM     12  C   UNL     1       5.888   4.562  16.858  0.00  0.00    +0.000 A 
ATOM     13  C   UNL     1       5.539   3.663  15.850  0.00  0.00    +0.000 A 
ATOM     14  C   UNL     1       6.293   3.958  14.695  0.00  0.00    +0.000 A 
ATOM     15  C   UNL     1       6.988   5.113  14.954  0.00  0.00    +0.000 A 
ATOM     16  N   UNL     1       6.712   5.494  16.245  0.00  0.00    +0.000 N 
ATOM     17  C   UNL     1       7.265   6.682  16.865  0.00  0.00    +0.000 C 
ENDBRANCH   8  12
BRANCH   1  18
ATOM     18  C   UNL     1       3.700   2.098  21.311  0.00  0.00    +0.000 C 
BRANCH  18  20
ATOM     19  C   UNL     1       5.544   0.646  21.956  0.00  0.00    +0.000 C 
ATOM     20  N   UNL     1       5.048   1.597  20.958  0.00  0.00    +0.000 NA
ATOM     21  C   UNL     1       4.987   0.935  19.651  0.00  0.00    +0.000 C 
ENDBRANCH  18  20
ENDBRANCH   1  18
TORSDOF 3
ENDMDL
MODEL 5
REMARK VINA RESULT:      -6.1      0.919      1.562
REMARK  Name = 
REMARK  6 active torsions:
REMARK  status: ('A' for Active; 'I' for Inactive)
REMARK    1  A    between atoms: C_1  and  N_2
REMARK    2  A    between atoms: N_2  and  C_3
REMARK    3  A    between atoms: N_2  and  C_4
REMARK    4  A    between atoms: C_4  and  C_5
REMARK    5  A    between atoms: C_12  and  C_14
REMARK    6  A    between atoms: N_18  and  C_19
REMARK                            x       y       z     vdW  Elec       q    Type
REMARK                         _______ _______ _______ _____ _____    ______ ____
ROOT
ATOM      1  C   UNL     1       5.904   4.576  16.267  0.00  0.00    +0.000 C 
ATOM      2  O   UNL     1       7.325   4.365  16.436  0.00  0.00    +0.000 OA
ATOM      3  C   UNL     1       7.842   5.423  17.267  0.00  0.00    +0.000 C 
ATOM      4  C   UNL     1       6.638   6.111  17.892  0.00  0.00    +0.000 C 
ATOM      5  C   UNL     1       6.208   5.354  19.154  0.00  0.00    +0.000 C 
ATOM      6  C   UNL     1       4.740   5.537  19.513  0.00  0.00    +0.000 C 
ATOM      7  N   UNL     1       3.845   5.394  18.363  0.00  0.00    +0.000 N 
ATOM      8  C   UNL     1       2.734   4.540  18.266  0.00  0.00    +0.000 C 
ATOM      9  O   UNL     1       2.136   4.433  17.192  0.00  0.00    +0.000 OA
ATOM     10  C   UNL     1       4.188   6.227  17.214  0.00  0.00    +0.000 C 
ATOM     11  C   UNL     1       5.623   5.993  16.769  0.00  0.00    +0.000 C 
ENDROOT
BRANCH   8  12
ATOM     12  C   UNL     1       2.329   3.747  19.416  0.00  0.00    +0.000 A 
ATOM     13  C   UNL     1       2.526   2.398  19.708  0.00  0.00    +0.000 A 
ATOM     14  C   UNL     1       1.848   2.085  20.904  0.00  0.00    +0.000 A 
ATOM     15  C   UNL     1       1.362   3.266  21.409  0.00  0.00    +0.000 A 
ATOM     16  N   UNL     1       1.686   4.269  20.529  0.00  0.00    +0.000 N 
ATOM     17  C   UNL     1       1.341   5.661  20.740  0.00  0.00    +0.000 C 
ENDBRANCH   8  12
BRANCH   1  18
ATOM     18  C   UNL     1       5.407   4.271  14.840  0.00  0.00    +0.000 C 
BRANCH  18  20
ATOM     19  C   UNL     1       5.822   3.355  12.623  0.00  0.00    +0.000 C 
ATOM     20  N   UNL     1       6.433   3.879  13.848  0.00  0.00    +0.000 NA
ATOM     21  C   UNL     1       7.252   5.049  13.516  0.00  0.00    +0.000 C 
ENDBRANCH  18  20
ENDBRANCH   1  18
TORSDOF 3
ENDMDL
MODEL 6
REMARK VINA RESULT:      -6.0      0.589      1.309
REMARK  Name = 
REMARK  6 active torsions:
REMARK  status: ('A' for Active; 'I' for Inactive)
REMARK    1  A    between atoms: C_1  and  N_2
REMARK    2  A    between atoms: N_2  and  C_3
REMARK    3  A    between atoms: N_2  and  C_4
REMARK    4  A    between atoms: C_4  and  C_5
REMARK    5  A    between atoms: C_12  and  C_14
REMARK    6  A    between atoms: N_18  and  C_19
REMARK                            x       y       z     vdW  Elec       q    Type
REMARK                         _______ _______ _______ _____ _____    ______ ____
ROOT
ATOM      1  C   UNL     1       6.297   4.407  16.565  0.00  0.00    +0.000 C 
ATOM      2  O   UNL     1       7.677   4.750  16.834  0.00  0.00    +0.000 OA
ATOM      3  C   UNL     1       7.714   6.091  17.361  0.00  0.00    +0.000 C 
ATOM      4  C   UNL     1       6.283   6.449  17.735  0.00  0.00    +0.000 C 
ATOM      5  C   UNL     1       5.968   5.922  19.139  0.00  0.00    +0.000 C 
ATOM      6  C   UNL     1       4.487   5.667  19.385  0.00  0.00    +0.000 C 
ATOM      7  N   UNL     1       3.840   4.947  18.288  0.00  0.00    +0.000 N 
ATOM      8  C   UNL     1       3.088   3.765  18.389  0.00  0.00    +0.000 C 
ATOM      9  O   UNL     1       2.696   3.197  17.365  0.00  0.00    +0.000 OA
ATOM     10  C   UNL     1       4.034   5.539  16.967  0.00  0.00    +0.000 C 
ATOM     11  C   UNL     1       5.511   5.715  16.652  0.00  0.00    +0.000 C 
ENDROOT
BRANCH   8  12
ATOM     12  C   UNL     1       2.821   3.187  19.697  0.00  0.00    +0.000 A 
ATOM     13  C   UNL     1       3.549   2.267  20.453  0.00  0.00    +0.000 A 
ATOM     14  C   UNL     1       2.814   1.946  21.613  0.00  0.00    +0.000 A 
ATOM     15  C   UNL     1       1.716   2.770  21.632  0.00  0.00    +0.000 A 
ATOM     16  N   UNL     1       1.744   3.541  20.496  0.00  0.00    +0.000 N 
ATOM     17  C   UNL     1       0.742   4.540  20.181  0.00  0.00    +0.000 C 
ENDBRANCH   8  12
BRANCH   1  18
ATOM     18  C   UNL     1       6.109   3.610  15.260  0.00  0.00    +0.000 C 
BRANCH  18  20
ATOM     19  C   UNL     1       7.376   4.899  13.629  0.00  0.00    +0.000 C 
ATOM     20  N   UNL     1       6.054   4.392  14.004  0.00  0.00    +0.000 NA
ATOM     21  C   UNL     1       5.543   3.538  12.927  0.00  0.00    +0.000 C 
ENDBRANCH  18  20
ENDBRANCH   1  18
TORSDOF 3
ENDMDL
MODEL 7
REMARK VINA RESULT:      -6.0      2.407      6.223
REMARK  Name = 
REMARK  6 active torsions:
REMARK  status: ('A' for Active; 'I' for Inactive)
REMARK    1  A    between atoms: C_1  and  N_2
REMARK    2  A    between atoms: N_2  and  C_3
REMARK    3  A    between atoms: N_2  and  C_4
REMARK    4  A    between atoms: C_4  and  C_5
REMARK    5  A    between atoms: C_12  and  C_14
REMARK    6  A    between atoms: N_18  and  C_19
REMARK                            x       y       z     vdW  Elec       q    Type
REMARK                         _______ _______ _______ _____ _____    ______ ____
ROOT
ATOM      1  C   UNL     1       2.308   5.067  20.612  0.00  0.00    +0.000 C 
ATOM      2  O   UNL     1       2.204   4.054  21.641  0.00  0.00    +0.000 OA
ATOM      3  C   UNL     1       1.500   2.923  21.090  0.00  0.00    +0.000 C 
ATOM      4  C   UNL     1       1.468   3.124  19.582  0.00  0.00    +0.000 C 
ATOM      5  C   UNL     1       2.767   2.597  18.963  0.00  0.00    +0.000 C 
ATOM      6  C   UNL     1       3.131   3.252  17.638  0.00  0.00    +0.000 C 
ATOM      7  N   UNL     1       2.998   4.709  17.663  0.00  0.00    +0.000 N 
ATOM      8  C   UNL     1       3.982   5.647  17.310  0.00  0.00    +0.000 C 
ATOM      9  O   UNL     1       3.776   6.850  17.492  0.00  0.00    +0.000 OA
ATOM     10  C   UNL     1       1.702   5.198  18.126  0.00  0.00    +0.000 C 
ATOM     11  C   UNL     1       1.356   4.637  19.496  0.00  0.00    +0.000 C 
ENDROOT
BRANCH   8  12
ATOM     12  C   UNL     1       5.259   5.191  16.783  0.00  0.00    +0.000 A 
ATOM     13  C   UNL     1       5.658   4.910  15.477  0.00  0.00    +0.000 A 
ATOM     14  C   UNL     1       6.972   4.399  15.500  0.00  0.00    +0.000 A 
ATOM     15  C   UNL     1       7.419   4.503  16.794  0.00  0.00    +0.000 A 
ATOM     16  N   UNL     1       6.398   5.015  17.556  0.00  0.00    +0.000 N 
ATOM     17  C   UNL     1       6.511   5.273  18.978  0.00  0.00    +0.000 C 
ENDBRANCH   8  12
BRANCH   1  18
ATOM     18  C   UNL     1       2.101   6.499  21.142  0.00  0.00    +0.000 C 
BRANCH  18  20
ATOM     19  C   UNL     1       0.151   7.929  21.423  0.00  0.00    +0.000 C 
ATOM     20  N   UNL     1       1.072   7.317  20.461  0.00  0.00    +0.000 NA
ATOM     21  C   UNL     1       1.732   8.374  19.688  0.00  0.00    +0.000 C 
ENDBRANCH  18  20
ENDBRANCH   1  18
TORSDOF 3
ENDMDL
MODEL 8
REMARK VINA RESULT:      -5.8      2.511      4.665
REMARK  Name = 
REMARK  6 active torsions:
REMARK  status: ('A' for Active; 'I' for Inactive)
REMARK    1  A    between atoms: C_1  and  N_2
REMARK    2  A    between atoms: N_2  and  C_3
REMARK    3  A    between atoms: N_2  and  C_4
REMARK    4  A    between atoms: C_4  and  C_5
REMARK    5  A    between atoms: C_12  and  C_14
REMARK    6  A    between atoms: N_18  and  C_19
REMARK                            x       y       z     vdW  Elec       q    Type
REMARK                         _______ _______ _______ _____ _____    ______ ____
ROOT
ATOM      1  C   UNL     1       5.492   4.384  18.980  0.00  0.00    +0.000 C 
ATOM      2  O   UNL     1       6.872   4.574  19.372  0.00  0.00    +0.000 OA
ATOM      3  C   UNL     1       7.600   5.069  18.230  0.00  0.00    +0.000 C 
ATOM      4  C   UNL     1       6.561   5.508  17.210  0.00  0.00    +0.000 C 
ATOM      5  C   UNL     1       6.105   6.938  17.519  0.00  0.00    +0.000 C 
ATOM      6  C   UNL     1       4.709   7.267  17.006  0.00  0.00    +0.000 C 
ATOM      7  N   UNL     1       3.729   6.221  17.300  0.00  0.00    +0.000 N 
ATOM      8  C   UNL     1       2.496   6.387  17.951  0.00  0.00    +0.000 C 
ATOM      9  O   UNL     1       1.817   5.397  18.241  0.00  0.00    +0.000 OA
ATOM     10  C   UNL     1       4.118   4.879  16.874  0.00  0.00    +0.000 C 
ATOM     11  C   UNL     1       5.466   4.484  17.454  0.00  0.00    +0.000 C 
ENDROOT
BRANCH   8  12
ATOM     12  C   UNL     1       2.051   7.720  18.329  0.00  0.00    +0.000 A 
ATOM     13  C   UNL     1       1.790   8.847  17.551  0.00  0.00    +0.000 A 
ATOM     14  C   UNL     1       1.483   9.929  18.403  0.00  0.00    +0.000 A 
ATOM     15  C   UNL     1       1.418   9.427  19.679  0.00  0.00    +0.000 A 
ATOM     16  N   UNL     1       1.724   8.089  19.625  0.00  0.00    +0.000 N 
ATOM     17  C   UNL     1       1.745   7.225  20.789  0.00  0.00    +0.000 C 
ENDBRANCH   8  12
BRANCH   1  18
ATOM     18  C   UNL     1       4.859   3.109  19.569  0.00  0.00    +0.000 C 
BRANCH  18  20
ATOM     19  C   UNL     1       2.929   1.897  18.713  0.00  0.00    +0.000 C 
ATOM     20  N   UNL     1       3.382   3.022  19.535  0.00  0.00    +0.000 NA
ATOM     21  C   UNL     1       2.879   2.853  20.902  0.00  0.00    +0.000 C 
ENDBRANCH  18  20
ENDBRANCH   1  18
TORSDOF 3
ENDMDL
MODEL 9
REMARK VINA RESULT:      -5.6      2.052      3.434
REMARK  Name = 
REMARK  6 active torsions:
REMARK  status: ('A' for Active; 'I' for Inactive)
REMARK    1  A    between atoms: C_1  and  N_2
REMARK    2  A    between atoms: N_2  and  C_3
REMARK    3  A    between atoms: N_2  and  C_4
REMARK    4  A    between atoms: C_4  and  C_5
REMARK    5  A    between atoms: C_12  and  C_14
REMARK    6  A    between atoms: N_18  and  C_19
REMARK                            x       y       z     vdW  Elec       q    Type
REMARK                         _______ _______ _______ _____ _____    ______ ____
ROOT
ATOM      1  C   UNL     1       5.881   6.221  16.603  0.00  0.00    +0.000 C 
ATOM      2  O   UNL     1       5.987   6.307  15.163  0.00  0.00    +0.000 OA
ATOM      3  C   UNL     1       6.532   5.065  14.676  0.00  0.00    +0.000 C 
ATOM      4  C   UNL     1       6.443   4.072  15.825  0.00  0.00    +0.000 C 
ATOM      5  C   UNL     1       5.050   3.433  15.849  0.00  0.00    +0.000 C 
ATOM      6  C   UNL     1       4.627   2.925  17.220  0.00  0.00    +0.000 C 
ATOM      7  N   UNL     1       4.893   3.882  18.294  0.00  0.00    +0.000 N 
ATOM      8  C   UNL     1       3.970   4.363  19.237  0.00  0.00    +0.000 C 
ATOM      9  O   UNL     1       4.300   5.260  20.017  0.00  0.00    +0.000 OA
ATOM     10  C   UNL     1       6.265   4.380  18.344  0.00  0.00    +0.000 C 
ATOM     11  C   UNL     1       6.683   4.986  17.014  0.00  0.00    +0.000 C 
ENDROOT
BRANCH   8  12
ATOM     12  C   UNL     1       2.613   3.837  19.254  0.00  0.00    +0.000 A 
ATOM     13  C   UNL     1       1.599   3.901  18.298  0.00  0.00    +0.000 A 
ATOM     14  C   UNL     1       0.429   3.324  18.834  0.00  0.00    +0.000 A 
ATOM     15  C   UNL     1       0.770   2.786  20.051  0.00  0.00    +0.000 A 
ATOM     16  N   UNL     1       2.094   3.064  20.282  0.00  0.00    +0.000 N 
ATOM     17  C   UNL     1       2.806   2.640  21.472  0.00  0.00    +0.000 C 
ENDBRANCH   8  12
BRANCH   1  18
ATOM     18  C   UNL     1       6.265   7.527  17.324  0.00  0.00    +0.000 C 
BRANCH  18  20
ATOM     19  C   UNL     1       7.970   9.246  17.583  0.00  0.00    +0.000 C 
ATOM     20  N   UNL     1       7.712   7.808  17.466  0.00  0.00    +0.000 NA
ATOM     21  C   UNL     1       8.218   7.129  18.663  0.00  0.00    +0.000 C 
ENDBRANCH  18  20
ENDBRANCH   1  18
TORSDOF 3
ENDMDL
