MODEL 1
REMARK VINA RESULT:      -8.4      0.000      0.000
REMARK  Name = 
REMARK  8 active torsions:
REMARK  status: ('A' for Active; 'I' for Inactive)
REMARK    1  A    between atoms: C_1  and  C_2
REMARK    2  A    between atoms: C_2  and  O_3
REMARK    3  A    between atoms: O_3  and  C_4
REMARK    4  A    between atoms: C_4  and  C_6
REMARK    5  A    between atoms: C_6  and  O_7
REMARK    6  A    between atoms: O_7  and  C_8
REMARK    7  A    between atoms: C_11  and  N_12
REMARK    8  A    between atoms: N_15  and  C_16
REMARK                            x       y       z     vdW  Elec       q    Type
REMARK                         _______ _______ _______ _____ _____    ______ ____
ROOT
ATOM      1  N   UNL     1       7.548   8.954  17.408  0.00  0.00    +0.000 N 
ATOM      2  C   UNL     1       8.458   9.653  18.165  0.00  0.00    +0.000 C 
ATOM      3  O   UNL     1       9.002   9.226  19.179  0.00  0.00    +0.000 OA
ATOM      4  N   UNL     1       8.784  10.903  17.676  0.00  0.00    +0.000 N 
ATOM      5  H   UNL     1       7.165   9.404  16.591  0.00  0.00    +0.000 HD
ATOM      6  H   UNL     1       8.086  11.373  17.120  0.00  0.00    +0.000 HD
ENDROOT
BRANCH   4   7
ATOM      7  C   UNL     1       9.779  11.746  18.388  0.00  0.00    +0.000 C 
ATOM      8  C   UNL     1       9.937  11.292  19.870  0.00  0.00    +0.000 C 
ATOM      9  C   UNL     1      10.949  12.173  20.618  0.00  0.00    +0.000 C 
ATOM     10  C   UNL     1      12.321  12.052  19.945  0.00  0.00    +0.000 C 
ATOM     11  C   UNL     1      12.221  12.492  18.474  0.00  0.00    +0.000 C 
ATOM     12  C   UNL     1      11.774  13.963  18.429  0.00  0.00    +0.000 C 
ATOM     13  C   UNL     1      10.404  14.113  19.104  0.00  0.00    +0.000 C 
ATOM     14  C   UNL     1      10.483  13.638  20.564  0.00  0.00    +0.000 C 
ATOM     15  C   UNL     1       9.383  13.250  18.347  0.00  0.00    +0.000 C 
ATOM     16  C   UNL     1      11.184  11.612  17.736  0.00  0.00    +0.000 C 
ENDBRANCH   4   7
BRANCH   1  20
ATOM     17  C   UNL     1       6.381   4.925  18.172  0.00  0.00    +0.000 A 
ATOM     18  C   UNL     1       5.569   5.758  17.424  0.00  0.00    +0.000 A 
ATOM     19  C   UNL     1       5.955   7.070  17.166  0.00  0.00    +0.000 A 
ATOM     20  C   UNL     1       7.153   7.603  17.655  0.00  0.00    +0.000 A 
ATOM     21  C   UNL     1       7.965   6.755  18.423  0.00  0.00    +0.000 A 
ATOM     22  C   UNL     1       7.579   5.424  18.685  0.00  0.00    +0.000 A 
BRANCH  17  23
ATOM     23  O   UNL     1       5.878   3.674  18.352  0.00  0.00    +0.000 OA
BRANCH  23  24
ATOM     24  C   UNL     1       4.475   3.558  18.537  0.00  0.00    +0.000 C 
BRANCH  24  25
ATOM     25  C   UNL     1       4.212   2.862  19.864  0.00  0.00    +0.000 C 
ATOM     26  O   UNL     1       4.841   1.917  20.320  0.00  0.00    +0.000 OA
BRANCH  25  27
ATOM     27  O   UNL     1       3.092   3.398  20.439  0.00  0.00    +0.000 OA
BRANCH  27  29
ATOM     28  C   UNL     1       0.941   2.997  19.499  0.00  0.00    +0.000 C 
ATOM     29  C   UNL     1       1.972   2.505  20.501  0.00  0.00    +0.000 C 
ENDBRANCH  27  29
ENDBRANCH  25  27
ENDBRANCH  24  25
ENDBRANCH  23  24
ENDBRANCH  17  23
ENDBRANCH   1  20
TORSDOF 7
ENDMDL
MODEL 2
REMARK VINA RESULT:      -8.3      0.801      1.582
REMARK  Name = 
REMARK  8 active torsions:
REMARK  status: ('A' for Active; 'I' for Inactive)
REMARK    1  A    between atoms: C_1  and  C_2
REMARK    2  A    between atoms: C_2  and  O_3
REMARK    3  A    between atoms: O_3  and  C_4
REMARK    4  A    between atoms: C_4  and  C_6
REMARK    5  A    between atoms: C_6  and  O_7
REMARK    6  A    between atoms: O_7  and  C_8
REMARK    7  A    between atoms: C_11  and  N_12
REMARK    8  A    between atoms: N_15  and  C_16
REMARK                            x       y       z     vdW  Elec       q    Type
REMARK                         _______ _______ _______ _____ _____    ______ ____
ROOT
ATOM      1  N   UNL     1       8.123   8.844  17.356  0.00  0.00    +0.000 N 
ATOM      2  C   UNL     1       8.646   9.820  18.170  0.00  0.00    +0.000 C 
ATOM      3  O   UNL     1       8.632   9.793  19.397  0.00  0.00    +0.000 OA
ATOM      4  N   UNL     1       9.262  10.864  17.506  0.00  0.00    +0.000 N 
ATOM      5  H   UNL     1       8.192   8.971  16.358  0.00  0.00    +0.000 HD
ATOM      6  H   UNL     1       8.935  11.070  16.575  0.00  0.00    +0.000 HD
ENDROOT
BRANCH   4   7
ATOM      7  C   UNL     1       9.892  11.968  18.275  0.00  0.00    +0.000 C 
ATOM      8  C   UNL     1       8.816  12.818  19.015  0.00  0.00    +0.000 C 
ATOM      9  C   UNL     1       9.460  13.975  19.795  0.00  0.00    +0.000 C 
ATOM     10  C   UNL     1      10.412  13.404  20.852  0.00  0.00    +0.000 C 
ATOM     11  C   UNL     1      11.499  12.556  20.171  0.00  0.00    +0.000 C 
ATOM     12  C   UNL     1      12.301  13.455  19.216  0.00  0.00    +0.000 C 
ATOM     13  C   UNL     1      11.367  14.046  18.149  0.00  0.00    +0.000 C 
ATOM     14  C   UNL     1      10.253  14.863  18.822  0.00  0.00    +0.000 C 
ATOM     15  C   UNL     1      10.737  12.893  17.352  0.00  0.00    +0.000 C 
ATOM     16  C   UNL     1      10.840  11.407  19.372  0.00  0.00    +0.000 C 
ENDBRANCH   4   7
BRANCH   1  20
ATOM     17  C   UNL     1       6.395   5.192  18.716  0.00  0.00    +0.000 A 
ATOM     18  C   UNL     1       7.574   5.657  19.272  0.00  0.00    +0.000 A 
ATOM     19  C   UNL     1       8.132   6.854  18.835  0.00  0.00    +0.000 A 
ATOM     20  C   UNL     1       7.547   7.622  17.821  0.00  0.00    +0.000 A 
ATOM     21  C   UNL     1       6.359   7.137  17.255  0.00  0.00    +0.000 A 
ATOM     22  C   UNL     1       5.787   5.925  17.696  0.00  0.00    +0.000 A 
BRANCH  17  23
ATOM     23  O   UNL     1       5.967   4.007  19.232  0.00  0.00    +0.000 OA
BRANCH  23  24
ATOM     24  C   UNL     1       4.668   3.569  18.862  0.00  0.00    +0.000 C 
BRANCH  24  25
ATOM     25  C   UNL     1       4.271   2.406  19.759  0.00  0.00    +0.000 C 
ATOM     26  O   UNL     1       5.035   1.679  20.379  0.00  0.00    +0.000 OA
BRANCH  25  27
ATOM     27  O   UNL     1       2.914   2.234  19.698  0.00  0.00    +0.000 OA
BRANCH  27  29
ATOM     28  C   UNL     1       1.685   3.502  21.296  0.00  0.00    +0.000 C 
ATOM     29  C   UNL     1       2.156   3.441  19.852  0.00  0.00    +0.000 C 
ENDBRANCH  27  29
ENDBRANCH  25  27
ENDBRANCH  24  25
ENDBRANCH  23  24
ENDBRANCH  17  23
ENDBRANCH   1  20
TORSDOF 7
ENDMDL
MODEL 3
REMARK VINA RESULT:      -8.3      0.561      1.084
REMARK  Name = 
REMARK  8 active torsions:
REMARK  status: ('A' for Active; 'I' for Inactive)
REMARK    1  A    between atoms: C_1  and  C_2
REMARK    2  A    between atoms: C_2  and  O_3
REMARK    3  A    between atoms: O_3  and  C_4
REMARK    4  A    between atoms: C_4  and  C_6
REMARK    5  A    between atoms: C_6  and  O_7
REMARK    6  A    between atoms: O_7  and  C_8
REMARK    7  A    between atoms: C_11  and  N_12
REMARK    8  A    between atoms: N_15  and  C_16
REMARK                            x       y       z     vdW  Elec       q    Type
REMARK                         _______ _______ _______ _____ _____    ______ ____
ROOT
ATOM      1  N   UNL     1       7.554   8.948  17.361  0.00  0.00    +0.000 N 
ATOM      2  C   UNL     1       8.424   9.670  18.141  0.00  0.00    +0.000 C 
ATOM      3  O   UNL     1       8.866   9.302  19.226  0.00  0.00    +0.000 OA
ATOM      4  N   UNL     1       8.839  10.869  17.594  0.00  0.00    +0.000 N 
ATOM      5  H   UNL     1       7.257   9.349  16.485  0.00  0.00    +0.000 HD
ATOM      6  H   UNL     1       8.209  11.319  16.950  0.00  0.00    +0.000 HD
ENDROOT
BRANCH   4   7
ATOM      7  C   UNL     1       9.805  11.729  18.327  0.00  0.00    +0.000 C 
ATOM      8  C   UNL     1       9.973  11.249  19.800  0.00  0.00    +0.000 C 
ATOM      9  C   UNL     1      10.953  12.147  20.570  0.00  0.00    +0.000 C 
ATOM     10  C   UNL     1      12.330  12.084  19.899  0.00  0.00    +0.000 C 
ATOM     11  C   UNL     1      12.221  12.550  18.438  0.00  0.00    +0.000 C 
ATOM     12  C   UNL     1      11.727  14.007  18.421  0.00  0.00    +0.000 C 
ATOM     13  C   UNL     1      10.351  14.099  19.094  0.00  0.00    +0.000 C 
ATOM     14  C   UNL     1      10.441  13.597  20.544  0.00  0.00    +0.000 C 
ATOM     15  C   UNL     1       9.361  13.220  18.315  0.00  0.00    +0.000 C 
ATOM     16  C   UNL     1      11.215  11.653  17.677  0.00  0.00    +0.000 C 
ENDBRANCH   4   7
BRANCH   1  20
ATOM     17  C   UNL     1       6.147   5.024  18.254  0.00  0.00    +0.000 A 
ATOM     18  C   UNL     1       7.363   5.460  18.750  0.00  0.00    +0.000 A 
ATOM     19  C   UNL     1       7.816   6.744  18.467  0.00  0.00    +0.000 A 
ATOM     20  C   UNL     1       7.086   7.633  17.669  0.00  0.00    +0.000 A 
ATOM     21  C   UNL     1       5.860   7.178  17.160  0.00  0.00    +0.000 A 
ATOM     22  C   UNL     1       5.395   5.878  17.447  0.00  0.00    +0.000 A 
BRANCH  17  23
ATOM     23  O   UNL     1       5.831   3.746  18.601  0.00  0.00    +0.000 OA
BRANCH  23  24
ATOM     24  C   UNL     1       4.457   3.389  18.585  0.00  0.00    +0.000 C 
BRANCH  24  25
ATOM     25  C   UNL     1       4.187   2.433  19.738  0.00  0.00    +0.000 C 
ATOM     26  O   UNL     1       5.023   1.774  20.340  0.00  0.00    +0.000 OA
BRANCH  25  27
ATOM     27  O   UNL     1       2.837   2.350  19.946  0.00  0.00    +0.000 OA
BRANCH  27  29
ATOM     28  C   UNL     1       2.042   4.087  21.369  0.00  0.00    +0.000 C 
ATOM     29  C   UNL     1       2.427   2.619  21.294  0.00  0.00    +0.000 C 
ENDBRANCH  27  29
ENDBRANCH  25  27
ENDBRANCH  24  25
ENDBRANCH  23  24
ENDBRANCH  17  23
ENDBRANCH   1  20
TORSDOF 7
ENDMDL
MODEL 4
REMARK VINA RESULT:      -8.3      1.504      2.223
REMARK  Name = 
REMARK  8 active torsions:
REMARK  status: ('A' for Active; 'I' for Inactive)
REMARK    1  A    between atoms: C_1  and  C_2
REMARK    2  A    between atoms: C_2  and  O_3
REMARK    3  A    between atoms: O_3  and  C_4
REMARK    4  A    between atoms: C_4  and  C_6
REMARK    5  A    between atoms: C_6  and  O_7
REMARK    6  A    between atoms: O_7  and  C_8
REMARK    7  A    between atoms: C_11  and  N_12
REMARK    8  A    between atoms: N_15  and  C_16
REMARK                            x       y       z     vdW  Elec       q    Type
REMARK                         _______ _______ _______ _____ _____    ______ ____
ROOT
ATOM      1  N   UNL     1       8.430   7.420  18.837  0.00  0.00    +0.000 N 
ATOM      2  C   UNL     1       8.514   8.765  18.572  0.00  0.00    +0.000 C 
ATOM      3  O   UNL     1       7.781   9.376  17.801  0.00  0.00    +0.000 OA
ATOM      4  N   UNL     1       9.482   9.441  19.290  0.00  0.00    +0.000 N 
ATOM      5  H   UNL     1       9.085   7.022  19.492  0.00  0.00    +0.000 HD
ATOM      6  H   UNL     1      10.285   8.908  19.587  0.00  0.00    +0.000 HD
ENDROOT
BRANCH   4   7
ATOM      7  C   UNL     1       9.654  10.906  19.115  0.00  0.00    +0.000 C 
ATOM      8  C   UNL     1      11.135  11.259  18.782  0.00  0.00    +0.000 C 
ATOM      9  C   UNL     1      11.324  12.775  18.621  0.00  0.00    +0.000 C 
ATOM     10  C   UNL     1      10.454  13.273  17.461  0.00  0.00    +0.000 C 
ATOM     11  C   UNL     1       8.977  12.950  17.741  0.00  0.00    +0.000 C 
ATOM     12  C   UNL     1       8.549  13.675  19.028  0.00  0.00    +0.000 C 
ATOM     13  C   UNL     1       9.411  13.199  20.206  0.00  0.00    +0.000 C 
ATOM     14  C   UNL     1      10.895  13.481  19.918  0.00  0.00    +0.000 C 
ATOM     15  C   UNL     1       9.209  11.687  20.385  0.00  0.00    +0.000 C 
ATOM     16  C   UNL     1       8.801  11.423  17.923  0.00  0.00    +0.000 C 
ENDBRANCH   4   7
BRANCH   1  20
ATOM     17  C   UNL     1       5.469   4.812  17.221  0.00  0.00    +0.000 A 
ATOM     18  C   UNL     1       5.631   4.922  18.591  0.00  0.00    +0.000 A 
ATOM     19  C   UNL     1       6.590   5.781  19.118  0.00  0.00    +0.000 A 
ATOM     20  C   UNL     1       7.431   6.548  18.303  0.00  0.00    +0.000 A 
ATOM     21  C   UNL     1       7.268   6.421  16.915  0.00  0.00    +0.000 A 
ATOM     22  C   UNL     1       6.295   5.554  16.376  0.00  0.00    +0.000 A 
BRANCH  17  23
ATOM     23  O   UNL     1       4.502   3.932  16.845  0.00  0.00    +0.000 OA
BRANCH  23  24
ATOM     24  C   UNL     1       4.139   2.925  17.779  0.00  0.00    +0.000 C 
BRANCH  24  25
ATOM     25  C   UNL     1       2.622   2.874  17.878  0.00  0.00    +0.000 C 
ATOM     26  O   UNL     1       1.832   3.480  17.167  0.00  0.00    +0.000 OA
BRANCH  25  27
ATOM     27  O   UNL     1       2.267   2.108  18.955  0.00  0.00    +0.000 OA
BRANCH  27  29
ATOM     28  C   UNL     1       1.196   3.320  20.704  0.00  0.00    +0.000 C 
ATOM     29  C   UNL     1       2.511   2.726  20.227  0.00  0.00    +0.000 C 
ENDBRANCH  27  29
ENDBRANCH  25  27
ENDBRANCH  24  25
ENDBRANCH  23  24
ENDBRANCH  17  23
ENDBRANCH   1  20
TORSDOF 7
ENDMDL
MODEL 5
REMARK VINA RESULT:      -8.3      0.481      1.521
REMARK  Name = 
REMARK  8 active torsions:
REMARK  status: ('A' for Active; 'I' for Inactive)
REMARK    1  A    between atoms: C_1  and  C_2
REMARK    2  A    between atoms: C_2  and  O_3
REMARK    3  A    between atoms: O_3  and  C_4
REMARK    4  A    between atoms: C_4  and  C_6
REMARK    5  A    between atoms: C_6  and  O_7
REMARK    6  A    between atoms: O_7  and  C_8
REMARK    7  A    between atoms: C_11  and  N_12
REMARK    8  A    between atoms: N_15  and  C_16
REMARK                            x       y       z     vdW  Elec       q    Type
REMARK                         _______ _______ _______ _____ _____    ______ ____
ROOT
ATOM      1  N   UNL     1       7.504   8.973  17.424  0.00  0.00    +0.000 N 
ATOM      2  C   UNL     1       8.431   9.652  18.178  0.00  0.00    +0.000 C 
ATOM      3  O   UNL     1       8.992   9.202  19.172  0.00  0.00    +0.000 OA
ATOM      4  N   UNL     1       8.755  10.910  17.709  0.00  0.00    +0.000 N 
ATOM      5  H   UNL     1       7.107   9.442  16.624  0.00  0.00    +0.000 HD
ATOM      6  H   UNL     1       8.049  11.395  17.177  0.00  0.00    +0.000 HD
ENDROOT
BRANCH   4   7
ATOM      7  C   UNL     1       9.767  11.734  18.420  0.00  0.00    +0.000 C 
ATOM      8  C   UNL     1       9.342  13.232  18.455  0.00  0.00    +0.000 C 
ATOM      9  C   UNL     1      10.396  14.093  19.170  0.00  0.00    +0.000 C 
ATOM     10  C   UNL     1      10.540  13.614  20.620  0.00  0.00    +0.000 C 
ATOM     11  C   UNL     1      10.961  12.135  20.641  0.00  0.00    +0.000 C 
ATOM     12  C   UNL     1      12.322  11.999  19.936  0.00  0.00    +0.000 C 
ATOM     13  C   UNL     1      12.206  12.479  18.483  0.00  0.00    +0.000 C 
ATOM     14  C   UNL     1      11.746  13.946  18.449  0.00  0.00    +0.000 C 
ATOM     15  C   UNL     1      11.169  11.608  17.757  0.00  0.00    +0.000 C 
ATOM     16  C   UNL     1       9.905  11.281  19.900  0.00  0.00    +0.000 C 
ENDBRANCH   4   7
BRANCH   1  20
ATOM     17  C   UNL     1       6.330   4.935  18.125  0.00  0.00    +0.000 A 
ATOM     18  C   UNL     1       5.506   5.789  17.414  0.00  0.00    +0.000 A 
ATOM     19  C   UNL     1       5.894   7.103  17.177  0.00  0.00    +0.000 A 
ATOM     20  C   UNL     1       7.106   7.619  17.650  0.00  0.00    +0.000 A 
ATOM     21  C   UNL     1       7.930   6.751  18.381  0.00  0.00    +0.000 A 
ATOM     22  C   UNL     1       7.542   5.416  18.622  0.00  0.00    +0.000 A 
BRANCH  17  23
ATOM     23  O   UNL     1       5.824   3.683  18.290  0.00  0.00    +0.000 OA
BRANCH  23  24
ATOM     24  C   UNL     1       4.434   3.507  18.056  0.00  0.00    +0.000 C 
BRANCH  24  25
ATOM     25  C   UNL     1       3.825   2.786  19.248  0.00  0.00    +0.000 C 
ATOM     26  O   UNL     1       4.435   2.334  20.208  0.00  0.00    +0.000 OA
BRANCH  25  27
ATOM     27  O   UNL     1       2.480   2.636  19.044  0.00  0.00    +0.000 OA
BRANCH  27  29
ATOM     28  C   UNL     1       1.160   3.828  20.628  0.00  0.00    +0.000 C 
ATOM     29  C   UNL     1       1.713   2.466  20.244  0.00  0.00    +0.000 C 
ENDBRANCH  27  29
ENDBRANCH  25  27
ENDBRANCH  24  25
ENDBRANCH  23  24
ENDBRANCH  17  23
ENDBRANCH   1  20
TORSDOF 7
ENDMDL
MODEL 6
REMARK VINA RESULT:      -8.3      1.591      1.918
REMARK  Name = 
REMARK  8 active torsions:
REMARK  status: ('A' for Active; 'I' for Inactive)
REMARK    1  A    between atoms: C_1  and  C_2
REMARK    2  A    between atoms: C_2  and  O_3
REMARK    3  A    between atoms: O_3  and  C_4
REMARK    4  A    between atoms: C_4  and  C_6
REMARK    5  A    between atoms: C_6  and  O_7
REMARK    6  A    between atoms: O_7  and  C_8
REMARK    7  A    between atoms: C_11  and  N_12
REMARK    8  A    between atoms: N_15  and  C_16
REMARK                            x       y       z     vdW  Elec       q    Type
REMARK                         _______ _______ _______ _____ _____    ______ ____
ROOT
ATOM      1  N   UNL     1       8.495   7.376  18.854  0.00  0.00    +0.000 N 
ATOM      2  C   UNL     1       8.507   8.724  18.591  0.00  0.00    +0.000 C 
ATOM      3  O   UNL     1       7.713   9.303  17.855  0.00  0.00    +0.000 OA
ATOM      4  N   UNL     1       9.473   9.442  19.269  0.00  0.00    +0.000 N 
ATOM      5  H   UNL     1       9.197   7.007  19.478  0.00  0.00    +0.000 HD
ATOM      6  H   UNL     1      10.312   8.946  19.529  0.00  0.00    +0.000 HD
ENDROOT
BRANCH   4   7
ATOM      7  C   UNL     1       9.570  10.914  19.093  0.00  0.00    +0.000 C 
ATOM      8  C   UNL     1       9.056  11.663  20.359  0.00  0.00    +0.000 C 
ATOM      9  C   UNL     1       9.134  13.186  20.175  0.00  0.00    +0.000 C 
ATOM     10  C   UNL     1      10.595  13.595  19.953  0.00  0.00    +0.000 C 
ATOM     11  C   UNL     1      11.152  12.882  18.710  0.00  0.00    +0.000 C 
ATOM     12  C   UNL     1      10.326  13.310  17.485  0.00  0.00    +0.000 C 
ATOM     13  C   UNL     1       8.856  12.917  17.685  0.00  0.00    +0.000 C 
ATOM     14  C   UNL     1       8.299  13.593  18.949  0.00  0.00    +0.000 C 
ATOM     15  C   UNL     1       8.770  11.392  17.848  0.00  0.00    +0.000 C 
ATOM     16  C   UNL     1      11.050  11.350  18.896  0.00  0.00    +0.000 C 
ENDBRANCH   4   7
BRANCH   1  20
ATOM     17  C   UNL     1       5.556   4.650  17.402  0.00  0.00    +0.000 A 
ATOM     18  C   UNL     1       6.291   5.420  16.519  0.00  0.00    +0.000 A 
ATOM     19  C   UNL     1       7.258   6.302  16.993  0.00  0.00    +0.000 A 
ATOM     20  C   UNL     1       7.515   6.460  18.359  0.00  0.00    +0.000 A 
ATOM     21  C   UNL     1       6.757   5.684  19.249  0.00  0.00    +0.000 A 
ATOM     22  C   UNL     1       5.778   4.787  18.773  0.00  0.00    +0.000 A 
BRANCH  17  23
ATOM     23  O   UNL     1       4.642   3.839  16.804  0.00  0.00    +0.000 OA
BRANCH  23  24
ATOM     24  C   UNL     1       3.306   3.898  17.284  0.00  0.00    +0.000 C 
BRANCH  24  25
ATOM     25  C   UNL     1       2.912   2.524  17.803  0.00  0.00    +0.000 C 
ATOM     26  O   UNL     1       3.647   1.550  17.899  0.00  0.00    +0.000 OA
BRANCH  25  27
ATOM     27  O   UNL     1       1.569   2.511  18.066  0.00  0.00    +0.000 OA
BRANCH  27  29
ATOM     28  C   UNL     1       1.069   3.100  20.319  0.00  0.00    +0.000 C 
ATOM     29  C   UNL     1       1.114   3.598  18.884  0.00  0.00    +0.000 C 
ENDBRANCH  27  29
ENDBRANCH  25  27
ENDBRANCH  24  25
ENDBRANCH  23  24
ENDBRANCH  17  23
ENDBRANCH   1  20
TORSDOF 7
ENDMDL
MODEL 7
REMARK VINA RESULT:      -8.3      0.496      1.783
REMARK  Name = 
REMARK  8 active torsions:
REMARK  status: ('A' for Active; 'I' for Inactive)
REMARK    1  A    between atoms: C_1  and  C_2
REMARK    2  A    between atoms: C_2  and  O_3
REMARK    3  A    between atoms: O_3  and  C_4
REMARK    4  A    between atoms: C_4  and  C_6
REMARK    5  A    between atoms: C_6  and  O_7
REMARK    6  A    between atoms: O_7  and  C_8
REMARK    7  A    between atoms: C_11  and  N_12
REMARK    8  A    between atoms: N_15  and  C_16
REMARK                            x       y       z     vdW  Elec       q    Type
REMARK                         _______ _______ _______ _____ _____    ______ ____
ROOT
ATOM      1  N   UNL     1       7.491   9.017  17.411  0.00  0.00    +0.000 N 
ATOM      2  C   UNL     1       8.429   9.675  18.169  0.00  0.00    +0.000 C 
ATOM      3  O   UNL     1       8.984   9.209  19.159  0.00  0.00    +0.000 OA
ATOM      4  N   UNL     1       8.772  10.932  17.709  0.00  0.00    +0.000 N 
ATOM      5  H   UNL     1       7.101   9.498  16.615  0.00  0.00    +0.000 HD
ATOM      6  H   UNL     1       8.073  11.432  17.181  0.00  0.00    +0.000 HD
ENDROOT
BRANCH   4   7
ATOM      7  C   UNL     1       9.798  11.734  18.425  0.00  0.00    +0.000 C 
ATOM      8  C   UNL     1      11.198  11.571  17.760  0.00  0.00    +0.000 C 
ATOM      9  C   UNL     1      12.268  12.380  18.509  0.00  0.00    +0.000 C 
ATOM     10  C   UNL     1      11.901  13.868  18.462  0.00  0.00    +0.000 C 
ATOM     11  C   UNL     1      10.522  14.086  19.110  0.00  0.00    +0.000 C 
ATOM     12  C   UNL     1      10.592  13.638  20.580  0.00  0.00    +0.000 C 
ATOM     13  C   UNL     1      10.965  12.151  20.654  0.00  0.00    +0.000 C 
ATOM     14  C   UNL     1      12.324  11.916  19.974  0.00  0.00    +0.000 C 
ATOM     15  C   UNL     1       9.887  11.334  19.926  0.00  0.00    +0.000 C 
ATOM     16  C   UNL     1       9.456  13.249  18.362  0.00  0.00    +0.000 C 
ENDBRANCH   4   7
BRANCH   1  20
ATOM     17  C   UNL     1       6.229   4.992  18.032  0.00  0.00    +0.000 A 
ATOM     18  C   UNL     1       7.452   5.424  18.515  0.00  0.00    +0.000 A 
ATOM     19  C   UNL     1       7.858   6.740  18.321  0.00  0.00    +0.000 A 
ATOM     20  C   UNL     1       7.072   7.668  17.628  0.00  0.00    +0.000 A 
ATOM     21  C   UNL     1       5.840   7.219  17.131  0.00  0.00    +0.000 A 
ATOM     22  C   UNL     1       5.422   5.885  17.327  0.00  0.00    +0.000 A 
BRANCH  17  23
ATOM     23  O   UNL     1       5.963   3.682  18.285  0.00  0.00    +0.000 OA
BRANCH  23  24
ATOM     24  C   UNL     1       4.604   3.274  18.237  0.00  0.00    +0.000 C 
BRANCH  24  25
ATOM     25  C   UNL     1       4.153   2.910  19.644  0.00  0.00    +0.000 C 
ATOM     26  O   UNL     1       4.732   2.156  20.415  0.00  0.00    +0.000 OA
BRANCH  25  27
ATOM     27  O   UNL     1       2.937   3.487  19.890  0.00  0.00    +0.000 OA
BRANCH  27  29
ATOM     28  C   UNL     1       1.364   2.693  21.493  0.00  0.00    +0.000 C 
ATOM     29  C   UNL     1       2.589   3.566  21.279  0.00  0.00    +0.000 C 
ENDBRANCH  27  29
ENDBRANCH  25  27
ENDBRANCH  24  25
ENDBRANCH  23  24
ENDBRANCH  17  23
ENDBRANCH   1  20
TORSDOF 7
ENDMDL
MODEL 8
REMARK VINA RESULT:      -8.2      0.910      1.788
REMARK  Name = 
REMARK  8 active torsions:
REMARK  status: ('A' for Active; 'I' for Inactive)
REMARK    1  A    between atoms: C_1  and  C_2
REMARK    2  A    between atoms: C_2  and  O_3
REMARK    3  A    between atoms: O_3  and  C_4
REMARK    4  A    between atoms: C_4  and  C_6
REMARK    5  A    between atoms: C_6  and  O_7
REMARK    6  A    between atoms: O_7  and  C_8
REMARK    7  A    between atoms: C_11  and  N_12
REMARK    8  A    between atoms: N_15  and  C_16
REMARK                            x       y       z     vdW  Elec       q    Type
REMARK                         _______ _______ _______ _____ _____    ______ ____
ROOT
ATOM      1  N   UNL     1       7.516   9.008  17.440  0.00  0.00    +0.000 N 
ATOM      2  C   UNL     1       8.448   9.691  18.184  0.00  0.00    +0.000 C 
ATOM      3  O   UNL     1       9.032   9.238  19.164  0.00  0.00    +0.000 OA
ATOM      4  N   UNL     1       8.748  10.958  17.721  0.00  0.00    +0.000 N 
ATOM      5  H   UNL     1       7.100   9.480  16.652  0.00  0.00    +0.000 HD
ATOM      6  H   UNL     1       8.028  11.438  17.206  0.00  0.00    +0.000 HD
ENDROOT
BRANCH   4   7
ATOM      7  C   UNL     1       9.764  11.786  18.422  0.00  0.00    +0.000 C 
ATOM      8  C   UNL     1      11.144  11.703  17.705  0.00  0.00    +0.000 C 
ATOM      9  C   UNL     1      12.204  12.541  18.437  0.00  0.00    +0.000 C 
ATOM     10  C   UNL     1      11.770  14.011  18.443  0.00  0.00    +0.000 C 
ATOM     11  C   UNL     1      10.408  14.150  19.144  0.00  0.00    +0.000 C 
ATOM     12  C   UNL     1      10.550  13.669  20.598  0.00  0.00    +0.000 C 
ATOM     13  C   UNL     1      10.991  12.199  20.620  0.00  0.00    +0.000 C 
ATOM     14  C   UNL     1      12.333  12.042  19.886  0.00  0.00    +0.000 C 
ATOM     15  C   UNL     1       9.924  11.353  19.908  0.00  0.00    +0.000 C 
ATOM     16  C   UNL     1       9.354  13.286  18.412  0.00  0.00    +0.000 C 
ENDBRANCH   4   7
BRANCH   1  20
ATOM     17  C   UNL     1       6.400   4.951  18.126  0.00  0.00    +0.000 A 
ATOM     18  C   UNL     1       5.623   5.762  17.318  0.00  0.00    +0.000 A 
ATOM     19  C   UNL     1       5.993   7.083  17.086  0.00  0.00    +0.000 A 
ATOM     20  C   UNL     1       7.138   7.648  17.661  0.00  0.00    +0.000 A 
ATOM     21  C   UNL     1       7.914   6.822  18.488  0.00  0.00    +0.000 A 
ATOM     22  C   UNL     1       7.544   5.480  18.724  0.00  0.00    +0.000 A 
BRANCH  17  23
ATOM     23  O   UNL     1       5.917   3.687  18.272  0.00  0.00    +0.000 OA
BRANCH  23  24
ATOM     24  C   UNL     1       4.751   3.524  19.066  0.00  0.00    +0.000 C 
BRANCH  24  25
ATOM     25  C   UNL     1       3.810   2.560  18.360  0.00  0.00    +0.000 C 
ATOM     26  O   UNL     1       3.700   1.362  18.588  0.00  0.00    +0.000 OA
BRANCH  25  27
ATOM     27  O   UNL     1       3.159   3.221  17.354  0.00  0.00    +0.000 OA
BRANCH  27  29
ATOM     28  C   UNL     1       1.107   3.536  18.521  0.00  0.00    +0.000 C 
ATOM     29  C   UNL     1       2.249   4.234  17.803  0.00  0.00    +0.000 C 
ENDBRANCH  27  29
ENDBRANCH  25  27
ENDBRANCH  24  25
ENDBRANCH  23  24
ENDBRANCH  17  23
ENDBRANCH   1  20
TORSDOF 7
ENDMDL
MODEL 9
REMARK VINA RESULT:      -8.2      1.596      2.025
REMARK  Name = 
REMARK  8 active torsions:
REMARK  status: ('A' for Active; 'I' for Inactive)
REMARK    1  A    between atoms: C_1  and  C_2
REMARK    2  A    between atoms: C_2  and  O_3
REMARK    3  A    between atoms: O_3  and  C_4
REMARK    4  A    between atoms: C_4  and  C_6
REMARK    5  A    between atoms: C_6  and  O_7
REMARK    6  A    between atoms: O_7  and  C_8
REMARK    7  A    between atoms: C_11  and  N_12
REMARK    8  A    between atoms: N_15  and  C_16
REMARK                            x       y       z     vdW  Elec       q    Type
REMARK                         _______ _______ _______ _____ _____    ______ ____
ROOT
ATOM      1  N   UNL     1       8.549   7.529  18.880  0.00  0.00    +0.000 N 
ATOM      2  C   UNL     1       8.588   8.881  18.637  0.00  0.00    +0.000 C 
ATOM      3  O   UNL     1       7.812   9.485  17.902  0.00  0.00    +0.000 OA
ATOM      4  N   UNL     1       9.560   9.571  19.335  0.00  0.00    +0.000 N 
ATOM      5  H   UNL     1       9.238   7.139  19.505  0.00  0.00    +0.000 HD
ATOM      6  H   UNL     1      10.387   9.056  19.596  0.00  0.00    +0.000 HD
ENDROOT
BRANCH   4   7
ATOM      7  C   UNL     1       9.685  11.044  19.182  0.00  0.00    +0.000 C 
ATOM      8  C   UNL     1       9.154  11.784  20.446  0.00  0.00    +0.000 C 
ATOM      9  C   UNL     1       9.261  13.308  20.286  0.00  0.00    +0.000 C 
ATOM     10  C   UNL     1      10.733  13.695  20.103  0.00  0.00    +0.000 C 
ATOM     11  C   UNL     1      11.308  12.990  18.863  0.00  0.00    +0.000 C 
ATOM     12  C   UNL     1      10.518  13.448  17.625  0.00  0.00    +0.000 C 
ATOM     13  C   UNL     1       9.037  13.078  17.786  0.00  0.00    +0.000 C 
ATOM     14  C   UNL     1       8.462  13.745  19.046  0.00  0.00    +0.000 C 
ATOM     15  C   UNL     1       8.922  11.552  17.925  0.00  0.00    +0.000 C 
ATOM     16  C   UNL     1      11.176  11.457  19.025  0.00  0.00    +0.000 C 
ENDBRANCH   4   7
BRANCH   1  20
ATOM     17  C   UNL     1       5.608   4.871  17.311  0.00  0.00    +0.000 A 
ATOM     18  C   UNL     1       5.914   4.857  18.661  0.00  0.00    +0.000 A 
ATOM     19  C   UNL     1       6.866   5.732  19.174  0.00  0.00    +0.000 A 
ATOM     20  C   UNL     1       7.558   6.639  18.362  0.00  0.00    +0.000 A 
ATOM     21  C   UNL     1       7.251   6.638  16.993  0.00  0.00    +0.000 A 
ATOM     22  C   UNL     1       6.284   5.754  16.469  0.00  0.00    +0.000 A 
BRANCH  17  23
ATOM     23  O   UNL     1       4.666   3.959  16.946  0.00  0.00    +0.000 OA
BRANCH  23  24
ATOM     24  C   UNL     1       4.108   3.153  17.974  0.00  0.00    +0.000 C 
BRANCH  24  25
ATOM     25  C   UNL     1       2.596   3.130  17.810  0.00  0.00    +0.000 C 
ATOM     26  O   UNL     1       1.927   2.185  17.415  0.00  0.00    +0.000 OA
BRANCH  25  27
ATOM     27  O   UNL     1       2.094   4.373  18.088  0.00  0.00    +0.000 OA
BRANCH  27  29
ATOM     28  C   UNL     1       1.099   4.083  20.232  0.00  0.00    +0.000 C 
ATOM     29  C   UNL     1       2.215   4.767  19.461  0.00  0.00    +0.000 C 
ENDBRANCH  27  29
ENDBRANCH  25  27
ENDBRANCH  24  25
ENDBRANCH  23  24
ENDBRANCH  17  23
ENDBRANCH   1  20
TORSDOF 7
ENDMDL
