MODEL 1
REMARK VINA RESULT:      -6.4      0.000      0.000
REMARK  Name = 
REMARK  3 active torsions:
REMARK  status: ('A' for Active; 'I' for Inactive)
REMARK    1  A    between atoms: C_1  and  N_2
REMARK    2  A    between atoms: C_3  and  C_4
REMARK    3  A    between atoms: C_9  and  C_10
REMARK                            x       y       z     vdW  Elec       q    Type
REMARK                         _______ _______ _______ _____ _____    ______ ____
ROOT
ATOM      1  C   UNL     1       2.664   5.929  18.089  0.00  0.00    +0.000 C 
ATOM      2  O   UNL     1       1.908   5.082  17.610  0.00  0.00    +0.000 OA
ATOM      3  N   UNL     1       3.998   5.944  17.692  0.00  0.00    +0.000 N 
ATOM      4  C   UNL     1       5.026   6.927  17.965  0.00  0.00    +0.000 C 
ATOM      5  C   UNL     1       5.984   6.795  16.792  0.00  0.00    +0.000 C 
ATOM      6  C   UNL     1       5.950   5.298  16.466  0.00  0.00    +0.000 C 
ATOM      7  C   UNL     1       4.539   4.859  16.880  0.00  0.00    +0.000 C 
ENDROOT
BRANCH   1  10
ATOM      8  C   UNL     1       1.858   8.834  17.367  0.00  0.00    +0.000 C 
ATOM      9  N   UNL     1       1.841   8.243  18.693  0.00  0.00    +0.000 N 
ATOM     10  C   UNL     1       2.176   6.931  19.028  0.00  0.00    +0.000 A 
ATOM     11  C   UNL     1       1.781   6.787  20.353  0.00  0.00    +0.000 A 
ATOM     12 CL   UNL     1       1.654   5.359  21.282  0.00  0.00    +0.000 Cl
ATOM     13  C   UNL     1       1.386   8.051  20.870  0.00  0.00    +0.000 A 
ATOM     14  C   UNL     1       0.944   8.501  22.133  0.00  0.00    +0.000 A 
ATOM     15  C   UNL     1       0.553   9.832  22.301  0.00  0.00    +0.000 A 
ATOM     16  C   UNL     1       0.603  10.716  21.233  0.00  0.00    +0.000 A 
ATOM     17  C   UNL     1       1.045  10.299  19.972  0.00  0.00    +0.000 A 
ATOM     18  C   UNL     1       1.430   8.954  19.811  0.00  0.00    +0.000 A 
ENDBRANCH   1  10
BRANCH   6  19
ATOM     19  C   UNL     1       7.052   4.526  17.172  0.00  0.00    +0.000 C 
ATOM     20  N   UNL     1       6.758   4.137  18.452  0.00  0.00    +0.000 N 
ATOM     21  O   UNL     1       8.158   4.289  16.700  0.00  0.00    +0.000 OA
ATOM     22  H   UNL     1       5.899   4.376  18.925  0.00  0.00    +0.000 HD
ATOM     23  H   UNL     1       7.481   3.659  18.969  0.00  0.00    +0.000 HD
ENDBRANCH   6  19
TORSDOF 2
ENDMDL
MODEL 2
REMARK VINA RESULT:      -6.3      1.392      2.069
REMARK  Name = 
REMARK  3 active torsions:
REMARK  status: ('A' for Active; 'I' for Inactive)
REMARK    1  A    between atoms: C_1  and  N_2
REMARK    2  A    between atoms: C_3  and  C_4
REMARK    3  A    between atoms: C_9  and  C_10
REMARK                            x       y       z     vdW  Elec       q    Type
REMARK                         _______ _______ _______ _____ _____    ______ ____
ROOT
ATOM      1  C   UNL     1       2.470   5.788  18.100  0.00  0.00    +0.000 C 
ATOM      2  O   UNL     1       1.738   4.848  17.788  0.00  0.00    +0.000 OA
ATOM      3  N   UNL     1       3.766   5.831  17.595  0.00  0.00    +0.000 N 
ATOM      4  C   UNL     1       4.745   6.897  17.666  0.00  0.00    +0.000 C 
ATOM      5  C   UNL     1       5.618   6.678  16.441  0.00  0.00    +0.000 C 
ATOM      6  C   UNL     1       5.660   5.154  16.296  0.00  0.00    +0.000 C 
ATOM      7  C   UNL     1       4.316   4.688  16.874  0.00  0.00    +0.000 C 
ENDROOT
BRANCH   1  10
ATOM      8  C   UNL     1       2.009   5.600  21.159  0.00  0.00    +0.000 C 
ATOM      9  N   UNL     1       1.761   6.761  20.325  0.00  0.00    +0.000 N 
ATOM     10  C   UNL     1       1.988   6.868  18.953  0.00  0.00    +0.000 A 
ATOM     11  C   UNL     1       1.822   8.218  18.666  0.00  0.00    +0.000 A 
ATOM     12 CL   UNL     1       2.221   9.064  17.236  0.00  0.00    +0.000 Cl
ATOM     13  C   UNL     1       1.316   8.888  19.813  0.00  0.00    +0.000 A 
ATOM     14  C   UNL     1       0.930  10.219  20.083  0.00  0.00    +0.000 A 
ATOM     15  C   UNL     1       0.532  10.581  21.372  0.00  0.00    +0.000 A 
ATOM     16  C   UNL     1       0.509   9.637  22.388  0.00  0.00    +0.000 A 
ATOM     17  C   UNL     1       0.879   8.310  22.147  0.00  0.00    +0.000 A 
ATOM     18  C   UNL     1       1.285   7.955  20.846  0.00  0.00    +0.000 A 
ENDBRANCH   1  10
BRANCH   6  19
ATOM     19  C   UNL     1       6.861   4.537  16.994  0.00  0.00    +0.000 C 
ATOM     20  N   UNL     1       6.622   4.085  18.265  0.00  0.00    +0.000 N 
ATOM     21  O   UNL     1       7.991   4.474  16.525  0.00  0.00    +0.000 OA
ATOM     22  H   UNL     1       5.736   4.186  18.737  0.00  0.00    +0.000 HD
ATOM     23  H   UNL     1       7.406   3.708  18.778  0.00  0.00    +0.000 HD
ENDBRANCH   6  19
TORSDOF 2
ENDMDL
MODEL 3
REMARK VINA RESULT:      -6.3      5.877      9.937
REMARK  Name = 
REMARK  3 active torsions:
REMARK  status: ('A' for Active; 'I' for Inactive)
REMARK    1  A    between atoms: C_1  and  N_2
REMARK    2  A    between atoms: C_3  and  C_4
REMARK    3  A    between atoms: C_9  and  C_10
REMARK                            x       y       z     vdW  Elec       q    Type
REMARK                         _______ _______ _______ _____ _____    ______ ____
ROOT
ATOM      1  C   UNL     1      -1.152  12.720  22.720  0.00  0.00    +0.000 C 
ATOM      2  O   UNL     1      -0.507  13.367  23.545  0.00  0.00    +0.000 OA
ATOM      3  N   UNL     1      -2.536  12.871  22.676  0.00  0.00    +0.000 N 
ATOM      4  C   UNL     1      -3.484  12.371  21.703  0.00  0.00    +0.000 C 
ATOM      5  C   UNL     1      -4.637  13.360  21.769  0.00  0.00    +0.000 C 
ATOM      6  C   UNL     1      -4.684  13.760  23.247  0.00  0.00    +0.000 C 
ATOM      7  C   UNL     1      -3.229  13.626  23.715  0.00  0.00    +0.000 C 
ENDROOT
BRANCH   1  10
ATOM      8  C   UNL     1      -0.000  13.566  19.970  0.00  0.00    +0.000 C 
ATOM      9  N   UNL     1       0.001  12.225  20.524  0.00  0.00    +0.000 N 
ATOM     10  C   UNL     1      -0.490  11.834  21.770  0.00  0.00    +0.000 A 
ATOM     11  C   UNL     1      -0.056  10.524  21.932  0.00  0.00    +0.000 A 
ATOM     12 CL   UNL     1      -0.078   9.557  23.341  0.00  0.00    +0.000 Cl
ATOM     13  C   UNL     1       0.529  10.065  20.721  0.00  0.00    +0.000 A 
ATOM     14  C   UNL     1       1.087   8.837  20.303  0.00  0.00    +0.000 A 
ATOM     15  C   UNL     1       1.661   8.728  19.034  0.00  0.00    +0.000 A 
ATOM     16  C   UNL     1       1.679   9.820  18.178  0.00  0.00    +0.000 A 
ATOM     17  C   UNL     1       1.125  11.046  18.563  0.00  0.00    +0.000 A 
ATOM     18  C   UNL     1       0.556  11.149  19.847  0.00  0.00    +0.000 A 
ENDBRANCH   1  10
BRANCH   6  19
ATOM     19  C   UNL     1      -5.655  12.908  24.048  0.00  0.00    +0.000 C 
ATOM     20  N   UNL     1      -5.072  12.085  24.976  0.00  0.00    +0.000 N 
ATOM     21  O   UNL     1      -6.868  12.878  23.881  0.00  0.00    +0.000 OA
ATOM     22  H   UNL     1      -4.074  12.003  25.101  0.00  0.00    +0.000 HD
ATOM     23  H   UNL     1      -5.681  11.472  25.498  0.00  0.00    +0.000 HD
ENDBRANCH   6  19
TORSDOF 2
ENDMDL
MODEL 4
REMARK VINA RESULT:      -6.1      5.801      9.961
REMARK  Name = 
REMARK  3 active torsions:
REMARK  status: ('A' for Active; 'I' for Inactive)
REMARK    1  A    between atoms: C_1  and  N_2
REMARK    2  A    between atoms: C_3  and  C_4
REMARK    3  A    between atoms: C_9  and  C_10
REMARK                            x       y       z     vdW  Elec       q    Type
REMARK                         _______ _______ _______ _____ _____    ______ ____
ROOT
ATOM      1  C   UNL     1      -0.805  12.746  22.519  0.00  0.00    +0.000 C 
ATOM      2  O   UNL     1      -0.125  13.490  23.228  0.00  0.00    +0.000 OA
ATOM      3  N   UNL     1      -2.193  12.831  22.589  0.00  0.00    +0.000 N 
ATOM      4  C   UNL     1      -3.194  12.206  21.749  0.00  0.00    +0.000 C 
ATOM      5  C   UNL     1      -4.387  13.144  21.837  0.00  0.00    +0.000 C 
ATOM      6  C   UNL     1      -4.328  13.666  23.276  0.00  0.00    +0.000 C 
ATOM      7  C   UNL     1      -2.833  13.639  23.620  0.00  0.00    +0.000 C 
ENDROOT
BRANCH   1  10
ATOM      8  C   UNL     1      -0.219   9.755  23.087  0.00  0.00    +0.000 C 
ATOM      9  N   UNL     1       0.100  10.475  21.868  0.00  0.00    +0.000 N 
ATOM     10  C   UNL     1      -0.181  11.813  21.589  0.00  0.00    +0.000 A 
ATOM     11  C   UNL     1       0.100  11.964  20.237  0.00  0.00    +0.000 A 
ATOM     12 CL   UNL     1      -0.283  13.270  19.204  0.00  0.00    +0.000 Cl
ATOM     13  C   UNL     1       0.722  10.783  19.747  0.00  0.00    +0.000 A 
ATOM     14  C   UNL     1       1.248  10.397  18.494  0.00  0.00    +0.000 A 
ATOM     15  C   UNL     1       1.740   9.102  18.315  0.00  0.00    +0.000 A 
ATOM     16  C   UNL     1       1.720   8.194  19.364  0.00  0.00    +0.000 A 
ATOM     17  C   UNL     1       1.213   8.553  20.618  0.00  0.00    +0.000 A 
ATOM     18  C   UNL     1       0.712   9.858  20.788  0.00  0.00    +0.000 A 
ENDBRANCH   1  10
BRANCH   6  19
ATOM     19  C   UNL     1      -5.180  12.843  24.229  0.00  0.00    +0.000 C 
ATOM     20  N   UNL     1      -6.497  13.214  24.293  0.00  0.00    +0.000 N 
ATOM     21  O   UNL     1      -4.762  11.945  24.948  0.00  0.00    +0.000 OA
ATOM     22  H   UNL     1      -6.882  14.000  23.789  0.00  0.00    +0.000 HD
ATOM     23  H   UNL     1      -7.086  12.720  24.946  0.00  0.00    +0.000 HD
ENDBRANCH   6  19
TORSDOF 2
ENDMDL
MODEL 5
REMARK VINA RESULT:      -6.1      6.452      8.043
REMARK  Name = 
REMARK  3 active torsions:
REMARK  status: ('A' for Active; 'I' for Inactive)
REMARK    1  A    between atoms: C_1  and  N_2
REMARK    2  A    between atoms: C_3  and  C_4
REMARK    3  A    between atoms: C_9  and  C_10
REMARK                            x       y       z     vdW  Elec       q    Type
REMARK                         _______ _______ _______ _____ _____    ______ ____
ROOT
ATOM      1  C   UNL     1       1.149  12.365  20.349  0.00  0.00    +0.000 C 
ATOM      2  O   UNL     1       1.377  11.964  21.491  0.00  0.00    +0.000 OA
ATOM      3  N   UNL     1       1.986  13.329  19.793  0.00  0.00    +0.000 N 
ATOM      4  C   UNL     1       2.038  13.826  18.433  0.00  0.00    +0.000 C 
ATOM      5  C   UNL     1       3.477  14.286  18.265  0.00  0.00    +0.000 C 
ATOM      6  C   UNL     1       3.847  14.827  19.649  0.00  0.00    +0.000 C 
ATOM      7  C   UNL     1       2.990  13.998  20.614  0.00  0.00    +0.000 C 
ENDROOT
BRANCH   1  10
ATOM      8  C   UNL     1      -1.703  13.567  20.168  0.00  0.00    +0.000 C 
ATOM      9  N   UNL     1      -1.238  12.359  19.512  0.00  0.00    +0.000 N 
ATOM     10  C   UNL     1       0.048  11.821  19.563  0.00  0.00    +0.000 A 
ATOM     11  C   UNL     1       0.056  10.816  18.604  0.00  0.00    +0.000 A 
ATOM     12 CL   UNL     1       1.387   9.954  17.969  0.00  0.00    +0.000 Cl
ATOM     13  C   UNL     1      -1.263  10.621  18.110  0.00  0.00    +0.000 A 
ATOM     14  C   UNL     1      -1.842   9.732  17.179  0.00  0.00    +0.000 A 
ATOM     15  C   UNL     1      -3.195   9.850  16.851  0.00  0.00    +0.000 A 
ATOM     16  C   UNL     1      -3.975  10.834  17.442  0.00  0.00    +0.000 A 
ATOM     17  C   UNL     1      -3.429  11.723  18.374  0.00  0.00    +0.000 A 
ATOM     18  C   UNL     1      -2.062  11.602  18.693  0.00  0.00    +0.000 A 
ENDBRANCH   1  10
BRANCH   6  19
ATOM     19  C   UNL     1       3.611  16.324  19.769  0.00  0.00    +0.000 C 
ATOM     20  N   UNL     1       2.671  16.689  20.697  0.00  0.00    +0.000 N 
ATOM     21  O   UNL     1       4.150  17.179  19.077  0.00  0.00    +0.000 OA
ATOM     22  H   UNL     1       2.133  16.027  21.236  0.00  0.00    +0.000 HD
ATOM     23  H   UNL     1       2.455  17.672  20.776  0.00  0.00    +0.000 HD
ENDBRANCH   6  19
TORSDOF 2
ENDMDL
MODEL 6
REMARK VINA RESULT:      -6.0      3.578      7.439
REMARK  Name = 
REMARK  3 active torsions:
REMARK  status: ('A' for Active; 'I' for Inactive)
REMARK    1  A    between atoms: C_1  and  N_2
REMARK    2  A    between atoms: C_3  and  C_4
REMARK    3  A    between atoms: C_9  and  C_10
REMARK                            x       y       z     vdW  Elec       q    Type
REMARK                         _______ _______ _______ _____ _____    ______ ____
ROOT
ATOM      1  C   UNL     1       5.482   4.487  18.427  0.00  0.00    +0.000 C 
ATOM      2  O   UNL     1       6.268   4.359  19.367  0.00  0.00    +0.000 OA
ATOM      3  N   UNL     1       4.122   4.613  18.698  0.00  0.00    +0.000 N 
ATOM      4  C   UNL     1       3.034   4.946  17.802  0.00  0.00    +0.000 C 
ATOM      5  C   UNL     1       1.993   5.584  18.707  0.00  0.00    +0.000 C 
ATOM      6  C   UNL     1       2.138   4.813  20.023  0.00  0.00    +0.000 C 
ATOM      7  C   UNL     1       3.615   4.398  20.049  0.00  0.00    +0.000 C 
ENDROOT
BRANCH   1  10
ATOM      8  C   UNL     1       4.438   2.743  16.087  0.00  0.00    +0.000 C 
ATOM      9  N   UNL     1       5.493   3.737  16.011  0.00  0.00    +0.000 N 
ATOM     10  C   UNL     1       5.955   4.546  17.050  0.00  0.00    +0.000 A 
ATOM     11  C   UNL     1       6.787   5.475  16.437  0.00  0.00    +0.000 A 
ATOM     12 CL   UNL     1       7.453   6.908  17.088  0.00  0.00    +0.000 Cl
ATOM     13  C   UNL     1       6.976   5.117  15.074  0.00  0.00    +0.000 A 
ATOM     14  C   UNL     1       7.734   5.657  14.013  0.00  0.00    +0.000 A 
ATOM     15  C   UNL     1       7.644   5.096  12.736  0.00  0.00    +0.000 A 
ATOM     16  C   UNL     1       6.818   4.005  12.508  0.00  0.00    +0.000 A 
ATOM     17  C   UNL     1       6.063   3.444  13.544  0.00  0.00    +0.000 A 
ATOM     18  C   UNL     1       6.153   4.021  14.826  0.00  0.00    +0.000 A 
ENDBRANCH   1  10
BRANCH   6  19
ATOM     19  C   UNL     1       1.181   3.636  20.115  0.00  0.00    +0.000 C 
ATOM     20  N   UNL     1       1.069   3.078  21.361  0.00  0.00    +0.000 N 
ATOM     21  O   UNL     1       0.573   3.148  19.170  0.00  0.00    +0.000 OA
ATOM     22  H   UNL     1       1.607   3.381  22.159  0.00  0.00    +0.000 HD
ATOM     23  H   UNL     1       0.475   2.267  21.454  0.00  0.00    +0.000 HD
ENDBRANCH   6  19
TORSDOF 2
ENDMDL
MODEL 7
REMARK VINA RESULT:      -5.9      3.606      7.248
REMARK  Name = 
REMARK  3 active torsions:
REMARK  status: ('A' for Active; 'I' for Inactive)
REMARK    1  A    between atoms: C_1  and  N_2
REMARK    2  A    between atoms: C_3  and  C_4
REMARK    3  A    between atoms: C_9  and  C_10
REMARK                            x       y       z     vdW  Elec       q    Type
REMARK                         _______ _______ _______ _____ _____    ______ ____
ROOT
ATOM      1  C   UNL     1       5.247   4.781  18.739  0.00  0.00    +0.000 C 
ATOM      2  O   UNL     1       6.100   5.003  19.601  0.00  0.00    +0.000 OA
ATOM      3  N   UNL     1       3.912   4.689  19.120  0.00  0.00    +0.000 N 
ATOM      4  C   UNL     1       2.724   4.615  18.293  0.00  0.00    +0.000 C 
ATOM      5  C   UNL     1       1.629   5.204  19.168  0.00  0.00    +0.000 C 
ATOM      6  C   UNL     1       2.016   4.757  20.580  0.00  0.00    +0.000 C 
ATOM      7  C   UNL     1       3.547   4.655  20.532  0.00  0.00    +0.000 C 
ENDROOT
BRANCH   1  10
ATOM      8  C   UNL     1       7.404   6.460  17.277  0.00  0.00    +0.000 C 
ATOM      9  N   UNL     1       6.566   5.435  16.682  0.00  0.00    +0.000 N 
ATOM     10  C   UNL     1       5.611   4.655  17.333  0.00  0.00    +0.000 A 
ATOM     11  C   UNL     1       5.254   3.680  16.409  0.00  0.00    +0.000 A 
ATOM     12 CL   UNL     1       4.341   2.257  16.655  0.00  0.00    +0.000 Cl
ATOM     13  C   UNL     1       5.845   3.979  15.151  0.00  0.00    +0.000 A 
ATOM     14  C   UNL     1       5.797   3.377  13.875  0.00  0.00    +0.000 A 
ATOM     15  C   UNL     1       6.574   3.890  12.833  0.00  0.00    +0.000 A 
ATOM     16  C   UNL     1       7.388   4.994  13.045  0.00  0.00    +0.000 A 
ATOM     17  C   UNL     1       7.448   5.615  14.297  0.00  0.00    +0.000 A 
ATOM     18  C   UNL     1       6.667   5.087  15.344  0.00  0.00    +0.000 A 
ENDBRANCH   1  10
BRANCH   6  19
ATOM     19  C   UNL     1       1.339   3.458  20.985  0.00  0.00    +0.000 C 
ATOM     20  N   UNL     1       0.331   3.048  20.152  0.00  0.00    +0.000 N 
ATOM     21  O   UNL     1       1.595   2.815  21.995  0.00  0.00    +0.000 OA
ATOM     22  H   UNL     1       0.017   3.578  19.353  0.00  0.00    +0.000 HD
ATOM     23  H   UNL     1      -0.173   2.212  20.410  0.00  0.00    +0.000 HD
ENDBRANCH   6  19
TORSDOF 2
ENDMDL
MODEL 8
REMARK VINA RESULT:      -5.9      5.075      9.152
REMARK  Name = 
REMARK  3 active torsions:
REMARK  status: ('A' for Active; 'I' for Inactive)
REMARK    1  A    between atoms: C_1  and  N_2
REMARK    2  A    between atoms: C_3  and  C_4
REMARK    3  A    between atoms: C_9  and  C_10
REMARK                            x       y       z     vdW  Elec       q    Type
REMARK                         _______ _______ _______ _____ _____    ______ ____
ROOT
ATOM      1  C   UNL     1      -0.662  12.188  21.585  0.00  0.00    +0.000 C 
ATOM      2  O   UNL     1      -0.075  12.920  22.383  0.00  0.00    +0.000 OA
ATOM      3  N   UNL     1      -2.019  12.395  21.353  0.00  0.00    +0.000 N 
ATOM      4  C   UNL     1      -2.881  11.800  20.352  0.00  0.00    +0.000 C 
ATOM      5  C   UNL     1      -3.969  12.840  20.137  0.00  0.00    +0.000 C 
ATOM      6  C   UNL     1      -4.158  13.456  21.527  0.00  0.00    +0.000 C 
ATOM      7  C   UNL     1      -2.777  13.326  22.182  0.00  0.00    +0.000 C 
ENDROOT
BRANCH   1  10
ATOM      8  C   UNL     1       0.505  12.456  18.726  0.00  0.00    +0.000 C 
ATOM      9  N   UNL     1       0.544  11.269  19.560  0.00  0.00    +0.000 N 
ATOM     10  C   UNL     1       0.046  11.142  20.857  0.00  0.00    +0.000 A 
ATOM     11  C   UNL     1       0.524   9.917  21.306  0.00  0.00    +0.000 A 
ATOM     12 CL   UNL     1       0.513   9.281  22.892  0.00  0.00    +0.000 Cl
ATOM     13  C   UNL     1       1.145   9.227  20.230  0.00  0.00    +0.000 A 
ATOM     14  C   UNL     1       1.753   7.959  20.096  0.00  0.00    +0.000 A 
ATOM     15  C   UNL     1       2.351   7.597  18.886  0.00  0.00    +0.000 A 
ATOM     16  C   UNL     1       2.344   8.476  17.812  0.00  0.00    +0.000 A 
ATOM     17  C   UNL     1       1.741   9.735  17.915  0.00  0.00    +0.000 A 
ATOM     18  C   UNL     1       1.148  10.094  19.140  0.00  0.00    +0.000 A 
ENDBRANCH   1  10
BRANCH   6  19
ATOM     19  C   UNL     1      -5.265  12.777  22.317  0.00  0.00    +0.000 C 
ATOM     20  N   UNL     1      -6.283  12.260  21.559  0.00  0.00    +0.000 N 
ATOM     21  O   UNL     1      -5.323  12.717  23.538  0.00  0.00    +0.000 OA
ATOM     22  H   UNL     1      -6.334  12.353  20.555  0.00  0.00    +0.000 HD
ATOM     23  H   UNL     1      -7.059  11.840  22.049  0.00  0.00    +0.000 HD
ENDBRANCH   6  19
TORSDOF 2
ENDMDL
MODEL 9
REMARK VINA RESULT:      -5.9      5.947      8.080
REMARK  Name = 
REMARK  3 active torsions:
REMARK  status: ('A' for Active; 'I' for Inactive)
REMARK    1  A    between atoms: C_1  and  N_2
REMARK    2  A    between atoms: C_3  and  C_4
REMARK    3  A    between atoms: C_9  and  C_10
REMARK                            x       y       z     vdW  Elec       q    Type
REMARK                         _______ _______ _______ _____ _____    ______ ____
ROOT
ATOM      1  C   UNL     1       1.109  12.532  20.373  0.00  0.00    +0.000 C 
ATOM      2  O   UNL     1       1.324  12.140  21.521  0.00  0.00    +0.000 OA
ATOM      3  N   UNL     1       2.004  13.421  19.785  0.00  0.00    +0.000 N 
ATOM      4  C   UNL     1       2.072  13.883  18.413  0.00  0.00    +0.000 C 
ATOM      5  C   UNL     1       3.538  14.235  18.215  0.00  0.00    +0.000 C 
ATOM      6  C   UNL     1       3.966  14.777  19.582  0.00  0.00    +0.000 C 
ATOM      7  C   UNL     1       3.066  14.032  20.577  0.00  0.00    +0.000 C 
ENDROOT
BRANCH   1  10
ATOM      8  C   UNL     1       1.097  10.073  18.486  0.00  0.00    +0.000 C 
ATOM      9  N   UNL     1      -0.023  10.958  18.748  0.00  0.00    +0.000 N 
ATOM     10  C   UNL     1      -0.039  12.051  19.614  0.00  0.00    +0.000 A 
ATOM     11  C   UNL     1      -1.376  12.423  19.698  0.00  0.00    +0.000 A 
ATOM     12 CL   UNL     1      -2.118  13.506  20.790  0.00  0.00    +0.000 Cl
ATOM     13  C   UNL     1      -2.134  11.684  18.748  0.00  0.00    +0.000 A 
ATOM     14  C   UNL     1      -3.494  11.676  18.370  0.00  0.00    +0.000 A 
ATOM     15  C   UNL     1      -3.949  10.751  17.426  0.00  0.00    +0.000 A 
ATOM     16  C   UNL     1      -3.068   9.845  16.854  0.00  0.00    +0.000 A 
ATOM     17  C   UNL     1      -1.714   9.837  17.204  0.00  0.00    +0.000 A 
ATOM     18  C   UNL     1      -1.265  10.768  18.162  0.00  0.00    +0.000 A 
ENDBRANCH   1  10
BRANCH   6  19
ATOM     19  C   UNL     1       3.840  16.289  19.672  0.00  0.00    +0.000 C 
ATOM     20  N   UNL     1       3.501  16.769  20.910  0.00  0.00    +0.000 N 
ATOM     21  O   UNL     1       3.966  17.063  18.731  0.00  0.00    +0.000 OA
ATOM     22  H   UNL     1       3.301  16.177  21.702  0.00  0.00    +0.000 HD
ATOM     23  H   UNL     1       3.366  17.765  21.000  0.00  0.00    +0.000 HD
ENDBRANCH   6  19
TORSDOF 2
ENDMDL
