MODEL 1
REMARK VINA RESULT:      -7.8      0.000      0.000
REMARK  Name = 
REMARK  6 active torsions:
REMARK  status: ('A' for Active; 'I' for Inactive)
REMARK    1  A    between atoms: C_1  and  C_2
REMARK    2  A    between atoms: C_5  and  C_6
REMARK    3  A    between atoms: C_6  and  C_7
REMARK    4  A    between atoms: C_6  and  N_8
REMARK    5  A    between atoms: N_8  and  S_9
REMARK    6  A    between atoms: S_9  and  N_12
REMARK                            x       y       z     vdW  Elec       q    Type
REMARK                         _______ _______ _______ _____ _____    ______ ____
ROOT
ATOM      1  S   UNL     1       3.704   3.502  17.826  0.00  0.00    +0.000 S 
ATOM      2  O   UNL     1       2.551   2.789  17.334  0.00  0.00    +0.000 OA
ATOM      3  O   UNL     1       4.713   2.857  18.626  0.00  0.00    +0.000 OA
ENDROOT
BRANCH   1   4
ATOM      4  N   UNL     1       3.190   4.877  18.582  0.00  0.00    +0.000 NA
ATOM      5  C   UNL     1       3.343   5.045  20.031  0.00  0.00    +0.000 C 
ATOM      6  C   UNL     1       2.060   5.645  20.603  0.00  0.00    +0.000 C 
ATOM      7  C   UNL     1       1.838   6.996  19.978  0.00  0.00    +0.000 A 
ATOM      8  C   UNL     1       1.313   8.056  20.722  0.00  0.00    +0.000 A 
ATOM      9  C   UNL     1       1.182   9.315  20.141  0.00  0.00    +0.000 A 
ATOM     10  C   UNL     1       1.560   9.516  18.814  0.00  0.00    +0.000 A 
ATOM     11  C   UNL     1       2.046   8.450  18.052  0.00  0.00    +0.000 A 
ATOM     12  C   UNL     1       2.185   7.180  18.626  0.00  0.00    +0.000 A 
ATOM     13  C   UNL     1       2.654   5.998  17.795  0.00  0.00    +0.000 C 
ENDBRANCH   1   4
BRANCH   1  14
ATOM     14  N   UNL     1       4.436   4.165  16.469  0.00  0.00    +0.000 NA
ATOM     15  H   UNL     1       3.934   3.827  15.647  0.00  0.00    +0.000 HD
BRANCH  14  16
ATOM     16  C   UNL     1       5.903   4.022  16.315  0.00  0.00    +0.000 C 
ATOM     17  C   UNL     1       6.330   4.130  14.857  0.00  0.00    +0.000 C 
BRANCH  16  22
ATOM     18  C   UNL     1       7.943   8.326  17.681  0.00  0.00    +0.000 C 
ATOM     19  C   UNL     1       7.516   6.915  17.798  0.00  0.00    +0.000 A 
ATOM     20  C   UNL     1       7.741   6.002  18.804  0.00  0.00    +0.000 A 
ATOM     21  N   UNL     1       7.151   4.843  18.376  0.00  0.00    +0.000 N 
ATOM     22  C   UNL     1       6.586   5.081  17.144  0.00  0.00    +0.000 A 
ATOM     23  N   UNL     1       6.797   6.333  16.784  0.00  0.00    +0.000 NA
ATOM     24  H   UNL     1       7.127   3.955  18.861  0.00  0.00    +0.000 HD
ENDBRANCH  16  22
ENDBRANCH  14  16
ENDBRANCH   1  14
TORSDOF 4
ENDMDL
MODEL 2
REMARK VINA RESULT:      -7.6      3.201      5.278
REMARK  Name = 
REMARK  6 active torsions:
REMARK  status: ('A' for Active; 'I' for Inactive)
REMARK    1  A    between atoms: C_1  and  C_2
REMARK    2  A    between atoms: C_5  and  C_6
REMARK    3  A    between atoms: C_6  and  C_7
REMARK    4  A    between atoms: C_6  and  N_8
REMARK    5  A    between atoms: N_8  and  S_9
REMARK    6  A    between atoms: S_9  and  N_12
REMARK                            x       y       z     vdW  Elec       q    Type
REMARK                         _______ _______ _______ _____ _____    ______ ____
ROOT
ATOM      1  S   UNL     1       6.728   5.039  16.512  0.00  0.00    +0.000 S 
ATOM      2  O   UNL     1       7.776   4.354  17.229  0.00  0.00    +0.000 OA
ATOM      3  O   UNL     1       6.849   6.420  16.124  0.00  0.00    +0.000 OA
ENDROOT
BRANCH   1   4
ATOM      4  N   UNL     1       5.304   4.809  17.315  0.00  0.00    +0.000 NA
ATOM      5  C   UNL     1       4.668   5.906  18.054  0.00  0.00    +0.000 C 
ATOM      6  C   UNL     1       4.165   5.379  19.397  0.00  0.00    +0.000 C 
ATOM      7  C   UNL     1       3.140   4.307  19.141  0.00  0.00    +0.000 A 
ATOM      8  C   UNL     1       2.016   4.176  19.960  0.00  0.00    +0.000 A 
ATOM      9  C   UNL     1       1.047   3.221  19.662  0.00  0.00    +0.000 A 
ATOM     10  C   UNL     1       1.204   2.386  18.557  0.00  0.00    +0.000 A 
ATOM     11  C   UNL     1       2.347   2.484  17.759  0.00  0.00    +0.000 A 
ATOM     12  C   UNL     1       3.327   3.442  18.046  0.00  0.00    +0.000 A 
ATOM     13  C   UNL     1       4.602   3.520  17.225  0.00  0.00    +0.000 C 
ENDBRANCH   1   4
BRANCH   1  14
ATOM     14  N   UNL     1       6.445   4.117  15.138  0.00  0.00    +0.000 NA
ATOM     15  H   UNL     1       7.047   3.293  15.186  0.00  0.00    +0.000 HD
BRANCH  14  16
ATOM     16  C   UNL     1       6.522   4.778  13.815  0.00  0.00    +0.000 C 
ATOM     17  C   UNL     1       7.959   5.106  13.431  0.00  0.00    +0.000 C 
BRANCH  16  22
ATOM     18  C   UNL     1       3.270   2.863  10.603  0.00  0.00    +0.000 C 
ATOM     19  C   UNL     1       4.517   2.967  11.391  0.00  0.00    +0.000 A 
ATOM     20  C   UNL     1       5.572   2.089  11.499  0.00  0.00    +0.000 A 
ATOM     21  N   UNL     1       6.436   2.672  12.387  0.00  0.00    +0.000 N 
ATOM     22  C   UNL     1       5.894   3.874  12.782  0.00  0.00    +0.000 A 
ATOM     23  N   UNL     1       4.734   4.066  12.184  0.00  0.00    +0.000 NA
ATOM     24  H   UNL     1       7.319   2.301  12.712  0.00  0.00    +0.000 HD
ENDBRANCH  16  22
ENDBRANCH  14  16
ENDBRANCH   1  14
TORSDOF 4
ENDMDL
MODEL 3
REMARK VINA RESULT:      -7.5      3.062      4.540
REMARK  Name = 
REMARK  6 active torsions:
REMARK  status: ('A' for Active; 'I' for Inactive)
REMARK    1  A    between atoms: C_1  and  C_2
REMARK    2  A    between atoms: C_5  and  C_6
REMARK    3  A    between atoms: C_6  and  C_7
REMARK    4  A    between atoms: C_6  and  N_8
REMARK    5  A    between atoms: N_8  and  S_9
REMARK    6  A    between atoms: S_9  and  N_12
REMARK                            x       y       z     vdW  Elec       q    Type
REMARK                         _______ _______ _______ _____ _____    ______ ____
ROOT
ATOM      1  S   UNL     1       7.351   5.226  18.029  0.00  0.00    +0.000 S 
ATOM      2  O   UNL     1       8.207   4.102  17.734  0.00  0.00    +0.000 OA
ATOM      3  O   UNL     1       7.714   6.223  19.003  0.00  0.00    +0.000 OA
ENDROOT
BRANCH   1   4
ATOM      4  N   UNL     1       5.833   4.661  18.351  0.00  0.00    +0.000 NA
ATOM      5  C   UNL     1       5.397   3.348  17.864  0.00  0.00    +0.000 C 
ATOM      6  C   UNL     1       3.975   3.464  17.318  0.00  0.00    +0.000 C 
ATOM      7  C   UNL     1       3.062   3.896  18.434  0.00  0.00    +0.000 A 
ATOM      8  C   UNL     1       1.762   3.395  18.536  0.00  0.00    +0.000 A 
ATOM      9  C   UNL     1       0.961   3.757  19.616  0.00  0.00    +0.000 A 
ATOM     10  C   UNL     1       1.449   4.629  20.588  0.00  0.00    +0.000 A 
ATOM     11  C   UNL     1       2.734   5.167  20.469  0.00  0.00    +0.000 A 
ATOM     12  C   UNL     1       3.550   4.809  19.390  0.00  0.00    +0.000 A 
ATOM     13  C   UNL     1       4.924   5.431  19.214  0.00  0.00    +0.000 C 
ENDBRANCH   1   4
BRANCH   1  14
ATOM     14  N   UNL     1       7.080   5.984  16.558  0.00  0.00    +0.000 NA
ATOM     15  H   UNL     1       7.180   6.991  16.702  0.00  0.00    +0.000 HD
BRANCH  14  16
ATOM     16  C   UNL     1       5.844   5.656  15.809  0.00  0.00    +0.000 C 
ATOM     17  C   UNL     1       4.982   6.890  15.576  0.00  0.00    +0.000 C 
BRANCH  16  22
ATOM     18  C   UNL     1       5.842   2.657  11.864  0.00  0.00    +0.000 C 
ATOM     19  C   UNL     1       6.304   3.737  12.764  0.00  0.00    +0.000 A 
ATOM     20  C   UNL     1       7.436   4.519  12.700  0.00  0.00    +0.000 A 
ATOM     21  N   UNL     1       7.377   5.327  13.804  0.00  0.00    +0.000 N 
ATOM     22  C   UNL     1       6.225   5.024  14.494  0.00  0.00    +0.000 A 
ATOM     23  N   UNL     1       5.566   4.065  13.873  0.00  0.00    +0.000 NA
ATOM     24  H   UNL     1       8.052   6.027  14.084  0.00  0.00    +0.000 HD
ENDBRANCH  16  22
ENDBRANCH  14  16
ENDBRANCH   1  14
TORSDOF 4
ENDMDL
MODEL 4
REMARK VINA RESULT:      -7.5      1.175      2.715
REMARK  Name = 
REMARK  6 active torsions:
REMARK  status: ('A' for Active; 'I' for Inactive)
REMARK    1  A    between atoms: C_1  and  C_2
REMARK    2  A    between atoms: C_5  and  C_6
REMARK    3  A    between atoms: C_6  and  C_7
REMARK    4  A    between atoms: C_6  and  N_8
REMARK    5  A    between atoms: N_8  and  S_9
REMARK    6  A    between atoms: S_9  and  N_12
REMARK                            x       y       z     vdW  Elec       q    Type
REMARK                         _______ _______ _______ _____ _____    ______ ____
ROOT
ATOM      1  S   UNL     1       4.166   3.209  19.022  0.00  0.00    +0.000 S 
ATOM      2  O   UNL     1       3.892   2.434  17.836  0.00  0.00    +0.000 OA
ATOM      3  O   UNL     1       3.976   2.670  20.343  0.00  0.00    +0.000 OA
ENDROOT
BRANCH   1   4
ATOM      4  N   UNL     1       3.385   4.658  18.894  0.00  0.00    +0.000 NA
ATOM      5  C   UNL     1       2.901   5.144  17.597  0.00  0.00    +0.000 C 
ATOM      6  C   UNL     1       3.227   6.632  17.468  0.00  0.00    +0.000 C 
ATOM      7  C   UNL     1       2.516   7.379  18.563  0.00  0.00    +0.000 A 
ATOM      8  C   UNL     1       1.970   8.645  18.334  0.00  0.00    +0.000 A 
ATOM      9  C   UNL     1       1.257   9.287  19.343  0.00  0.00    +0.000 A 
ATOM     10  C   UNL     1       1.098   8.675  20.586  0.00  0.00    +0.000 A 
ATOM     11  C   UNL     1       1.676   7.427  20.834  0.00  0.00    +0.000 A 
ATOM     12  C   UNL     1       2.394   6.770  19.827  0.00  0.00    +0.000 A 
ATOM     13  C   UNL     1       3.079   5.443  20.100  0.00  0.00    +0.000 C 
ENDBRANCH   1   4
BRANCH   1  14
ATOM     14  N   UNL     1       5.758   3.716  18.871  0.00  0.00    +0.000 NA
ATOM     15  H   UNL     1       6.180   3.703  19.802  0.00  0.00    +0.000 HD
BRANCH  14  16
ATOM     16  C   UNL     1       6.033   4.986  18.160  0.00  0.00    +0.000 C 
ATOM     17  C   UNL     1       7.179   5.756  18.804  0.00  0.00    +0.000 C 
BRANCH  16  22
ATOM     18  C   UNL     1       7.781   5.406  13.542  0.00  0.00    +0.000 C 
ATOM     19  C   UNL     1       7.053   4.807  14.682  0.00  0.00    +0.000 A 
ATOM     20  C   UNL     1       6.257   3.685  14.733  0.00  0.00    +0.000 A 
ATOM     21  N   UNL     1       5.813   3.617  16.026  0.00  0.00    +0.000 N 
ATOM     22  C   UNL     1       6.349   4.679  16.718  0.00  0.00    +0.000 A 
ATOM     23  N   UNL     1       7.104   5.405  15.916  0.00  0.00    +0.000 NA
ATOM     24  H   UNL     1       5.196   2.920  16.423  0.00  0.00    +0.000 HD
ENDBRANCH  16  22
ENDBRANCH  14  16
ENDBRANCH   1  14
TORSDOF 4
ENDMDL
MODEL 5
REMARK VINA RESULT:      -7.4      1.292      2.809
REMARK  Name = 
REMARK  6 active torsions:
REMARK  status: ('A' for Active; 'I' for Inactive)
REMARK    1  A    between atoms: C_1  and  C_2
REMARK    2  A    between atoms: C_5  and  C_6
REMARK    3  A    between atoms: C_6  and  C_7
REMARK    4  A    between atoms: C_6  and  N_8
REMARK    5  A    between atoms: N_8  and  S_9
REMARK    6  A    between atoms: S_9  and  N_12
REMARK                            x       y       z     vdW  Elec       q    Type
REMARK                         _______ _______ _______ _____ _____    ______ ____
ROOT
ATOM      1  S   UNL     1       3.742   3.067  19.227  0.00  0.00    +0.000 S 
ATOM      2  O   UNL     1       3.333   2.247  18.112  0.00  0.00    +0.000 OA
ATOM      3  O   UNL     1       3.612   2.618  20.589  0.00  0.00    +0.000 OA
ENDROOT
BRANCH   1   4
ATOM      4  N   UNL     1       3.051   4.557  19.064  0.00  0.00    +0.000 NA
ATOM      5  C   UNL     1       2.547   5.019  17.766  0.00  0.00    +0.000 C 
ATOM      6  C   UNL     1       2.961   6.475  17.557  0.00  0.00    +0.000 C 
ATOM      7  C   UNL     1       2.344   7.313  18.644  0.00  0.00    +0.000 A 
ATOM      8  C   UNL     1       1.872   8.602  18.380  0.00  0.00    +0.000 A 
ATOM      9  C   UNL     1       1.242   9.331  19.385  0.00  0.00    +0.000 A 
ATOM     10  C   UNL     1       1.095   8.783  20.659  0.00  0.00    +0.000 A 
ATOM     11  C   UNL     1       1.602   7.512  20.941  0.00  0.00    +0.000 A 
ATOM     12  C   UNL     1       2.235   6.767  19.938  0.00  0.00    +0.000 A 
ATOM     13  C   UNL     1       2.845   5.411  20.244  0.00  0.00    +0.000 C 
ENDBRANCH   1   4
BRANCH   1  14
ATOM     14  N   UNL     1       5.349   3.452  18.938  0.00  0.00    +0.000 NA
ATOM     15  H   UNL     1       5.885   3.198  19.769  0.00  0.00    +0.000 HD
BRANCH  14  16
ATOM     16  C   UNL     1       5.676   4.819  18.468  0.00  0.00    +0.000 C 
ATOM     17  C   UNL     1       6.742   5.473  19.338  0.00  0.00    +0.000 C 
BRANCH  16  22
ATOM     18  C   UNL     1       5.820   3.770  13.627  0.00  0.00    +0.000 C 
ATOM     19  C   UNL     1       6.285   4.297  14.929  0.00  0.00    +0.000 A 
ATOM     20  C   UNL     1       7.492   4.862  15.276  0.00  0.00    +0.000 A 
ATOM     21  N   UNL     1       7.389   5.137  16.613  0.00  0.00    +0.000 N 
ATOM     22  C   UNL     1       6.140   4.743  17.035  0.00  0.00    +0.000 A 
ATOM     23  N   UNL     1       5.460   4.236  16.024  0.00  0.00    +0.000 NA
ATOM     24  H   UNL     1       8.097   5.550  17.206  0.00  0.00    +0.000 HD
ENDBRANCH  16  22
ENDBRANCH  14  16
ENDBRANCH   1  14
TORSDOF 4
ENDMDL
MODEL 6
REMARK VINA RESULT:      -7.3      1.983      6.773
REMARK  Name = 
REMARK  6 active torsions:
REMARK  status: ('A' for Active; 'I' for Inactive)
REMARK    1  A    between atoms: C_1  and  C_2
REMARK    2  A    between atoms: C_5  and  C_6
REMARK    3  A    between atoms: C_6  and  C_7
REMARK    4  A    between atoms: C_6  and  N_8
REMARK    5  A    between atoms: N_8  and  S_9
REMARK    6  A    between atoms: S_9  and  N_12
REMARK                            x       y       z     vdW  Elec       q    Type
REMARK                         _______ _______ _______ _____ _____    ______ ____
ROOT
ATOM      1  S   UNL     1       5.119   4.348  18.439  0.00  0.00    +0.000 S 
ATOM      2  O   UNL     1       6.073   4.798  19.423  0.00  0.00    +0.000 OA
ATOM      3  O   UNL     1       4.370   3.130  18.607  0.00  0.00    +0.000 OA
ENDROOT
BRANCH   1   4
ATOM      4  N   UNL     1       5.848   4.353  16.958  0.00  0.00    +0.000 NA
ATOM      5  C   UNL     1       7.290   4.589  16.826  0.00  0.00    +0.000 C 
ATOM      6  C   UNL     1       7.537   5.541  15.656  0.00  0.00    +0.000 C 
ATOM      7  C   UNL     1       7.033   4.895  14.394  0.00  0.00    +0.000 A 
ATOM      8  C   UNL     1       7.712   5.054  13.183  0.00  0.00    +0.000 A 
ATOM      9  C   UNL     1       7.265   4.390  12.044  0.00  0.00    +0.000 A 
ATOM     10  C   UNL     1       6.133   3.578  12.105  0.00  0.00    +0.000 A 
ATOM     11  C   UNL     1       5.426   3.449  13.303  0.00  0.00    +0.000 A 
ATOM     12  C   UNL     1       5.866   4.108  14.457  0.00  0.00    +0.000 A 
ATOM     13  C   UNL     1       5.074   4.027  15.750  0.00  0.00    +0.000 C 
ENDBRANCH   1   4
BRANCH   1  14
ATOM     14  N   UNL     1       4.041   5.619  18.243  0.00  0.00    +0.000 NA
ATOM     15  H   UNL     1       4.548   6.397  17.818  0.00  0.00    +0.000 HD
BRANCH  14  16
ATOM     16  C   UNL     1       3.243   6.057  19.412  0.00  0.00    +0.000 C 
ATOM     17  C   UNL     1       2.405   7.288  19.093  0.00  0.00    +0.000 C 
BRANCH  16  22
ATOM     18  C   UNL     1       1.268   2.433  22.154  0.00  0.00    +0.000 C 
ATOM     19  C   UNL     1       1.468   3.305  20.976  0.00  0.00    +0.000 A 
ATOM     20  C   UNL     1       0.890   3.255  19.728  0.00  0.00    +0.000 A 
ATOM     21  N   UNL     1       1.465   4.279  19.024  0.00  0.00    +0.000 N 
ATOM     22  C   UNL     1       2.358   4.918  19.853  0.00  0.00    +0.000 A 
ATOM     23  N   UNL     1       2.367   4.340  21.038  0.00  0.00    +0.000 NA
ATOM     24  H   UNL     1       1.283   4.534  18.062  0.00  0.00    +0.000 HD
ENDBRANCH  16  22
ENDBRANCH  14  16
ENDBRANCH   1  14
TORSDOF 4
ENDMDL
MODEL 7
REMARK VINA RESULT:      -7.3      1.144      2.344
REMARK  Name = 
REMARK  6 active torsions:
REMARK  status: ('A' for Active; 'I' for Inactive)
REMARK    1  A    between atoms: C_1  and  C_2
REMARK    2  A    between atoms: C_5  and  C_6
REMARK    3  A    between atoms: C_6  and  C_7
REMARK    4  A    between atoms: C_6  and  N_8
REMARK    5  A    between atoms: N_8  and  S_9
REMARK    6  A    between atoms: S_9  and  N_12
REMARK                            x       y       z     vdW  Elec       q    Type
REMARK                         _______ _______ _______ _____ _____    ______ ____
ROOT
ATOM      1  S   UNL     1       3.904   3.340  18.063  0.00  0.00    +0.000 S 
ATOM      2  O   UNL     1       3.440   3.255  16.699  0.00  0.00    +0.000 OA
ATOM      3  O   UNL     1       3.717   2.261  18.998  0.00  0.00    +0.000 OA
ENDROOT
BRANCH   1   4
ATOM      4  N   UNL     1       3.348   4.748  18.721  0.00  0.00    +0.000 NA
ATOM      5  C   UNL     1       3.475   5.012  20.159  0.00  0.00    +0.000 C 
ATOM      6  C   UNL     1       2.170   5.618  20.673  0.00  0.00    +0.000 C 
ATOM      7  C   UNL     1       1.928   6.921  19.959  0.00  0.00    +0.000 A 
ATOM      8  C   UNL     1       1.369   8.014  20.626  0.00  0.00    +0.000 A 
ATOM      9  C   UNL     1       1.219   9.230  19.964  0.00  0.00    +0.000 A 
ATOM     10  C   UNL     1       1.613   9.353  18.632  0.00  0.00    +0.000 A 
ATOM     11  C   UNL     1       2.134   8.252  17.947  0.00  0.00    +0.000 A 
ATOM     12  C   UNL     1       2.292   7.025  18.603  0.00  0.00    +0.000 A 
ATOM     13  C   UNL     1       2.799   5.804  17.857  0.00  0.00    +0.000 C 
ENDBRANCH   1   4
BRANCH   1  14
ATOM     14  N   UNL     1       5.542   3.686  17.961  0.00  0.00    +0.000 NA
ATOM     15  H   UNL     1       5.948   3.551  18.889  0.00  0.00    +0.000 HD
BRANCH  14  16
ATOM     16  C   UNL     1       5.958   4.976  17.362  0.00  0.00    +0.000 C 
ATOM     17  C   UNL     1       7.097   5.618  18.141  0.00  0.00    +0.000 C 
BRANCH  16  22
ATOM     18  C   UNL     1       8.141   5.526  12.947  0.00  0.00    +0.000 C 
ATOM     19  C   UNL     1       7.258   4.930  13.974  0.00  0.00    +0.000 A 
ATOM     20  C   UNL     1       6.350   3.900  13.872  0.00  0.00    +0.000 A 
ATOM     21  N   UNL     1       5.789   3.790  15.116  0.00  0.00    +0.000 N 
ATOM     22  C   UNL     1       6.368   4.737  15.929  0.00  0.00    +0.000 A 
ATOM     23  N   UNL     1       7.260   5.432  15.251  0.00  0.00    +0.000 NA
ATOM     24  H   UNL     1       5.072   3.138  15.406  0.00  0.00    +0.000 HD
ENDBRANCH  16  22
ENDBRANCH  14  16
ENDBRANCH   1  14
TORSDOF 4
ENDMDL
MODEL 8
REMARK VINA RESULT:      -7.2      2.988      4.736
REMARK  Name = 
REMARK  6 active torsions:
REMARK  status: ('A' for Active; 'I' for Inactive)
REMARK    1  A    between atoms: C_1  and  C_2
REMARK    2  A    between atoms: C_5  and  C_6
REMARK    3  A    between atoms: C_6  and  C_7
REMARK    4  A    between atoms: C_6  and  N_8
REMARK    5  A    between atoms: N_8  and  S_9
REMARK    6  A    between atoms: S_9  and  N_12
REMARK                            x       y       z     vdW  Elec       q    Type
REMARK                         _______ _______ _______ _____ _____    ______ ____
ROOT
ATOM      1  S   UNL     1       4.866   6.760  17.034  0.00  0.00    +0.000 S 
ATOM      2  O   UNL     1       6.155   7.260  17.448  0.00  0.00    +0.000 OA
ATOM      3  O   UNL     1       3.809   7.641  16.609  0.00  0.00    +0.000 OA
ENDROOT
BRANCH   1   4
ATOM      4  N   UNL     1       4.302   5.734  18.197  0.00  0.00    +0.000 NA
ATOM      5  C   UNL     1       5.188   5.221  19.248  0.00  0.00    +0.000 C 
ATOM      6  C   UNL     1       4.915   3.731  19.449  0.00  0.00    +0.000 C 
ATOM      7  C   UNL     1       3.487   3.558  19.891  0.00  0.00    +0.000 A 
ATOM      8  C   UNL     1       3.137   2.584  20.831  0.00  0.00    +0.000 A 
ATOM      9  C   UNL     1       1.821   2.489  21.276  0.00  0.00    +0.000 A 
ATOM     10  C   UNL     1       0.849   3.354  20.774  0.00  0.00    +0.000 A 
ATOM     11  C   UNL     1       1.184   4.301  19.803  0.00  0.00    +0.000 A 
ATOM     12  C   UNL     1       2.504   4.409  19.350  0.00  0.00    +0.000 A 
ATOM     13  C   UNL     1       2.872   5.392  18.253  0.00  0.00    +0.000 C 
ENDBRANCH   1   4
BRANCH   1  14
ATOM     14  N   UNL     1       5.183   5.666  15.802  0.00  0.00    +0.000 NA
ATOM     15  H   UNL     1       4.635   4.823  15.984  0.00  0.00    +0.000 HD
BRANCH  14  16
ATOM     16  C   UNL     1       6.594   5.347  15.483  0.00  0.00    +0.000 C 
ATOM     17  C   UNL     1       7.195   4.379  16.494  0.00  0.00    +0.000 C 
BRANCH  16  22
ATOM     18  C   UNL     1       5.810   2.384  11.589  0.00  0.00    +0.000 C 
ATOM     19  C   UNL     1       6.390   3.502  12.364  0.00  0.00    +0.000 A 
ATOM     20  C   UNL     1       7.374   4.402  12.020  0.00  0.00    +0.000 A 
ATOM     21  N   UNL     1       7.539   5.194  13.125  0.00  0.00    +0.000 N 
ATOM     22  C   UNL     1       6.660   4.765  14.093  0.00  0.00    +0.000 A 
ATOM     23  N   UNL     1       5.956   3.744  13.644  0.00  0.00    +0.000 NA
ATOM     24  H   UNL     1       8.190   5.961  13.233  0.00  0.00    +0.000 HD
ENDBRANCH  16  22
ENDBRANCH  14  16
ENDBRANCH   1  14
TORSDOF 4
ENDMDL
MODEL 9
REMARK VINA RESULT:      -7.2      1.130      2.630
REMARK  Name = 
REMARK  6 active torsions:
REMARK  status: ('A' for Active; 'I' for Inactive)
REMARK    1  A    between atoms: C_1  and  C_2
REMARK    2  A    between atoms: C_5  and  C_6
REMARK    3  A    between atoms: C_6  and  C_7
REMARK    4  A    between atoms: C_6  and  N_8
REMARK    5  A    between atoms: N_8  and  S_9
REMARK    6  A    between atoms: S_9  and  N_12
REMARK                            x       y       z     vdW  Elec       q    Type
REMARK                         _______ _______ _______ _____ _____    ______ ____
ROOT
ATOM      1  S   UNL     1       3.919   3.370  18.036  0.00  0.00    +0.000 S 
ATOM      2  O   UNL     1       3.289   3.172  16.753  0.00  0.00    +0.000 OA
ATOM      3  O   UNL     1       3.925   2.345  19.047  0.00  0.00    +0.000 OA
ENDROOT
BRANCH   1   4
ATOM      4  N   UNL     1       3.365   4.785  18.681  0.00  0.00    +0.000 NA
ATOM      5  C   UNL     1       3.505   5.068  20.114  0.00  0.00    +0.000 C 
ATOM      6  C   UNL     1       2.203   5.676  20.633  0.00  0.00    +0.000 C 
ATOM      7  C   UNL     1       1.949   6.968  19.905  0.00  0.00    +0.000 A 
ATOM      8  C   UNL     1       1.393   8.068  20.563  0.00  0.00    +0.000 A 
ATOM      9  C   UNL     1       1.232   9.274  19.886  0.00  0.00    +0.000 A 
ATOM     10  C   UNL     1       1.612   9.382  18.549  0.00  0.00    +0.000 A 
ATOM     11  C   UNL     1       2.130   8.274  17.874  0.00  0.00    +0.000 A 
ATOM     12  C   UNL     1       2.300   7.056  18.544  0.00  0.00    +0.000 A 
ATOM     13  C   UNL     1       2.804   5.827  17.808  0.00  0.00    +0.000 C 
ENDBRANCH   1   4
BRANCH   1  14
ATOM     14  N   UNL     1       5.505   3.800  17.696  0.00  0.00    +0.000 NA
ATOM     15  H   UNL     1       6.051   3.679  18.551  0.00  0.00    +0.000 HD
BRANCH  14  16
ATOM     16  C   UNL     1       5.763   5.113  17.060  0.00  0.00    +0.000 C 
ATOM     17  C   UNL     1       6.817   5.909  17.818  0.00  0.00    +0.000 C 
BRANCH  16  22
ATOM     18  C   UNL     1       5.951   3.362  12.428  0.00  0.00    +0.000 C 
ATOM     19  C   UNL     1       6.361   4.146  13.614  0.00  0.00    +0.000 A 
ATOM     20  C   UNL     1       7.476   4.928  13.816  0.00  0.00    +0.000 A 
ATOM     21  N   UNL     1       7.364   5.387  15.101  0.00  0.00    +0.000 N 
ATOM     22  C   UNL     1       6.199   4.886  15.634  0.00  0.00    +0.000 A 
ATOM     23  N   UNL     1       5.581   4.135  14.742  0.00  0.00    +0.000 NA
ATOM     24  H   UNL     1       8.015   5.986  15.593  0.00  0.00    +0.000 HD
ENDBRANCH  16  22
ENDBRANCH  14  16
ENDBRANCH   1  14
TORSDOF 4
ENDMDL
