MODEL 1
REMARK VINA RESULT:      -8.3      0.000      0.000
REMARK  Name = 
REMARK  5 active torsions:
REMARK  status: ('A' for Active; 'I' for Inactive)
REMARK    1  A    between atoms: C_10  and  C_11
REMARK    2  A    between atoms: C_16  and  O_17
REMARK    3  A    between atoms: N_18  and  C_19
REMARK    4  A    between atoms: C_19  and  C_20
REMARK    5  A    between atoms: C_20  and  C_21
REMARK                            x       y       z     vdW  Elec       q    Type
REMARK                         _______ _______ _______ _____ _____    ______ ____
ROOT
ATOM      1  O   UNL     1       1.985   9.688  18.044  0.00  0.00    +0.000 OA
ATOM      2  C   UNL     1       1.821   8.794  18.871  0.00  0.00    +0.000 A 
ATOM      3  C   UNL     1       1.053   9.185  20.044  0.00  0.00    +0.000 A 
ATOM      4  C   UNL     1       0.354  10.401  20.066  0.00  0.00    +0.000 A 
ATOM      5  C   UNL     1      -0.418  10.733  21.171  0.00  0.00    +0.000 A 
ATOM      6  C   UNL     1      -0.474   9.850  22.247  0.00  0.00    +0.000 A 
ATOM      7  C   UNL     1       0.241   8.644  22.212  0.00  0.00    +0.000 A 
ATOM      8  C   UNL     1       1.011   8.299  21.100  0.00  0.00    +0.000 A 
ATOM      9  N   UNL     1       1.648   7.060  21.046  0.00  0.00    +0.000 NA
ATOM     10  C   UNL     1       2.176   6.636  19.935  0.00  0.00    +0.000 A 
ATOM     11  N   UNL     1       2.276   7.467  18.785  0.00  0.00    +0.000 N 
ENDROOT
BRANCH  10  12
ATOM     12  C   UNL     1       2.630   5.184  19.922  0.00  0.00    +0.000 A 
ATOM     13  C   UNL     1       3.967   4.807  19.741  0.00  0.00    +0.000 A 
ATOM     14  C   UNL     1       4.330   3.463  19.570  0.00  0.00    +0.000 A 
ATOM     15  C   UNL     1       3.377   2.460  19.695  0.00  0.00    +0.000 A 
ATOM     16  C   UNL     1       2.070   2.796  20.029  0.00  0.00    +0.000 A 
ATOM     17  C   UNL     1       1.699   4.143  20.132  0.00  0.00    +0.000 A 
BRANCH  17  18
ATOM     18  O   UNL     1       0.386   4.401  20.423  0.00  0.00    +0.000 OA
ATOM     19  H   UNL     1       0.301   4.596  21.371  0.00  0.00    +0.000 HD
ENDBRANCH  17  18
ENDBRANCH  10  12
BRANCH  11  20
ATOM     20  C   UNL     1       2.840   7.013  17.473  0.00  0.00    +0.000 C 
BRANCH  20  21
ATOM     21  C   UNL     1       4.301   7.390  17.171  0.00  0.00    +0.000 C 
BRANCH  21  22
ATOM     22  C   UNL     1       5.389   6.374  16.952  0.00  0.00    +0.000 A 
ATOM     23  C   UNL     1       6.456   6.127  17.812  0.00  0.00    +0.000 A 
ATOM     24  C   UNL     1       7.403   5.149  17.475  0.00  0.00    +0.000 A 
ATOM     25  C   UNL     1       7.295   4.417  16.285  0.00  0.00    +0.000 A 
ATOM     26  C   UNL     1       6.234   4.671  15.420  0.00  0.00    +0.000 A 
ATOM     27 CL   UNL     1       6.083   3.798  13.948  0.00  0.00    +0.000 Cl
ATOM     28  C   UNL     1       5.294   5.637  15.750  0.00  0.00    +0.000 A 
ENDBRANCH  21  22
ENDBRANCH  20  21
ENDBRANCH  11  20
TORSDOF 5
ENDMDL
MODEL 2
REMARK VINA RESULT:      -8.2      3.634      5.461
REMARK  Name = 
REMARK  5 active torsions:
REMARK  status: ('A' for Active; 'I' for Inactive)
REMARK    1  A    between atoms: C_10  and  C_11
REMARK    2  A    between atoms: C_16  and  O_17
REMARK    3  A    between atoms: N_18  and  C_19
REMARK    4  A    between atoms: C_19  and  C_20
REMARK    5  A    between atoms: C_20  and  C_21
REMARK                            x       y       z     vdW  Elec       q    Type
REMARK                         _______ _______ _______ _____ _____    ______ ____
ROOT
ATOM      1  O   UNL     1       3.022   2.139  17.255  0.00  0.00    +0.000 OA
ATOM      2  C   UNL     1       3.441   3.052  17.963  0.00  0.00    +0.000 A 
ATOM      3  C   UNL     1       2.736   3.213  19.226  0.00  0.00    +0.000 A 
ATOM      4  C   UNL     1       1.844   2.227  19.676  0.00  0.00    +0.000 A 
ATOM      5  C   UNL     1       1.224   2.371  20.909  0.00  0.00    +0.000 A 
ATOM      6  C   UNL     1       1.493   3.504  21.674  0.00  0.00    +0.000 A 
ATOM      7  C   UNL     1       2.378   4.484  21.203  0.00  0.00    +0.000 A 
ATOM      8  C   UNL     1       3.015   4.341  19.969  0.00  0.00    +0.000 A 
ATOM      9  N   UNL     1       3.955   5.282  19.553  0.00  0.00    +0.000 NA
ATOM     10  C   UNL     1       4.714   5.048  18.522  0.00  0.00    +0.000 A 
ATOM     11  N   UNL     1       4.513   3.917  17.683  0.00  0.00    +0.000 N 
ENDROOT
BRANCH  10  12
ATOM     12  C   UNL     1       5.859   6.023  18.299  0.00  0.00    +0.000 A 
ATOM     13  C   UNL     1       5.807   7.054  17.351  0.00  0.00    +0.000 A 
ATOM     14  C   UNL     1       6.937   7.830  17.055  0.00  0.00    +0.000 A 
ATOM     15  C   UNL     1       8.107   7.671  17.786  0.00  0.00    +0.000 A 
ATOM     16  C   UNL     1       8.137   6.763  18.838  0.00  0.00    +0.000 A 
ATOM     17  C   UNL     1       7.029   5.942  19.085  0.00  0.00    +0.000 A 
BRANCH  17  18
ATOM     18  O   UNL     1       7.145   5.042  20.111  0.00  0.00    +0.000 OA
ATOM     19  H   UNL     1       7.701   4.299  19.822  0.00  0.00    +0.000 HD
ENDBRANCH  17  18
ENDBRANCH  10  12
BRANCH  11  20
ATOM     20  C   UNL     1       5.383   3.584  16.509  0.00  0.00    +0.000 C 
BRANCH  20  21
ATOM     21  C   UNL     1       5.041   4.261  15.170  0.00  0.00    +0.000 C 
BRANCH  21  22
ATOM     22  C   UNL     1       5.954   4.237  13.975  0.00  0.00    +0.000 A 
ATOM     23  C   UNL     1       6.930   5.186  13.677  0.00  0.00    +0.000 A 
ATOM     24  C   UNL     1       7.707   5.038  12.520  0.00  0.00    +0.000 A 
ATOM     25  C   UNL     1       7.518   3.952  11.654  0.00  0.00    +0.000 A 
ATOM     26  C   UNL     1       6.535   3.009  11.945  0.00  0.00    +0.000 A 
ATOM     27 CL   UNL     1       6.271   1.674  10.896  0.00  0.00    +0.000 Cl
ATOM     28  C   UNL     1       5.765   3.151  13.091  0.00  0.00    +0.000 A 
ENDBRANCH  21  22
ENDBRANCH  20  21
ENDBRANCH  11  20
TORSDOF 5
ENDMDL
MODEL 3
REMARK VINA RESULT:      -8.2      3.670      5.549
REMARK  Name = 
REMARK  5 active torsions:
REMARK  status: ('A' for Active; 'I' for Inactive)
REMARK    1  A    between atoms: C_10  and  C_11
REMARK    2  A    between atoms: C_16  and  O_17
REMARK    3  A    between atoms: N_18  and  C_19
REMARK    4  A    between atoms: C_19  and  C_20
REMARK    5  A    between atoms: C_20  and  C_21
REMARK                            x       y       z     vdW  Elec       q    Type
REMARK                         _______ _______ _______ _____ _____    ______ ____
ROOT
ATOM      1  O   UNL     1       3.076   2.179  17.241  0.00  0.00    +0.000 OA
ATOM      2  C   UNL     1       3.503   3.082  17.955  0.00  0.00    +0.000 A 
ATOM      3  C   UNL     1       2.809   3.233  19.225  0.00  0.00    +0.000 A 
ATOM      4  C   UNL     1       1.916   2.246  19.671  0.00  0.00    +0.000 A 
ATOM      5  C   UNL     1       1.305   2.380  20.910  0.00  0.00    +0.000 A 
ATOM      6  C   UNL     1       1.584   3.503  21.685  0.00  0.00    +0.000 A 
ATOM      7  C   UNL     1       2.470   4.484  21.218  0.00  0.00    +0.000 A 
ATOM      8  C   UNL     1       3.097   4.352  19.977  0.00  0.00    +0.000 A 
ATOM      9  N   UNL     1       4.038   5.294  19.564  0.00  0.00    +0.000 NA
ATOM     10  C   UNL     1       4.788   5.067  18.526  0.00  0.00    +0.000 A 
ATOM     11  N   UNL     1       4.577   3.946  17.676  0.00  0.00    +0.000 N 
ENDROOT
BRANCH  10  12
ATOM     12  C   UNL     1       5.936   6.041  18.304  0.00  0.00    +0.000 A 
ATOM     13  C   UNL     1       5.902   7.049  17.331  0.00  0.00    +0.000 A 
ATOM     14  C   UNL     1       7.036   7.821  17.041  0.00  0.00    +0.000 A 
ATOM     15  C   UNL     1       8.190   7.683  17.801  0.00  0.00    +0.000 A 
ATOM     16  C   UNL     1       8.200   6.799  18.874  0.00  0.00    +0.000 A 
ATOM     17  C   UNL     1       7.089   5.982  19.117  0.00  0.00    +0.000 A 
BRANCH  17  18
ATOM     18  O   UNL     1       7.185   5.106  20.166  0.00  0.00    +0.000 OA
ATOM     19  H   UNL     1       8.088   4.748  20.202  0.00  0.00    +0.000 HD
ENDBRANCH  17  18
ENDBRANCH  10  12
BRANCH  11  20
ATOM     20  C   UNL     1       5.437   3.622  16.492  0.00  0.00    +0.000 C 
BRANCH  20  21
ATOM     21  C   UNL     1       4.915   4.050  15.110  0.00  0.00    +0.000 C 
BRANCH  21  22
ATOM     22  C   UNL     1       5.769   4.063  13.872  0.00  0.00    +0.000 A 
ATOM     23  C   UNL     1       5.559   3.292  12.731  0.00  0.00    +0.000 A 
ATOM     24  C   UNL     1       6.444   3.403  11.649  0.00  0.00    +0.000 A 
ATOM     25  C   UNL     1       7.539   4.277  11.696  0.00  0.00    +0.000 A 
ATOM     26  C   UNL     1       7.755   5.040  12.841  0.00  0.00    +0.000 A 
ATOM     27 CL   UNL     1       9.097   6.110  12.933  0.00  0.00    +0.000 Cl
ATOM     28  C   UNL     1       6.881   4.934  13.913  0.00  0.00    +0.000 A 
ENDBRANCH  21  22
ENDBRANCH  20  21
ENDBRANCH  11  20
TORSDOF 5
ENDMDL
MODEL 4
REMARK VINA RESULT:      -8.1      3.516      5.474
REMARK  Name = 
REMARK  5 active torsions:
REMARK  status: ('A' for Active; 'I' for Inactive)
REMARK    1  A    between atoms: C_10  and  C_11
REMARK    2  A    between atoms: C_16  and  O_17
REMARK    3  A    between atoms: N_18  and  C_19
REMARK    4  A    between atoms: C_19  and  C_20
REMARK    5  A    between atoms: C_20  and  C_21
REMARK                            x       y       z     vdW  Elec       q    Type
REMARK                         _______ _______ _______ _____ _____    ______ ____
ROOT
ATOM      1  O   UNL     1       2.819   2.157  17.239  0.00  0.00    +0.000 OA
ATOM      2  C   UNL     1       3.315   3.011  17.968  0.00  0.00    +0.000 A 
ATOM      3  C   UNL     1       2.665   3.159  19.262  0.00  0.00    +0.000 A 
ATOM      4  C   UNL     1       1.730   2.209  19.702  0.00  0.00    +0.000 A 
ATOM      5  C   UNL     1       1.161   2.335  20.962  0.00  0.00    +0.000 A 
ATOM      6  C   UNL     1       1.524   3.416  21.763  0.00  0.00    +0.000 A 
ATOM      7  C   UNL     1       2.451   4.361  21.301  0.00  0.00    +0.000 A 
ATOM      8  C   UNL     1       3.036   4.235  20.040  0.00  0.00    +0.000 A 
ATOM      9  N   UNL     1       4.017   5.136  19.630  0.00  0.00    +0.000 NA
ATOM     10  C   UNL     1       4.725   4.902  18.564  0.00  0.00    +0.000 A 
ATOM     11  N   UNL     1       4.428   3.823  17.686  0.00  0.00    +0.000 N 
ENDROOT
BRANCH  10  12
ATOM     12  C   UNL     1       5.919   5.817  18.339  0.00  0.00    +0.000 A 
ATOM     13  C   UNL     1       7.156   5.622  18.967  0.00  0.00    +0.000 A 
ATOM     14  C   UNL     1       8.183   6.573  18.868  0.00  0.00    +0.000 A 
ATOM     15  C   UNL     1       8.034   7.679  18.041  0.00  0.00    +0.000 A 
ATOM     16  C   UNL     1       6.876   7.817  17.284  0.00  0.00    +0.000 A 
ATOM     17  C   UNL     1       5.827   6.901  17.439  0.00  0.00    +0.000 A 
BRANCH  17  18
ATOM     18  O   UNL     1       4.701   7.123  16.692  0.00  0.00    +0.000 OA
ATOM     19  H   UNL     1       4.173   7.823  17.111  0.00  0.00    +0.000 HD
ENDBRANCH  17  18
ENDBRANCH  10  12
BRANCH  11  20
ATOM     20  C   UNL     1       5.236   3.490  16.468  0.00  0.00    +0.000 C 
BRANCH  20  21
ATOM     21  C   UNL     1       4.911   4.265  15.179  0.00  0.00    +0.000 C 
BRANCH  21  22
ATOM     22  C   UNL     1       5.742   4.174  13.929  0.00  0.00    +0.000 A 
ATOM     23  C   UNL     1       5.491   3.338  12.844  0.00  0.00    +0.000 A 
ATOM     24  C   UNL     1       6.359   3.355  11.743  0.00  0.00    +0.000 A 
ATOM     25  C   UNL     1       7.477   4.200  11.715  0.00  0.00    +0.000 A 
ATOM     26  C   UNL     1       7.734   5.029  12.804  0.00  0.00    +0.000 A 
ATOM     27 CL   UNL     1       9.105   6.065  12.805  0.00  0.00    +0.000 Cl
ATOM     28  C   UNL     1       6.877   5.015  13.895  0.00  0.00    +0.000 A 
ENDBRANCH  21  22
ENDBRANCH  20  21
ENDBRANCH  11  20
TORSDOF 5
ENDMDL
MODEL 5
REMARK VINA RESULT:      -8.0      1.245      1.542
REMARK  Name = 
REMARK  5 active torsions:
REMARK  status: ('A' for Active; 'I' for Inactive)
REMARK    1  A    between atoms: C_10  and  C_11
REMARK    2  A    between atoms: C_16  and  O_17
REMARK    3  A    between atoms: N_18  and  C_19
REMARK    4  A    between atoms: C_19  and  C_20
REMARK    5  A    between atoms: C_20  and  C_21
REMARK                            x       y       z     vdW  Elec       q    Type
REMARK                         _______ _______ _______ _____ _____    ______ ____
ROOT
ATOM      1  O   UNL     1       1.950   9.519  17.635  0.00  0.00    +0.000 OA
ATOM      2  C   UNL     1       1.829   8.704  18.546  0.00  0.00    +0.000 A 
ATOM      3  C   UNL     1       1.127   9.202  19.719  0.00  0.00    +0.000 A 
ATOM      4  C   UNL     1       0.431  10.420  19.669  0.00  0.00    +0.000 A 
ATOM      5  C   UNL     1      -0.280  10.853  20.780  0.00  0.00    +0.000 A 
ATOM      6  C   UNL     1      -0.278  10.070  21.932  0.00  0.00    +0.000 A 
ATOM      7  C   UNL     1       0.432   8.862  21.967  0.00  0.00    +0.000 A 
ATOM      8  C   UNL     1       1.141   8.414  20.850  0.00  0.00    +0.000 A 
ATOM      9  N   UNL     1       1.772   7.172  20.873  0.00  0.00    +0.000 NA
ATOM     10  C   UNL     1       2.239   6.647  19.778  0.00  0.00    +0.000 A 
ATOM     11  N   UNL     1       2.278   7.371  18.555  0.00  0.00    +0.000 N 
ENDROOT
BRANCH  10  12
ATOM     12  C   UNL     1       2.691   5.198  19.870  0.00  0.00    +0.000 A 
ATOM     13  C   UNL     1       4.029   4.806  19.730  0.00  0.00    +0.000 A 
ATOM     14  C   UNL     1       4.390   3.453  19.656  0.00  0.00    +0.000 A 
ATOM     15  C   UNL     1       3.434   2.463  19.841  0.00  0.00    +0.000 A 
ATOM     16  C   UNL     1       2.124   2.823  20.138  0.00  0.00    +0.000 A 
ATOM     17  C   UNL     1       1.755   4.175  20.143  0.00  0.00    +0.000 A 
BRANCH  17  18
ATOM     18  O   UNL     1       0.440   4.454  20.402  0.00  0.00    +0.000 OA
ATOM     19  H   UNL     1      -0.107   4.127  19.668  0.00  0.00    +0.000 HD
ENDBRANCH  17  18
ENDBRANCH  10  12
BRANCH  11  20
ATOM     20  C   UNL     1       2.770   6.798  17.260  0.00  0.00    +0.000 C 
BRANCH  20  21
ATOM     21  C   UNL     1       4.191   7.189  16.817  0.00  0.00    +0.000 C 
BRANCH  21  22
ATOM     22  C   UNL     1       5.347   6.227  16.808  0.00  0.00    +0.000 A 
ATOM     23  C   UNL     1       5.620   5.291  15.813  0.00  0.00    +0.000 A 
ATOM     24  C   UNL     1       6.736   4.451  15.941  0.00  0.00    +0.000 A 
ATOM     25  C   UNL     1       7.582   4.536  17.055  0.00  0.00    +0.000 A 
ATOM     26  C   UNL     1       7.304   5.464  18.056  0.00  0.00    +0.000 A 
ATOM     27 CL   UNL     1       8.315   5.583  19.439  0.00  0.00    +0.000 Cl
ATOM     28  C   UNL     1       6.201   6.298  17.932  0.00  0.00    +0.000 A 
ENDBRANCH  21  22
ENDBRANCH  20  21
ENDBRANCH  11  20
TORSDOF 5
ENDMDL
MODEL 6
REMARK VINA RESULT:      -8.0      2.966      6.858
REMARK  Name = 
REMARK  5 active torsions:
REMARK  status: ('A' for Active; 'I' for Inactive)
REMARK    1  A    between atoms: C_10  and  C_11
REMARK    2  A    between atoms: C_16  and  O_17
REMARK    3  A    between atoms: N_18  and  C_19
REMARK    4  A    between atoms: C_19  and  C_20
REMARK    5  A    between atoms: C_20  and  C_21
REMARK                            x       y       z     vdW  Elec       q    Type
REMARK                         _______ _______ _______ _____ _____    ______ ____
ROOT
ATOM      1  O   UNL     1       4.694   7.576  16.775  0.00  0.00    +0.000 OA
ATOM      2  C   UNL     1       4.525   6.387  17.035  0.00  0.00    +0.000 A 
ATOM      3  C   UNL     1       5.177   5.466  16.116  0.00  0.00    +0.000 A 
ATOM      4  C   UNL     1       6.124   5.932  15.191  0.00  0.00    +0.000 A 
ATOM      5  C   UNL     1       6.778   5.032  14.361  0.00  0.00    +0.000 A 
ATOM      6  C   UNL     1       6.469   3.677  14.456  0.00  0.00    +0.000 A 
ATOM      7  C   UNL     1       5.512   3.231  15.379  0.00  0.00    +0.000 A 
ATOM      8  C   UNL     1       4.859   4.129  16.225  0.00  0.00    +0.000 A 
ATOM      9  N   UNL     1       3.972   3.660  17.193  0.00  0.00    +0.000 NA
ATOM     10  C   UNL     1       3.533   4.453  18.127  0.00  0.00    +0.000 A 
ATOM     11  N   UNL     1       3.798   5.851  18.112  0.00  0.00    +0.000 N 
ENDROOT
BRANCH  10  12
ATOM     12  C   UNL     1       2.768   3.791  19.262  0.00  0.00    +0.000 A 
ATOM     13  C   UNL     1       1.383   3.925  19.426  0.00  0.00    +0.000 A 
ATOM     14  C   UNL     1       0.733   3.440  20.570  0.00  0.00    +0.000 A 
ATOM     15  C   UNL     1       1.437   2.706  21.516  0.00  0.00    +0.000 A 
ATOM     16  C   UNL     1       2.781   2.424  21.301  0.00  0.00    +0.000 A 
ATOM     17  C   UNL     1       3.441   2.967  20.191  0.00  0.00    +0.000 A 
BRANCH  17  18
ATOM     18  O   UNL     1       4.774   2.681  20.065  0.00  0.00    +0.000 OA
ATOM     19  H   UNL     1       4.946   1.795  20.425  0.00  0.00    +0.000 HD
ENDBRANCH  17  18
ENDBRANCH  10  12
BRANCH  11  20
ATOM     20  C   UNL     1       3.347   6.797  19.183  0.00  0.00    +0.000 C 
BRANCH  20  21
ATOM     21  C   UNL     1       2.208   7.768  18.825  0.00  0.00    +0.000 C 
BRANCH  21  22
ATOM     22  C   UNL     1       1.399   8.508  19.856  0.00  0.00    +0.000 A 
ATOM     23  C   UNL     1       1.216   8.118  21.180  0.00  0.00    +0.000 A 
ATOM     24  C   UNL     1       0.427   8.906  22.030  0.00  0.00    +0.000 A 
ATOM     25  C   UNL     1      -0.183  10.081  21.569  0.00  0.00    +0.000 A 
ATOM     26  C   UNL     1      -0.009  10.465  20.242  0.00  0.00    +0.000 A 
ATOM     27 CL   UNL     1      -0.755  11.893  19.644  0.00  0.00    +0.000 Cl
ATOM     28  C   UNL     1       0.772   9.688  19.398  0.00  0.00    +0.000 A 
ENDBRANCH  21  22
ENDBRANCH  20  21
ENDBRANCH  11  20
TORSDOF 5
ENDMDL
MODEL 7
REMARK VINA RESULT:      -7.9      1.656      1.909
REMARK  Name = 
REMARK  5 active torsions:
REMARK  status: ('A' for Active; 'I' for Inactive)
REMARK    1  A    between atoms: C_10  and  C_11
REMARK    2  A    between atoms: C_16  and  O_17
REMARK    3  A    between atoms: N_18  and  C_19
REMARK    4  A    between atoms: C_19  and  C_20
REMARK    5  A    between atoms: C_20  and  C_21
REMARK                            x       y       z     vdW  Elec       q    Type
REMARK                         _______ _______ _______ _____ _____    ______ ____
ROOT
ATOM      1  O   UNL     1       2.326   9.843  17.630  0.00  0.00    +0.000 OA
ATOM      2  C   UNL     1       2.152   8.848  18.330  0.00  0.00    +0.000 A 
ATOM      3  C   UNL     1       1.351   9.077  19.523  0.00  0.00    +0.000 A 
ATOM      4  C   UNL     1       0.636  10.274  19.683  0.00  0.00    +0.000 A 
ATOM      5  C   UNL     1      -0.167  10.452  20.801  0.00  0.00    +0.000 A 
ATOM      6  C   UNL     1      -0.238   9.437  21.753  0.00  0.00    +0.000 A 
ATOM      7  C   UNL     1       0.492   8.252  21.581  0.00  0.00    +0.000 A 
ATOM      8  C   UNL     1       1.294   8.061  20.454  0.00  0.00    +0.000 A 
ATOM      9  N   UNL     1       1.947   6.845  20.257  0.00  0.00    +0.000 NA
ATOM     10  C   UNL     1       2.508   6.573  19.115  0.00  0.00    +0.000 A 
ATOM     11  N   UNL     1       2.626   7.547  18.085  0.00  0.00    +0.000 N 
ENDROOT
BRANCH  10  12
ATOM     12  C   UNL     1       2.981   5.140  18.926  0.00  0.00    +0.000 A 
ATOM     13  C   UNL     1       4.089   4.609  19.599  0.00  0.00    +0.000 A 
ATOM     14  C   UNL     1       4.597   3.341  19.281  0.00  0.00    +0.000 A 
ATOM     15  C   UNL     1       3.934   2.531  18.369  0.00  0.00    +0.000 A 
ATOM     16  C   UNL     1       2.743   2.971  17.802  0.00  0.00    +0.000 A 
ATOM     17  C   UNL     1       2.277   4.264  18.071  0.00  0.00    +0.000 A 
BRANCH  17  18
ATOM     18  O   UNL     1       1.120   4.645  17.445  0.00  0.00    +0.000 OA
ATOM     19  H   UNL     1       0.605   3.853  17.216  0.00  0.00    +0.000 HD
ENDBRANCH  17  18
ENDBRANCH  10  12
BRANCH  11  20
ATOM     20  C   UNL     1       3.228   7.272  16.741  0.00  0.00    +0.000 C 
BRANCH  20  21
ATOM     21  C   UNL     1       4.748   7.469  16.600  0.00  0.00    +0.000 C 
BRANCH  21  22
ATOM     22  C   UNL     1       5.747   6.365  16.809  0.00  0.00    +0.000 A 
ATOM     23  C   UNL     1       5.955   5.283  15.957  0.00  0.00    +0.000 A 
ATOM     24  C   UNL     1       6.922   4.321  16.283  0.00  0.00    +0.000 A 
ATOM     25  C   UNL     1       7.683   4.429  17.456  0.00  0.00    +0.000 A 
ATOM     26  C   UNL     1       7.468   5.504  18.314  0.00  0.00    +0.000 A 
ATOM     27 CL   UNL     1       8.376   5.654  19.765  0.00  0.00    +0.000 Cl
ATOM     28  C   UNL     1       6.513   6.458  17.994  0.00  0.00    +0.000 A 
ENDBRANCH  21  22
ENDBRANCH  20  21
ENDBRANCH  11  20
TORSDOF 5
ENDMDL
MODEL 8
REMARK VINA RESULT:      -7.9      3.178      6.912
REMARK  Name = 
REMARK  5 active torsions:
REMARK  status: ('A' for Active; 'I' for Inactive)
REMARK    1  A    between atoms: C_10  and  C_11
REMARK    2  A    between atoms: C_16  and  O_17
REMARK    3  A    between atoms: N_18  and  C_19
REMARK    4  A    between atoms: C_19  and  C_20
REMARK    5  A    between atoms: C_20  and  C_21
REMARK                            x       y       z     vdW  Elec       q    Type
REMARK                         _______ _______ _______ _____ _____    ______ ____
ROOT
ATOM      1  O   UNL     1       6.447   7.045  16.754  0.00  0.00    +0.000 OA
ATOM      2  C   UNL     1       5.849   5.985  16.592  0.00  0.00    +0.000 A 
ATOM      3  C   UNL     1       6.143   5.305  15.339  0.00  0.00    +0.000 A 
ATOM      4  C   UNL     1       7.219   5.720  14.539  0.00  0.00    +0.000 A 
ATOM      5  C   UNL     1       7.521   5.025  13.376  0.00  0.00    +0.000 A 
ATOM      6  C   UNL     1       6.736   3.931  13.019  0.00  0.00    +0.000 A 
ATOM      7  C   UNL     1       5.658   3.538  13.825  0.00  0.00    +0.000 A 
ATOM      8  C   UNL     1       5.356   4.225  15.002  0.00  0.00    +0.000 A 
ATOM      9  N   UNL     1       4.334   3.771  15.835  0.00  0.00    +0.000 NA
ATOM     10  C   UNL     1       4.190   4.260  17.031  0.00  0.00    +0.000 A 
ATOM     11  N   UNL     1       4.947   5.376  17.483  0.00  0.00    +0.000 N 
ENDROOT
BRANCH  10  12
ATOM     12  C   UNL     1       3.206   3.535  17.936  0.00  0.00    +0.000 A 
ATOM     13  C   UNL     1       1.817   3.614  17.768  0.00  0.00    +0.000 A 
ATOM     14  C   UNL     1       0.936   3.071  18.714  0.00  0.00    +0.000 A 
ATOM     15  C   UNL     1       1.425   2.334  19.785  0.00  0.00    +0.000 A 
ATOM     16  C   UNL     1       2.793   2.107  19.890  0.00  0.00    +0.000 A 
ATOM     17  C   UNL     1       3.673   2.709  18.982  0.00  0.00    +0.000 A 
BRANCH  17  18
ATOM     18  O   UNL     1       5.009   2.475  19.171  0.00  0.00    +0.000 OA
ATOM     19  H   UNL     1       5.517   3.233  18.837  0.00  0.00    +0.000 HD
ENDBRANCH  17  18
ENDBRANCH  10  12
BRANCH  11  20
ATOM     20  C   UNL     1       4.845   5.951  18.864  0.00  0.00    +0.000 C 
BRANCH  20  21
ATOM     21  C   UNL     1       3.431   6.182  19.423  0.00  0.00    +0.000 C 
BRANCH  21  22
ATOM     22  C   UNL     1       2.613   7.408  19.121  0.00  0.00    +0.000 A 
ATOM     23  C   UNL     1       2.596   8.097  17.910  0.00  0.00    +0.000 A 
ATOM     24  C   UNL     1       1.785   9.233  17.773  0.00  0.00    +0.000 A 
ATOM     25  C   UNL     1       0.992   9.689  18.834  0.00  0.00    +0.000 A 
ATOM     26  C   UNL     1       1.016   9.007  20.048  0.00  0.00    +0.000 A 
ATOM     27 CL   UNL     1       0.064   9.550  21.371  0.00  0.00    +0.000 Cl
ATOM     28  C   UNL     1       1.816   7.881  20.188  0.00  0.00    +0.000 A 
ENDBRANCH  21  22
ENDBRANCH  20  21
ENDBRANCH  11  20
TORSDOF 5
ENDMDL
MODEL 9
REMARK VINA RESULT:      -7.9      3.040      6.859
REMARK  Name = 
REMARK  5 active torsions:
REMARK  status: ('A' for Active; 'I' for Inactive)
REMARK    1  A    between atoms: C_10  and  C_11
REMARK    2  A    between atoms: C_16  and  O_17
REMARK    3  A    between atoms: N_18  and  C_19
REMARK    4  A    between atoms: C_19  and  C_20
REMARK    5  A    between atoms: C_20  and  C_21
REMARK                            x       y       z     vdW  Elec       q    Type
REMARK                         _______ _______ _______ _____ _____    ______ ____
ROOT
ATOM      1  O   UNL     1       4.478   7.603  16.778  0.00  0.00    +0.000 OA
ATOM      2  C   UNL     1       4.382   6.411  17.056  0.00  0.00    +0.000 A 
ATOM      3  C   UNL     1       5.096   5.517  16.156  0.00  0.00    +0.000 A 
ATOM      4  C   UNL     1       6.018   6.027  15.229  0.00  0.00    +0.000 A 
ATOM      5  C   UNL     1       6.731   5.156  14.417  0.00  0.00    +0.000 A 
ATOM      6  C   UNL     1       6.506   3.786  14.532  0.00  0.00    +0.000 A 
ATOM      7  C   UNL     1       5.573   3.296  15.457  0.00  0.00    +0.000 A 
ATOM      8  C   UNL     1       4.860   4.165  16.285  0.00  0.00    +0.000 A 
ATOM      9  N   UNL     1       3.997   3.658  17.256  0.00  0.00    +0.000 NA
ATOM     10  C   UNL     1       3.505   4.436  18.174  0.00  0.00    +0.000 A 
ATOM     11  N   UNL     1       3.682   5.847  18.138  0.00  0.00    +0.000 N 
ENDROOT
BRANCH  10  12
ATOM     12  C   UNL     1       2.774   3.746  19.315  0.00  0.00    +0.000 A 
ATOM     13  C   UNL     1       1.386   3.824  19.489  0.00  0.00    +0.000 A 
ATOM     14  C   UNL     1       0.764   3.316  20.639  0.00  0.00    +0.000 A 
ATOM     15  C   UNL     1       1.504   2.612  21.581  0.00  0.00    +0.000 A 
ATOM     16  C   UNL     1       2.857   2.384  21.357  0.00  0.00    +0.000 A 
ATOM     17  C   UNL     1       3.486   2.952  20.241  0.00  0.00    +0.000 A 
BRANCH  17  18
ATOM     18  O   UNL     1       4.829   2.720  20.107  0.00  0.00    +0.000 OA
ATOM     19  H   UNL     1       5.056   2.695  19.162  0.00  0.00    +0.000 HD
ENDBRANCH  17  18
ENDBRANCH  10  12
BRANCH  11  20
ATOM     20  C   UNL     1       3.167   6.781  19.191  0.00  0.00    +0.000 C 
BRANCH  20  21
ATOM     21  C   UNL     1       1.817   7.467  18.918  0.00  0.00    +0.000 C 
BRANCH  21  22
ATOM     22  C   UNL     1       1.376   8.727  19.611  0.00  0.00    +0.000 A 
ATOM     23  C   UNL     1       1.318   9.994  19.036  0.00  0.00    +0.000 A 
ATOM     24  C   UNL     1       0.891  11.085  19.808  0.00  0.00    +0.000 A 
ATOM     25  C   UNL     1       0.523  10.922  21.150  0.00  0.00    +0.000 A 
ATOM     26  C   UNL     1       0.591   9.657  21.729  0.00  0.00    +0.000 A 
ATOM     27 CL   UNL     1       0.159   9.429  23.376  0.00  0.00    +0.000 Cl
ATOM     28  C   UNL     1       1.012   8.575  20.968  0.00  0.00    +0.000 A 
ENDBRANCH  21  22
ENDBRANCH  20  21
ENDBRANCH  11  20
TORSDOF 5
ENDMDL
