MODEL 1
REMARK VINA RESULT:      -8.2      0.000      0.000
REMARK  Name = 
REMARK  5 active torsions:
REMARK  status: ('A' for Active; 'I' for Inactive)
REMARK    1  A    between atoms: C_1  and  O_2
REMARK    2  A    between atoms: O_2  and  C_3
REMARK    3  A    between atoms: C_6  and  C_7
REMARK    4  A    between atoms: C_8  and  C_9
REMARK    5  A    between atoms: C_15  and  C_16
REMARK                            x       y       z     vdW  Elec       q    Type
REMARK                         _______ _______ _______ _____ _____    ______ ____
ROOT
ATOM      1  C   UNL     1       7.104   6.547  17.776  0.00  0.00    +0.000 C 
ATOM      2  O   UNL     1       6.713   6.079  18.837  0.00  0.00    +0.000 OA
ATOM      3  N   UNL     1       6.853   5.888  16.569  0.00  0.00    +0.000 N 
ATOM      4  N   UNL     1       7.650   6.093  15.487  0.00  0.00    +0.000 NA
ATOM      5  N   UNL     1       7.266   5.211  14.583  0.00  0.00    +0.000 NA
ATOM      6  N   UNL     1       6.189   4.496  15.023  0.00  0.00    +0.000 NA
ATOM      7  C   UNL     1       5.885   4.954  16.229  0.00  0.00    +0.000 A 
ENDROOT
BRANCH   7   8
ATOM      8  C   UNL     1       4.677   4.601  16.977  0.00  0.00    +0.000 A 
ATOM      9  C   UNL     1       4.407   3.252  17.256  0.00  0.00    +0.000 A 
ATOM     10  C   UNL     1       3.240   2.877  17.928  0.00  0.00    +0.000 A 
ATOM     11  C   UNL     1       2.323   3.845  18.328  0.00  0.00    +0.000 A 
ATOM     12  C   UNL     1       2.562   5.186  18.042  0.00  0.00    +0.000 A 
ATOM     13  C   UNL     1       3.722   5.557  17.356  0.00  0.00    +0.000 A 
ENDBRANCH   7   8
BRANCH   1  15
ATOM     14  C   UNL     1       8.334   8.446  18.712  0.00  0.00    +0.000 C 
ATOM     15  C   UNL     1       7.772   7.866  17.639  0.00  0.00    +0.000 C 
BRANCH  14  19
ATOM     16  C   UNL     1       9.867  12.453  18.751  0.00  0.00    +0.000 A 
ATOM     17  C   UNL     1      10.221  11.539  19.743  0.00  0.00    +0.000 A 
ATOM     18  C   UNL     1       9.736  10.227  19.708  0.00  0.00    +0.000 A 
ATOM     19  C   UNL     1       8.868   9.818  18.689  0.00  0.00    +0.000 A 
ATOM     20  C   UNL     1       8.532  10.738  17.688  0.00  0.00    +0.000 A 
ATOM     21  C   UNL     1       9.017  12.049  17.724  0.00  0.00    +0.000 A 
BRANCH  16  23
ATOM     22  C   UNL     1       9.431  14.772  18.897  0.00  0.00    +0.000 C 
ATOM     23  O   UNL     1      10.380  13.712  18.902  0.00  0.00    +0.000 OA
ENDBRANCH  16  23
ENDBRANCH  14  19
ENDBRANCH   1  15
TORSDOF 4
ENDMDL
MODEL 2
REMARK VINA RESULT:      -8.1      0.598      1.172
REMARK  Name = 
REMARK  5 active torsions:
REMARK  status: ('A' for Active; 'I' for Inactive)
REMARK    1  A    between atoms: C_1  and  O_2
REMARK    2  A    between atoms: O_2  and  C_3
REMARK    3  A    between atoms: C_6  and  C_7
REMARK    4  A    between atoms: C_8  and  C_9
REMARK    5  A    between atoms: C_15  and  C_16
REMARK                            x       y       z     vdW  Elec       q    Type
REMARK                         _______ _______ _______ _____ _____    ______ ____
ROOT
ATOM      1  C   UNL     1       7.138   6.495  17.746  0.00  0.00    +0.000 C 
ATOM      2  O   UNL     1       6.750   6.057  18.820  0.00  0.00    +0.000 OA
ATOM      3  N   UNL     1       6.844   5.827  16.554  0.00  0.00    +0.000 N 
ATOM      4  N   UNL     1       7.629   5.989  15.455  0.00  0.00    +0.000 NA
ATOM      5  N   UNL     1       7.200   5.107  14.572  0.00  0.00    +0.000 NA
ATOM      6  N   UNL     1       6.106   4.436  15.041  0.00  0.00    +0.000 NA
ATOM      7  C   UNL     1       5.839   4.921  16.245  0.00  0.00    +0.000 A 
ENDROOT
BRANCH   7   8
ATOM      8  C   UNL     1       4.633   4.621  17.018  0.00  0.00    +0.000 A 
ATOM      9  C   UNL     1       4.329   3.287  17.333  0.00  0.00    +0.000 A 
ATOM     10  C   UNL     1       3.162   2.963  18.031  0.00  0.00    +0.000 A 
ATOM     11  C   UNL     1       2.279   3.966  18.421  0.00  0.00    +0.000 A 
ATOM     12  C   UNL     1       2.552   5.291  18.099  0.00  0.00    +0.000 A 
ATOM     13  C   UNL     1       3.711   5.613  17.388  0.00  0.00    +0.000 A 
ENDBRANCH   7   8
BRANCH   1  15
ATOM     14  C   UNL     1       8.243   8.481  18.658  0.00  0.00    +0.000 C 
ATOM     15  C   UNL     1       7.848   7.788  17.578  0.00  0.00    +0.000 C 
BRANCH  14  19
ATOM     16  C   UNL     1       9.868  12.436  18.306  0.00  0.00    +0.000 A 
ATOM     17  C   UNL     1       8.735  12.058  17.585  0.00  0.00    +0.000 A 
ATOM     18  C   UNL     1       8.197  10.774  17.727  0.00  0.00    +0.000 A 
ATOM     19  C   UNL     1       8.803   9.840  18.574  0.00  0.00    +0.000 A 
ATOM     20  C   UNL     1       9.930  10.234  19.306  0.00  0.00    +0.000 A 
ATOM     21  C   UNL     1      10.467  11.517  19.164  0.00  0.00    +0.000 A 
BRANCH  16  23
ATOM     22  C   UNL     1      11.674  13.813  17.651  0.00  0.00    +0.000 C 
ATOM     23  O   UNL     1      10.318  13.706  18.069  0.00  0.00    +0.000 OA
ENDBRANCH  16  23
ENDBRANCH  14  19
ENDBRANCH   1  15
TORSDOF 4
ENDMDL
MODEL 3
REMARK VINA RESULT:      -8.1      0.795      1.563
REMARK  Name = 
REMARK  5 active torsions:
REMARK  status: ('A' for Active; 'I' for Inactive)
REMARK    1  A    between atoms: C_1  and  O_2
REMARK    2  A    between atoms: O_2  and  C_3
REMARK    3  A    between atoms: C_6  and  C_7
REMARK    4  A    between atoms: C_8  and  C_9
REMARK    5  A    between atoms: C_15  and  C_16
REMARK                            x       y       z     vdW  Elec       q    Type
REMARK                         _______ _______ _______ _____ _____    ______ ____
ROOT
ATOM      1  C   UNL     1       7.242   6.519  18.007  0.00  0.00    +0.000 C 
ATOM      2  O   UNL     1       6.971   6.064  19.110  0.00  0.00    +0.000 OA
ATOM      3  N   UNL     1       6.929   5.809  16.845  0.00  0.00    +0.000 N 
ATOM      4  N   UNL     1       7.617   6.025  15.692  0.00  0.00    +0.000 NA
ATOM      5  N   UNL     1       7.211   5.094  14.849  0.00  0.00    +0.000 NA
ATOM      6  N   UNL     1       6.220   4.333  15.399  0.00  0.00    +0.000 NA
ATOM      7  C   UNL     1       5.993   4.811  16.614  0.00  0.00    +0.000 A 
ENDROOT
BRANCH   7   8
ATOM      8  C   UNL     1       4.876   4.413  17.473  0.00  0.00    +0.000 A 
ATOM      9  C   UNL     1       3.663   5.117  17.399  0.00  0.00    +0.000 A 
ATOM     10  C   UNL     1       2.593   4.792  18.238  0.00  0.00    +0.000 A 
ATOM     11  C   UNL     1       2.720   3.762  19.165  0.00  0.00    +0.000 A 
ATOM     12  C   UNL     1       3.920   3.067  19.268  0.00  0.00    +0.000 A 
ATOM     13  C   UNL     1       4.995   3.403  18.441  0.00  0.00    +0.000 A 
ENDBRANCH   7   8
BRANCH   1  15
ATOM     14  C   UNL     1       8.464   8.499  18.772  0.00  0.00    +0.000 C 
ATOM     15  C   UNL     1       7.816   7.869  17.778  0.00  0.00    +0.000 C 
BRANCH  14  19
ATOM     16  C   UNL     1       9.781  12.561  18.369  0.00  0.00    +0.000 A 
ATOM     17  C   UNL     1       8.753  12.058  17.573  0.00  0.00    +0.000 A 
ATOM     18  C   UNL     1       8.313  10.739  17.730  0.00  0.00    +0.000 A 
ATOM     19  C   UNL     1       8.915   9.896  18.671  0.00  0.00    +0.000 A 
ATOM     20  C   UNL     1       9.935  10.416  19.477  0.00  0.00    +0.000 A 
ATOM     21  C   UNL     1      10.374  11.734  19.320  0.00  0.00    +0.000 A 
BRANCH  16  23
ATOM     22  C   UNL     1      11.114  14.032  17.084  0.00  0.00    +0.000 C 
ATOM     23  O   UNL     1      10.145  13.854  18.111  0.00  0.00    +0.000 OA
ENDBRANCH  16  23
ENDBRANCH  14  19
ENDBRANCH   1  15
TORSDOF 4
ENDMDL
MODEL 4
REMARK VINA RESULT:      -8.1      0.833      1.245
REMARK  Name = 
REMARK  5 active torsions:
REMARK  status: ('A' for Active; 'I' for Inactive)
REMARK    1  A    between atoms: C_1  and  O_2
REMARK    2  A    between atoms: O_2  and  C_3
REMARK    3  A    between atoms: C_6  and  C_7
REMARK    4  A    between atoms: C_8  and  C_9
REMARK    5  A    between atoms: C_15  and  C_16
REMARK                            x       y       z     vdW  Elec       q    Type
REMARK                         _______ _______ _______ _____ _____    ______ ____
ROOT
ATOM      1  C   UNL     1       7.241   6.596  17.899  0.00  0.00    +0.000 C 
ATOM      2  O   UNL     1       6.967   6.199  19.023  0.00  0.00    +0.000 OA
ATOM      3  N   UNL     1       6.926   5.830  16.774  0.00  0.00    +0.000 N 
ATOM      4  N   UNL     1       7.617   5.984  15.613  0.00  0.00    +0.000 NA
ATOM      5  N   UNL     1       7.208   5.013  14.818  0.00  0.00    +0.000 NA
ATOM      6  N   UNL     1       6.213   4.285  15.405  0.00  0.00    +0.000 NA
ATOM      7  C   UNL     1       5.987   4.824  16.594  0.00  0.00    +0.000 A 
ENDROOT
BRANCH   7   8
ATOM      8  C   UNL     1       4.867   4.476  17.471  0.00  0.00    +0.000 A 
ATOM      9  C   UNL     1       3.696   5.249  17.437  0.00  0.00    +0.000 A 
ATOM     10  C   UNL     1       2.628   4.971  18.294  0.00  0.00    +0.000 A 
ATOM     11  C   UNL     1       2.714   3.918  19.200  0.00  0.00    +0.000 A 
ATOM     12  C   UNL     1       3.875   3.153  19.264  0.00  0.00    +0.000 A 
ATOM     13  C   UNL     1       4.948   3.442  18.418  0.00  0.00    +0.000 A 
ENDBRANCH   7   8
BRANCH   1  15
ATOM     14  C   UNL     1       8.394   8.646  18.584  0.00  0.00    +0.000 C 
ATOM     15  C   UNL     1       7.821   7.931  17.602  0.00  0.00    +0.000 C 
BRANCH  14  19
ATOM     16  C   UNL     1       9.721  12.703  18.160  0.00  0.00    +0.000 A 
ATOM     17  C   UNL     1      10.461  11.779  18.896  0.00  0.00    +0.000 A 
ATOM     18  C   UNL     1      10.033  10.452  19.008  0.00  0.00    +0.000 A 
ATOM     19  C   UNL     1       8.842  10.036  18.402  0.00  0.00    +0.000 A 
ATOM     20  C   UNL     1       8.115  10.967  17.650  0.00  0.00    +0.000 A 
ATOM     21  C   UNL     1       8.543  12.293  17.539  0.00  0.00    +0.000 A 
BRANCH  16  23
ATOM     22  C   UNL     1      11.455  14.145  17.451  0.00  0.00    +0.000 C 
ATOM     23  O   UNL     1      10.221  13.976  18.141  0.00  0.00    +0.000 OA
ENDBRANCH  16  23
ENDBRANCH  14  19
ENDBRANCH   1  15
TORSDOF 4
ENDMDL
MODEL 5
REMARK VINA RESULT:      -7.9      5.242      7.242
REMARK  Name = 
REMARK  5 active torsions:
REMARK  status: ('A' for Active; 'I' for Inactive)
REMARK    1  A    between atoms: C_1  and  O_2
REMARK    2  A    between atoms: O_2  and  C_3
REMARK    3  A    between atoms: C_6  and  C_7
REMARK    4  A    between atoms: C_8  and  C_9
REMARK    5  A    between atoms: C_15  and  C_16
REMARK                            x       y       z     vdW  Elec       q    Type
REMARK                         _______ _______ _______ _____ _____    ______ ____
ROOT
ATOM      1  C   UNL     1       2.955   6.758  18.130  0.00  0.00    +0.000 C 
ATOM      2  O   UNL     1       3.796   7.344  17.463  0.00  0.00    +0.000 OA
ATOM      3  N   UNL     1       2.689   5.403  17.912  0.00  0.00    +0.000 N 
ATOM      4  N   UNL     1       1.488   4.867  18.258  0.00  0.00    +0.000 NA
ATOM      5  N   UNL     1       1.486   3.641  17.769  0.00  0.00    +0.000 NA
ATOM      6  N   UNL     1       2.685   3.342  17.188  0.00  0.00    +0.000 NA
ATOM      7  C   UNL     1       3.460   4.408  17.328  0.00  0.00    +0.000 A 
ENDROOT
BRANCH   7   8
ATOM      8  C   UNL     1       4.891   4.447  17.022  0.00  0.00    +0.000 A 
ATOM      9  C   UNL     1       5.819   4.551  18.070  0.00  0.00    +0.000 A 
ATOM     10  C   UNL     1       7.189   4.636  17.810  0.00  0.00    +0.000 A 
ATOM     11  C   UNL     1       7.653   4.622  16.497  0.00  0.00    +0.000 A 
ATOM     12  C   UNL     1       6.748   4.541  15.444  0.00  0.00    +0.000 A 
ATOM     13  C   UNL     1       5.377   4.472  15.706  0.00  0.00    +0.000 A 
ENDBRANCH   7   8
BRANCH   1  15
ATOM     14  C   UNL     1       1.546   8.510  19.101  0.00  0.00    +0.000 C 
ATOM     15  C   UNL     1       2.222   7.362  19.271  0.00  0.00    +0.000 C 
BRANCH  14  19
ATOM     16  C   UNL     1      -0.316  10.593  22.356  0.00  0.00    +0.000 A 
ATOM     17  C   UNL     1      -0.184   9.205  22.374  0.00  0.00    +0.000 A 
ATOM     18  C   UNL     1       0.447   8.537  21.319  0.00  0.00    +0.000 A 
ATOM     19  C   UNL     1       0.935   9.249  20.217  0.00  0.00    +0.000 A 
ATOM     20  C   UNL     1       0.813  10.644  20.216  0.00  0.00    +0.000 A 
ATOM     21  C   UNL     1       0.182  11.311  21.271  0.00  0.00    +0.000 A 
BRANCH  16  23
ATOM     22  C   UNL     1      -2.155  11.866  23.123  0.00  0.00    +0.000 C 
ATOM     23  O   UNL     1      -0.972  11.134  23.427  0.00  0.00    +0.000 OA
ENDBRANCH  16  23
ENDBRANCH  14  19
ENDBRANCH   1  15
TORSDOF 4
ENDMDL
MODEL 6
REMARK VINA RESULT:      -7.9      2.168      3.177
REMARK  Name = 
REMARK  5 active torsions:
REMARK  status: ('A' for Active; 'I' for Inactive)
REMARK    1  A    between atoms: C_1  and  O_2
REMARK    2  A    between atoms: O_2  and  C_3
REMARK    3  A    between atoms: C_6  and  C_7
REMARK    4  A    between atoms: C_8  and  C_9
REMARK    5  A    between atoms: C_15  and  C_16
REMARK                            x       y       z     vdW  Elec       q    Type
REMARK                         _______ _______ _______ _____ _____    ______ ____
ROOT
ATOM      1  C   UNL     1       7.438   7.854  17.556  0.00  0.00    +0.000 C 
ATOM      2  O   UNL     1       6.536   8.082  16.762  0.00  0.00    +0.000 OA
ATOM      3  N   UNL     1       7.598   6.580  18.108  0.00  0.00    +0.000 N 
ATOM      4  N   UNL     1       8.231   6.414  19.300  0.00  0.00    +0.000 NA
ATOM      5  N   UNL     1       8.063   5.146  19.625  0.00  0.00    +0.000 NA
ATOM      6  N   UNL     1       7.408   4.469  18.636  0.00  0.00    +0.000 NA
ATOM      7  C   UNL     1       7.173   5.337  17.663  0.00  0.00    +0.000 A 
ENDROOT
BRANCH   7   8
ATOM      8  C   UNL     1       6.668   4.985  16.334  0.00  0.00    +0.000 A 
ATOM      9  C   UNL     1       5.355   4.507  16.199  0.00  0.00    +0.000 A 
ATOM     10  C   UNL     1       4.857   4.120  14.952  0.00  0.00    +0.000 A 
ATOM     11  C   UNL     1       5.665   4.201  13.821  0.00  0.00    +0.000 A 
ATOM     12  C   UNL     1       6.976   4.652  13.938  0.00  0.00    +0.000 A 
ATOM     13  C   UNL     1       7.477   5.024  15.188  0.00  0.00    +0.000 A 
ENDBRANCH   7   8
BRANCH   1  15
ATOM     14  C   UNL     1       8.165  10.123  18.122  0.00  0.00    +0.000 C 
ATOM     15  C   UNL     1       8.489   8.833  17.932  0.00  0.00    +0.000 C 
BRANCH  14  19
ATOM     16  C   UNL     1      11.104  13.206  18.637  0.00  0.00    +0.000 A 
ATOM     17  C   UNL     1      10.011  13.390  17.792  0.00  0.00    +0.000 A 
ATOM     18  C   UNL     1       9.044  12.389  17.650  0.00  0.00    +0.000 A 
ATOM     19  C   UNL     1       9.172  11.175  18.335  0.00  0.00    +0.000 A 
ATOM     20  C   UNL     1      10.265  11.006  19.195  0.00  0.00    +0.000 A 
ATOM     21  C   UNL     1      11.231  12.007  19.336  0.00  0.00    +0.000 A 
BRANCH  16  23
ATOM     22  C   UNL     1      12.127  14.993  17.476  0.00  0.00    +0.000 C 
ATOM     23  O   UNL     1      11.997  14.241  18.677  0.00  0.00    +0.000 OA
ENDBRANCH  16  23
ENDBRANCH  14  19
ENDBRANCH   1  15
TORSDOF 4
ENDMDL
MODEL 7
REMARK VINA RESULT:      -7.9      5.264      7.318
REMARK  Name = 
REMARK  5 active torsions:
REMARK  status: ('A' for Active; 'I' for Inactive)
REMARK    1  A    between atoms: C_1  and  O_2
REMARK    2  A    between atoms: O_2  and  C_3
REMARK    3  A    between atoms: C_6  and  C_7
REMARK    4  A    between atoms: C_8  and  C_9
REMARK    5  A    between atoms: C_15  and  C_16
REMARK                            x       y       z     vdW  Elec       q    Type
REMARK                         _______ _______ _______ _____ _____    ______ ____
ROOT
ATOM      1  C   UNL     1       2.906   6.783  18.185  0.00  0.00    +0.000 C 
ATOM      2  O   UNL     1       3.747   7.406  17.551  0.00  0.00    +0.000 OA
ATOM      3  N   UNL     1       2.680   5.427  17.932  0.00  0.00    +0.000 N 
ATOM      4  N   UNL     1       1.487   4.853  18.238  0.00  0.00    +0.000 NA
ATOM      5  N   UNL     1       1.527   3.639  17.723  0.00  0.00    +0.000 NA
ATOM      6  N   UNL     1       2.746   3.384  17.162  0.00  0.00    +0.000 NA
ATOM      7  C   UNL     1       3.490   4.466  17.344  0.00  0.00    +0.000 A 
ENDROOT
BRANCH   7   8
ATOM      8  C   UNL     1       4.926   4.548  17.071  0.00  0.00    +0.000 A 
ATOM      9  C   UNL     1       5.383   4.480  15.746  0.00  0.00    +0.000 A 
ATOM     10  C   UNL     1       6.749   4.509  15.455  0.00  0.00    +0.000 A 
ATOM     11  C   UNL     1       7.681   4.602  16.485  0.00  0.00    +0.000 A 
ATOM     12  C   UNL     1       7.249   4.649  17.807  0.00  0.00    +0.000 A 
ATOM     13  C   UNL     1       5.883   4.604  18.097  0.00  0.00    +0.000 A 
ENDBRANCH   7   8
BRANCH   1  15
ATOM     14  C   UNL     1       1.497   8.517  19.187  0.00  0.00    +0.000 C 
ATOM     15  C   UNL     1       2.133   7.342  19.323  0.00  0.00    +0.000 C 
BRANCH  14  19
ATOM     16  C   UNL     1      -0.345  10.626  22.437  0.00  0.00    +0.000 A 
ATOM     17  C   UNL     1      -0.390  11.129  21.137  0.00  0.00    +0.000 A 
ATOM     18  C   UNL     1       0.191  10.421  20.080  0.00  0.00    +0.000 A 
ATOM     19  C   UNL     1       0.850   9.209  20.314  0.00  0.00    +0.000 A 
ATOM     20  C   UNL     1       0.875   8.704  21.620  0.00  0.00    +0.000 A 
ATOM     21  C   UNL     1       0.294   9.412  22.676  0.00  0.00    +0.000 A 
BRANCH  16  23
ATOM     22  C   UNL     1      -2.248  11.855  23.112  0.00  0.00    +0.000 C 
ATOM     23  O   UNL     1      -0.924  11.415  23.392  0.00  0.00    +0.000 OA
ENDBRANCH  16  23
ENDBRANCH  14  19
ENDBRANCH   1  15
TORSDOF 4
ENDMDL
MODEL 8
REMARK VINA RESULT:      -7.8      5.265      7.172
REMARK  Name = 
REMARK  5 active torsions:
REMARK  status: ('A' for Active; 'I' for Inactive)
REMARK    1  A    between atoms: C_1  and  O_2
REMARK    2  A    between atoms: O_2  and  C_3
REMARK    3  A    between atoms: C_6  and  C_7
REMARK    4  A    between atoms: C_8  and  C_9
REMARK    5  A    between atoms: C_15  and  C_16
REMARK                            x       y       z     vdW  Elec       q    Type
REMARK                         _______ _______ _______ _____ _____    ______ ____
ROOT
ATOM      1  C   UNL     1       2.917   6.757  18.047  0.00  0.00    +0.000 C 
ATOM      2  O   UNL     1       3.749   7.359  17.382  0.00  0.00    +0.000 OA
ATOM      3  N   UNL     1       2.704   5.389  17.857  0.00  0.00    +0.000 N 
ATOM      4  N   UNL     1       1.517   4.818  18.194  0.00  0.00    +0.000 NA
ATOM      5  N   UNL     1       1.569   3.581  17.735  0.00  0.00    +0.000 NA
ATOM      6  N   UNL     1       2.789   3.313  17.183  0.00  0.00    +0.000 NA
ATOM      7  C   UNL     1       3.522   4.410  17.312  0.00  0.00    +0.000 A 
ENDROOT
BRANCH   7   8
ATOM      8  C   UNL     1       4.957   4.493  17.032  0.00  0.00    +0.000 A 
ATOM      9  C   UNL     1       5.408   4.395  15.706  0.00  0.00    +0.000 A 
ATOM     10  C   UNL     1       6.773   4.425  15.409  0.00  0.00    +0.000 A 
ATOM     11  C   UNL     1       7.709   4.550  16.433  0.00  0.00    +0.000 A 
ATOM     12  C   UNL     1       7.282   4.627  17.755  0.00  0.00    +0.000 A 
ATOM     13  C   UNL     1       5.917   4.581  18.051  0.00  0.00    +0.000 A 
ENDBRANCH   7   8
BRANCH   1  15
ATOM     14  C   UNL     1       1.583   8.573  19.007  0.00  0.00    +0.000 C 
ATOM     15  C   UNL     1       2.141   7.361  19.160  0.00  0.00    +0.000 C 
BRANCH  14  19
ATOM     16  C   UNL     1      -0.326  10.603  22.269  0.00  0.00    +0.000 A 
ATOM     17  C   UNL     1       0.396   9.429  22.478  0.00  0.00    +0.000 A 
ATOM     18  C   UNL     1       1.037   8.788  21.412  0.00  0.00    +0.000 A 
ATOM     19  C   UNL     1       0.942   9.302  20.113  0.00  0.00    +0.000 A 
ATOM     20  C   UNL     1       0.228  10.490  19.916  0.00  0.00    +0.000 A 
ATOM     21  C   UNL     1      -0.412  11.130  20.982  0.00  0.00    +0.000 A 
BRANCH  16  23
ATOM     22  C   UNL     1      -1.637  12.346  23.180  0.00  0.00    +0.000 C 
ATOM     23  O   UNL     1      -0.930  11.127  23.378  0.00  0.00    +0.000 OA
ENDBRANCH  16  23
ENDBRANCH  14  19
ENDBRANCH   1  15
TORSDOF 4
ENDMDL
MODEL 9
REMARK VINA RESULT:      -7.8      5.253      7.235
REMARK  Name = 
REMARK  5 active torsions:
REMARK  status: ('A' for Active; 'I' for Inactive)
REMARK    1  A    between atoms: C_1  and  O_2
REMARK    2  A    between atoms: O_2  and  C_3
REMARK    3  A    between atoms: C_6  and  C_7
REMARK    4  A    between atoms: C_8  and  C_9
REMARK    5  A    between atoms: C_15  and  C_16
REMARK                            x       y       z     vdW  Elec       q    Type
REMARK                         _______ _______ _______ _____ _____    ______ ____
ROOT
ATOM      1  C   UNL     1       2.937   6.757  18.104  0.00  0.00    +0.000 C 
ATOM      2  O   UNL     1       3.775   7.337  17.428  0.00  0.00    +0.000 OA
ATOM      3  N   UNL     1       2.675   5.399  17.906  0.00  0.00    +0.000 N 
ATOM      4  N   UNL     1       1.477   4.863  18.261  0.00  0.00    +0.000 NA
ATOM      5  N   UNL     1       1.479   3.630  17.791  0.00  0.00    +0.000 NA
ATOM      6  N   UNL     1       2.678   3.328  17.212  0.00  0.00    +0.000 NA
ATOM      7  C   UNL     1       3.450   4.398  17.336  0.00  0.00    +0.000 A 
ENDROOT
BRANCH   7   8
ATOM      8  C   UNL     1       4.880   4.437  17.028  0.00  0.00    +0.000 A 
ATOM      9  C   UNL     1       5.810   4.528  18.076  0.00  0.00    +0.000 A 
ATOM     10  C   UNL     1       7.180   4.614  17.815  0.00  0.00    +0.000 A 
ATOM     11  C   UNL     1       7.642   4.614  16.501  0.00  0.00    +0.000 A 
ATOM     12  C   UNL     1       6.735   4.546  15.449  0.00  0.00    +0.000 A 
ATOM     13  C   UNL     1       5.365   4.477  15.712  0.00  0.00    +0.000 A 
ENDBRANCH   7   8
BRANCH   1  15
ATOM     14  C   UNL     1       1.487   8.495  19.040  0.00  0.00    +0.000 C 
ATOM     15  C   UNL     1       2.203   7.375  19.236  0.00  0.00    +0.000 C 
BRANCH  14  19
ATOM     16  C   UNL     1      -0.226  10.765  22.252  0.00  0.00    +0.000 A 
ATOM     17  C   UNL     1       0.324  11.399  21.138  0.00  0.00    +0.000 A 
ATOM     18  C   UNL     1       0.857  10.649  20.084  0.00  0.00    +0.000 A 
ATOM     19  C   UNL     1       0.870   9.251  20.142  0.00  0.00    +0.000 A 
ATOM     20  C   UNL     1       0.300   8.624  21.257  0.00  0.00    +0.000 A 
ATOM     21  C   UNL     1      -0.233   9.374  22.310  0.00  0.00    +0.000 A 
BRANCH  16  23
ATOM     22  C   UNL     1      -2.107  11.769  23.274  0.00  0.00    +0.000 C 
ATOM     23  O   UNL     1      -0.694  11.599  23.230  0.00  0.00    +0.000 OA
ENDBRANCH  16  23
ENDBRANCH  14  19
ENDBRANCH   1  15
TORSDOF 4
ENDMDL
