MODEL 1
REMARK VINA RESULT:      -8.9      0.000      0.000
REMARK  Name = 
REMARK  8 active torsions:
REMARK  status: ('A' for Active; 'I' for Inactive)
REMARK    1  A    between atoms: C_1  and  O_2
REMARK    2  A    between atoms: O_2  and  C_3
REMARK    3  A    between atoms: C_6  and  O_7
REMARK    4  A    between atoms: O_7  and  C_8
REMARK    5  A    between atoms: C_9  and  S_10
REMARK    6  A    between atoms: S_10  and  N_13
REMARK    7  A    between atoms: N_13  and  C_14
REMARK    8  A    between atoms: C_20  and  C_21
REMARK                            x       y       z     vdW  Elec       q    Type
REMARK                         _______ _______ _______ _____ _____    ______ ____
ROOT
ATOM      1  N   UNL     1       5.032   4.868  16.594  0.00  0.00    +0.000 N 
ATOM      2  C   UNL     1       5.486   3.990  15.494  0.00  0.00    +0.000 C 
ATOM      3  C   UNL     1       6.076   5.546  17.326  0.00  0.00    +0.000 A 
ATOM      4  C   UNL     1       7.031   4.830  18.053  0.00  0.00    +0.000 A 
ATOM      5  C   UNL     1       8.072   5.513  18.685  0.00  0.00    +0.000 A 
ATOM      6  C   UNL     1       8.072   6.904  18.549  0.00  0.00    +0.000 A 
ATOM      7  N   UNL     1       8.905   7.874  19.036  0.00  0.00    +0.000 N 
ATOM      8  C   UNL     1       8.474   9.141  18.685  0.00  0.00    +0.000 A 
ATOM      9  C   UNL     1       7.372   8.966  17.868  0.00  0.00    +0.000 A 
ATOM     10  C   UNL     1       7.093   7.556  17.797  0.00  0.00    +0.000 A 
ATOM     11  N   UNL     1       6.087   6.889  17.157  0.00  0.00    +0.000 NA
ATOM     12  H   UNL     1       9.718   7.730  19.620  0.00  0.00    +0.000 HD
ENDROOT
BRANCH   8  13
ATOM     13  C   UNL     1       9.217  10.352  19.194  0.00  0.00    +0.000 A 
ATOM     14  N   UNL     1       9.125  10.560  20.520  0.00  0.00    +0.000 NA
ATOM     15  N   UNL     1       9.855  11.660  20.737  0.00  0.00    +0.000 N 
ATOM     16  C   UNL     1      10.472  12.160  19.627  0.00  0.00    +0.000 A 
ATOM     17  C   UNL     1      11.357  13.236  19.497  0.00  0.00    +0.000 A 
ATOM     18  C   UNL     1      11.791  13.557  18.212  0.00  0.00    +0.000 A 
ATOM     19  C   UNL     1      11.331  12.833  17.115  0.00  0.00    +0.000 A 
ATOM     20  C   UNL     1      10.455  11.735  17.271  0.00  0.00    +0.000 A 
ATOM     21  C   UNL     1      10.024  11.364  18.565  0.00  0.00    +0.000 A 
ATOM     22  H   UNL     1       9.890  12.038  21.675  0.00  0.00    +0.000 HD
ENDBRANCH   8  13
BRANCH   1  23
ATOM     23  S   UNL     1       3.740   4.230  17.522  0.00  0.00    +0.000 S 
ATOM     24  O   UNL     1       4.300   3.425  18.591  0.00  0.00    +0.000 OA
ATOM     25  O   UNL     1       2.785   3.625  16.623  0.00  0.00    +0.000 OA
BRANCH  23  30
ATOM     26  C   UNL     1       2.387   8.013  18.108  0.00  0.00    +0.000 A 
ATOM     27  C   UNL     1       2.045   8.037  19.454  0.00  0.00    +0.000 A 
ATOM     28  C   UNL     1       2.148   6.885  20.227  0.00  0.00    +0.000 A 
ATOM     29  C   UNL     1       2.627   5.677  19.686  0.00  0.00    +0.000 A 
ATOM     30  C   UNL     1       2.916   5.631  18.308  0.00  0.00    +0.000 A 
ATOM     31  C   UNL     1       2.795   6.807  17.531  0.00  0.00    +0.000 A 
BRANCH  26  33
ATOM     32  C   UNL     1       1.308  10.130  17.961  0.00  0.00    +0.000 C 
ATOM     33  O   UNL     1       2.308   9.232  17.501  0.00  0.00    +0.000 OA
ENDBRANCH  26  33
BRANCH  29  34
ATOM     34  O   UNL     1       2.814   4.566  20.464  0.00  0.00    +0.000 OA
ATOM     35  C   UNL     1       1.629   3.984  21.018  0.00  0.00    +0.000 C 
ENDBRANCH  29  34
ENDBRANCH  23  30
ENDBRANCH   1  23
TORSDOF 5
ENDMDL
MODEL 2
REMARK VINA RESULT:      -8.7      5.532      9.781
REMARK  Name = 
REMARK  8 active torsions:
REMARK  status: ('A' for Active; 'I' for Inactive)
REMARK    1  A    between atoms: C_1  and  O_2
REMARK    2  A    between atoms: O_2  and  C_3
REMARK    3  A    between atoms: C_6  and  O_7
REMARK    4  A    between atoms: O_7  and  C_8
REMARK    5  A    between atoms: C_9  and  S_10
REMARK    6  A    between atoms: S_10  and  N_13
REMARK    7  A    between atoms: N_13  and  C_14
REMARK    8  A    between atoms: C_20  and  C_21
REMARK                            x       y       z     vdW  Elec       q    Type
REMARK                         _______ _______ _______ _____ _____    ______ ____
ROOT
ATOM      1  N   UNL     1      -0.067  12.826  19.918  0.00  0.00    +0.000 N 
ATOM      2  C   UNL     1      -1.525  12.979  20.115  0.00  0.00    +0.000 C 
ATOM      3  C   UNL     1       0.446  11.482  20.052  0.00  0.00    +0.000 A 
ATOM      4  C   UNL     1       0.357  10.792  21.265  0.00  0.00    +0.000 A 
ATOM      5  C   UNL     1       0.792   9.468  21.338  0.00  0.00    +0.000 A 
ATOM      6  C   UNL     1       1.310   8.921  20.160  0.00  0.00    +0.000 A 
ATOM      7  N   UNL     1       1.834   7.689  19.874  0.00  0.00    +0.000 N 
ATOM      8  C   UNL     1       2.282   7.617  18.567  0.00  0.00    +0.000 A 
ATOM      9  C   UNL     1       1.949   8.821  17.973  0.00  0.00    +0.000 A 
ATOM     10  C   UNL     1       1.358   9.662  18.980  0.00  0.00    +0.000 A 
ATOM     11  N   UNL     1       0.911  10.951  18.897  0.00  0.00    +0.000 NA
ATOM     12  H   UNL     1       1.940   6.917  20.518  0.00  0.00    +0.000 HD
ENDROOT
BRANCH   8  13
ATOM     13  C   UNL     1       2.966   6.364  18.079  0.00  0.00    +0.000 A 
ATOM     14  N   UNL     1       4.173   6.556  17.516  0.00  0.00    +0.000 NA
ATOM     15  N   UNL     1       4.583   5.329  17.176  0.00  0.00    +0.000 N 
ATOM     16  C   UNL     1       3.730   4.326  17.537  0.00  0.00    +0.000 A 
ATOM     17  C   UNL     1       3.867   2.938  17.409  0.00  0.00    +0.000 A 
ATOM     18  C   UNL     1       2.794   2.149  17.820  0.00  0.00    +0.000 A 
ATOM     19  C   UNL     1       1.635   2.741  18.314  0.00  0.00    +0.000 A 
ATOM     20  C   UNL     1       1.527   4.143  18.455  0.00  0.00    +0.000 A 
ATOM     21  C   UNL     1       2.611   4.969  18.080  0.00  0.00    +0.000 A 
ATOM     22  H   UNL     1       5.461   5.233  16.683  0.00  0.00    +0.000 HD
ENDBRANCH   8  13
BRANCH   1  23
ATOM     23  S   UNL     1       0.877  14.075  20.614  0.00  0.00    +0.000 S 
ATOM     24  O   UNL     1       1.851  13.471  21.503  0.00  0.00    +0.000 OA
ATOM     25  O   UNL     1      -0.013  15.084  21.141  0.00  0.00    +0.000 OA
BRANCH  23  30
ATOM     26  C   UNL     1       3.956  14.886  18.094  0.00  0.00    +0.000 A 
ATOM     27  C   UNL     1       3.595  16.093  17.509  0.00  0.00    +0.000 A 
ATOM     28  C   UNL     1       2.369  16.680  17.806  0.00  0.00    +0.000 A 
ATOM     29  C   UNL     1       1.476  16.094  18.722  0.00  0.00    +0.000 A 
ATOM     30  C   UNL     1       1.809  14.840  19.270  0.00  0.00    +0.000 A 
ATOM     31  C   UNL     1       3.054  14.248  18.951  0.00  0.00    +0.000 A 
BRANCH  26  33
ATOM     32  C   UNL     1       6.303  15.268  18.217  0.00  0.00    +0.000 C 
ATOM     33  O   UNL     1       5.214  14.474  17.767  0.00  0.00    +0.000 OA
ENDBRANCH  26  33
BRANCH  29  34
ATOM     34  O   UNL     1       0.309  16.714  19.083  0.00  0.00    +0.000 OA
ATOM     35  C   UNL     1      -0.493  17.211  18.008  0.00  0.00    +0.000 C 
ENDBRANCH  29  34
ENDBRANCH  23  30
ENDBRANCH   1  23
TORSDOF 5
ENDMDL
MODEL 3
REMARK VINA RESULT:      -8.7      5.883      9.180
REMARK  Name = 
REMARK  8 active torsions:
REMARK  status: ('A' for Active; 'I' for Inactive)
REMARK    1  A    between atoms: C_1  and  O_2
REMARK    2  A    between atoms: O_2  and  C_3
REMARK    3  A    between atoms: C_6  and  O_7
REMARK    4  A    between atoms: O_7  and  C_8
REMARK    5  A    between atoms: C_9  and  S_10
REMARK    6  A    between atoms: S_10  and  N_13
REMARK    7  A    between atoms: N_13  and  C_14
REMARK    8  A    between atoms: C_20  and  C_21
REMARK                            x       y       z     vdW  Elec       q    Type
REMARK                         _______ _______ _______ _____ _____    ______ ____
ROOT
ATOM      1  N   UNL     1      -0.139  12.052  20.375  0.00  0.00    +0.000 N 
ATOM      2  C   UNL     1      -1.590  12.075  20.658  0.00  0.00    +0.000 C 
ATOM      3  C   UNL     1       0.499  10.760  20.473  0.00  0.00    +0.000 A 
ATOM      4  C   UNL     1       0.544  10.066  21.685  0.00  0.00    +0.000 A 
ATOM      5  C   UNL     1       1.100   8.786  21.726  0.00  0.00    +0.000 A 
ATOM      6  C   UNL     1       1.594   8.286  20.518  0.00  0.00    +0.000 A 
ATOM      7  N   UNL     1       2.208   7.107  20.196  0.00  0.00    +0.000 N 
ATOM      8  C   UNL     1       2.582   7.073  18.864  0.00  0.00    +0.000 A 
ATOM      9  C   UNL     1       2.109   8.242  18.297  0.00  0.00    +0.000 A 
ATOM     10  C   UNL     1       1.506   9.028  19.340  0.00  0.00    +0.000 A 
ATOM     11  N   UNL     1       0.940  10.271  19.290  0.00  0.00    +0.000 NA
ATOM     12  H   UNL     1       2.421   6.348  20.829  0.00  0.00    +0.000 HD
ENDROOT
BRANCH   8  13
ATOM     13  C   UNL     1       3.346   5.886  18.331  0.00  0.00    +0.000 A 
ATOM     14  N   UNL     1       3.143   4.734  18.994  0.00  0.00    +0.000 NA
ATOM     15  N   UNL     1       3.900   3.839  18.351  0.00  0.00    +0.000 N 
ATOM     16  C   UNL     1       4.554   4.331  17.258  0.00  0.00    +0.000 A 
ATOM     17  C   UNL     1       5.361   3.675  16.321  0.00  0.00    +0.000 A 
ATOM     18  C   UNL     1       5.951   4.454  15.328  0.00  0.00    +0.000 A 
ATOM     19  C   UNL     1       5.748   5.831  15.302  0.00  0.00    +0.000 A 
ATOM     20  C   UNL     1       4.910   6.469  16.244  0.00  0.00    +0.000 A 
ATOM     21  C   UNL     1       4.270   5.702  17.243  0.00  0.00    +0.000 A 
ATOM     22  H   UNL     1       3.943   2.895  18.711  0.00  0.00    +0.000 HD
ENDBRANCH   8  13
BRANCH   1  23
ATOM     23  S   UNL     1       0.729  13.382  21.019  0.00  0.00    +0.000 S 
ATOM     24  O   UNL     1       2.127  13.008  21.123  0.00  0.00    +0.000 OA
ATOM     25  O   UNL     1       0.044  13.847  22.203  0.00  0.00    +0.000 OA
BRANCH  23  30
ATOM     26  C   UNL     1       1.944  16.273  18.440  0.00  0.00    +0.000 A 
ATOM     27  C   UNL     1       0.789  17.005  18.196  0.00  0.00    +0.000 A 
ATOM     28  C   UNL     1      -0.424  16.612  18.753  0.00  0.00    +0.000 A 
ATOM     29  C   UNL     1      -0.516  15.491  19.598  0.00  0.00    +0.000 A 
ATOM     30  C   UNL     1       0.639  14.709  19.798  0.00  0.00    +0.000 A 
ATOM     31  C   UNL     1       1.864  15.114  19.216  0.00  0.00    +0.000 A 
BRANCH  26  33
ATOM     32  C   UNL     1       4.307  16.549  18.525  0.00  0.00    +0.000 C 
ATOM     33  O   UNL     1       3.066  16.822  17.892  0.00  0.00    +0.000 OA
ENDBRANCH  26  33
BRANCH  29  34
ATOM     34  O   UNL     1      -1.690  15.153  20.218  0.00  0.00    +0.000 OA
ATOM     35  C   UNL     1      -2.387  16.224  20.863  0.00  0.00    +0.000 C 
ENDBRANCH  29  34
ENDBRANCH  23  30
ENDBRANCH   1  23
TORSDOF 5
ENDMDL
MODEL 4
REMARK VINA RESULT:      -8.6      5.678      9.096
REMARK  Name = 
REMARK  8 active torsions:
REMARK  status: ('A' for Active; 'I' for Inactive)
REMARK    1  A    between atoms: C_1  and  O_2
REMARK    2  A    between atoms: O_2  and  C_3
REMARK    3  A    between atoms: C_6  and  O_7
REMARK    4  A    between atoms: O_7  and  C_8
REMARK    5  A    between atoms: C_9  and  S_10
REMARK    6  A    between atoms: S_10  and  N_13
REMARK    7  A    between atoms: N_13  and  C_14
REMARK    8  A    between atoms: C_20  and  C_21
REMARK                            x       y       z     vdW  Elec       q    Type
REMARK                         _______ _______ _______ _____ _____    ______ ____
ROOT
ATOM      1  N   UNL     1      -0.197  11.955  20.469  0.00  0.00    +0.000 N 
ATOM      2  C   UNL     1      -1.655  11.934  20.717  0.00  0.00    +0.000 C 
ATOM      3  C   UNL     1       0.456  10.667  20.463  0.00  0.00    +0.000 A 
ATOM      4  C   UNL     1       0.483   9.865  21.607  0.00  0.00    +0.000 A 
ATOM      5  C   UNL     1       1.055   8.593  21.544  0.00  0.00    +0.000 A 
ATOM      6  C   UNL     1       1.585   8.213  20.307  0.00  0.00    +0.000 A 
ATOM      7  N   UNL     1       2.223   7.076  19.893  0.00  0.00    +0.000 N 
ATOM      8  C   UNL     1       2.629   7.170  18.574  0.00  0.00    +0.000 A 
ATOM      9  C   UNL     1       2.153   8.381  18.105  0.00  0.00    +0.000 A 
ATOM     10  C   UNL     1       1.514   9.060  19.201  0.00  0.00    +0.000 A 
ATOM     11  N   UNL     1       0.933  10.295  19.251  0.00  0.00    +0.000 NA
ATOM     12  H   UNL     1       2.432   6.264  20.459  0.00  0.00    +0.000 HD
ENDROOT
BRANCH   8  13
ATOM     13  C   UNL     1       3.422   6.047  17.953  0.00  0.00    +0.000 A 
ATOM     14  N   UNL     1       2.744   4.898  17.780  0.00  0.00    +0.000 NA
ATOM     15  N   UNL     1       3.629   4.067  17.218  0.00  0.00    +0.000 N 
ATOM     16  C   UNL     1       4.847   4.627  16.960  0.00  0.00    +0.000 A 
ATOM     17  C   UNL     1       5.970   4.085  16.323  0.00  0.00    +0.000 A 
ATOM     18  C   UNL     1       7.111   4.882  16.250  0.00  0.00    +0.000 A 
ATOM     19  C   UNL     1       7.115   6.155  16.813  0.00  0.00    +0.000 A 
ATOM     20  C   UNL     1       5.963   6.691  17.431  0.00  0.00    +0.000 A 
ATOM     21  C   UNL     1       4.780   5.921  17.491  0.00  0.00    +0.000 A 
ATOM     22  H   UNL     1       3.348   3.112  17.039  0.00  0.00    +0.000 HD
ENDBRANCH   8  13
BRANCH   1  23
ATOM     23  S   UNL     1       0.636  13.230  21.254  0.00  0.00    +0.000 S 
ATOM     24  O   UNL     1       2.061  13.015  21.087  0.00  0.00    +0.000 OA
ATOM     25  O   UNL     1       0.106  13.370  22.591  0.00  0.00    +0.000 OA
BRANCH  23  30
ATOM     26  C   UNL     1      -1.348  16.608  20.185  0.00  0.00    +0.000 A 
ATOM     27  C   UNL     1      -0.824  16.917  18.937  0.00  0.00    +0.000 A 
ATOM     28  C   UNL     1       0.203  16.151  18.394  0.00  0.00    +0.000 A 
ATOM     29  C   UNL     1       0.718  15.029  19.070  0.00  0.00    +0.000 A 
ATOM     30  C   UNL     1       0.235  14.747  20.363  0.00  0.00    +0.000 A 
ATOM     31  C   UNL     1      -0.801  15.543  20.908  0.00  0.00    +0.000 A 
BRANCH  26  33
ATOM     32  C   UNL     1      -2.991  18.207  19.545  0.00  0.00    +0.000 C 
ATOM     33  O   UNL     1      -2.397  17.399  20.550  0.00  0.00    +0.000 OA
ENDBRANCH  26  33
BRANCH  29  34
ATOM     34  O   UNL     1       1.666  14.221  18.500  0.00  0.00    +0.000 OA
ATOM     35  C   UNL     1       2.884  14.864  18.111  0.00  0.00    +0.000 C 
ENDBRANCH  29  34
ENDBRANCH  23  30
ENDBRANCH   1  23
TORSDOF 5
ENDMDL
MODEL 5
REMARK VINA RESULT:      -8.6      5.937      9.934
REMARK  Name = 
REMARK  8 active torsions:
REMARK  status: ('A' for Active; 'I' for Inactive)
REMARK    1  A    between atoms: C_1  and  O_2
REMARK    2  A    between atoms: O_2  and  C_3
REMARK    3  A    between atoms: C_6  and  O_7
REMARK    4  A    between atoms: O_7  and  C_8
REMARK    5  A    between atoms: C_9  and  S_10
REMARK    6  A    between atoms: S_10  and  N_13
REMARK    7  A    between atoms: N_13  and  C_14
REMARK    8  A    between atoms: C_20  and  C_21
REMARK                            x       y       z     vdW  Elec       q    Type
REMARK                         _______ _______ _______ _____ _____    ______ ____
ROOT
ATOM      1  N   UNL     1      -0.244  12.638  20.370  0.00  0.00    +0.000 N 
ATOM      2  C   UNL     1      -1.692  12.723  20.660  0.00  0.00    +0.000 C 
ATOM      3  C   UNL     1       0.331  11.315  20.433  0.00  0.00    +0.000 A 
ATOM      4  C   UNL     1       0.347  10.589  21.627  0.00  0.00    +0.000 A 
ATOM      5  C   UNL     1       0.840   9.283  21.635  0.00  0.00    +0.000 A 
ATOM      6  C   UNL     1       1.306   8.791  20.412  0.00  0.00    +0.000 A 
ATOM      7  N   UNL     1       1.862   7.591  20.058  0.00  0.00    +0.000 N 
ATOM      8  C   UNL     1       2.230   7.574  18.724  0.00  0.00    +0.000 A 
ATOM      9  C   UNL     1       1.812   8.778  18.188  0.00  0.00    +0.000 A 
ATOM     10  C   UNL     1       1.250   9.566  19.253  0.00  0.00    +0.000 A 
ATOM     11  N   UNL     1       0.745  10.835  19.236  0.00  0.00    +0.000 NA
ATOM     12  H   UNL     1       2.040   6.808  20.672  0.00  0.00    +0.000 HD
ENDROOT
BRANCH   8  13
ATOM     13  C   UNL     1       2.935   6.365  18.159  0.00  0.00    +0.000 A 
ATOM     14  N   UNL     1       4.114   6.619  17.564  0.00  0.00    +0.000 NA
ATOM     15  N   UNL     1       4.548   5.421  17.156  0.00  0.00    +0.000 N 
ATOM     16  C   UNL     1       3.740   4.377  17.502  0.00  0.00    +0.000 A 
ATOM     17  C   UNL     1       3.915   3.002  17.310  0.00  0.00    +0.000 A 
ATOM     18  C   UNL     1       2.882   2.162  17.723  0.00  0.00    +0.000 A 
ATOM     19  C   UNL     1       1.724   2.695  18.282  0.00  0.00    +0.000 A 
ATOM     20  C   UNL     1       1.579   4.085  18.488  0.00  0.00    +0.000 A 
ATOM     21  C   UNL     1       2.622   4.961  18.112  0.00  0.00    +0.000 A 
ATOM     22  H   UNL     1       5.411   5.375  16.630  0.00  0.00    +0.000 HD
ENDBRANCH   8  13
BRANCH   1  23
ATOM     23  S   UNL     1       0.689  13.908  21.044  0.00  0.00    +0.000 S 
ATOM     24  O   UNL     1       2.028  13.409  21.292  0.00  0.00    +0.000 OA
ATOM     25  O   UNL     1      -0.051  14.489  22.141  0.00  0.00    +0.000 OA
BRANCH  23  30
ATOM     26  C   UNL     1       2.404  16.595  18.529  0.00  0.00    +0.000 A 
ATOM     27  C   UNL     1       1.340  17.387  18.116  0.00  0.00    +0.000 A 
ATOM     28  C   UNL     1       0.044  17.099  18.533  0.00  0.00    +0.000 A 
ATOM     29  C   UNL     1      -0.226  16.025  19.402  0.00  0.00    +0.000 A 
ATOM     30  C   UNL     1       0.839  15.181  19.773  0.00  0.00    +0.000 A 
ATOM     31  C   UNL     1       2.150  15.479  19.331  0.00  0.00    +0.000 A 
BRANCH  26  33
ATOM     32  C   UNL     1       4.771  16.341  18.543  0.00  0.00    +0.000 C 
ATOM     33  O   UNL     1       3.619  17.045  18.103  0.00  0.00    +0.000 OA
ENDBRANCH  26  33
BRANCH  29  34
ATOM     34  O   UNL     1      -1.487  15.792  19.884  0.00  0.00    +0.000 OA
ATOM     35  C   UNL     1      -2.135  16.908  20.503  0.00  0.00    +0.000 C 
ENDBRANCH  29  34
ENDBRANCH  23  30
ENDBRANCH   1  23
TORSDOF 5
ENDMDL
MODEL 6
REMARK VINA RESULT:      -8.6      4.041      7.765
REMARK  Name = 
REMARK  8 active torsions:
REMARK  status: ('A' for Active; 'I' for Inactive)
REMARK    1  A    between atoms: C_1  and  O_2
REMARK    2  A    between atoms: O_2  and  C_3
REMARK    3  A    between atoms: C_6  and  O_7
REMARK    4  A    between atoms: O_7  and  C_8
REMARK    5  A    between atoms: C_9  and  S_10
REMARK    6  A    between atoms: S_10  and  N_13
REMARK    7  A    between atoms: N_13  and  C_14
REMARK    8  A    between atoms: C_20  and  C_21
REMARK                            x       y       z     vdW  Elec       q    Type
REMARK                         _______ _______ _______ _____ _____    ______ ____
ROOT
ATOM      1  N   UNL     1       3.393   4.696  18.731  0.00  0.00    +0.000 N 
ATOM      2  C   UNL     1       2.764   3.880  17.669  0.00  0.00    +0.000 C 
ATOM      3  C   UNL     1       2.888   6.042  18.868  0.00  0.00    +0.000 A 
ATOM      4  C   UNL     1       3.016   6.971  17.832  0.00  0.00    +0.000 A 
ATOM      5  C   UNL     1       2.448   8.240  17.969  0.00  0.00    +0.000 A 
ATOM      6  C   UNL     1       1.787   8.495  19.174  0.00  0.00    +0.000 A 
ATOM      7  N   UNL     1       1.146   9.606  19.652  0.00  0.00    +0.000 N 
ATOM      8  C   UNL     1       0.683   9.413  20.941  0.00  0.00    +0.000 A 
ATOM      9  C   UNL     1       0.965   8.098  21.264  0.00  0.00    +0.000 A 
ATOM     10  C   UNL     1       1.686   7.516  20.164  0.00  0.00    +0.000 A 
ATOM     11  N   UNL     1       2.218   6.266  20.024  0.00  0.00    +0.000 NA
ATOM     12  H   UNL     1       1.040  10.490  19.173  0.00  0.00    +0.000 HD
ENDROOT
BRANCH   8  13
ATOM     13  C   UNL     1       0.016  10.551  21.674  0.00  0.00    +0.000 A 
ATOM     14  N   UNL     1      -0.776  10.183  22.697  0.00  0.00    +0.000 NA
ATOM     15  N   UNL     1      -1.241  11.336  23.191  0.00  0.00    +0.000 N 
ATOM     16  C   UNL     1      -0.751  12.454  22.580  0.00  0.00    +0.000 A 
ATOM     17  C   UNL     1      -0.958  13.806  22.877  0.00  0.00    +0.000 A 
ATOM     18  C   UNL     1      -0.365  14.744  22.034  0.00  0.00    +0.000 A 
ATOM     19  C   UNL     1       0.380  14.329  20.935  0.00  0.00    +0.000 A 
ATOM     20  C   UNL     1       0.596  12.958  20.667  0.00  0.00    +0.000 A 
ATOM     21  C   UNL     1       0.037  11.982  21.522  0.00  0.00    +0.000 A 
ATOM     22  H   UNL     1      -1.908  11.301  23.951  0.00  0.00    +0.000 HD
ENDBRANCH   8  13
BRANCH   1  23
ATOM     23  S   UNL     1       5.090   4.500  18.862  0.00  0.00    +0.000 S 
ATOM     24  O   UNL     1       5.366   3.109  19.168  0.00  0.00    +0.000 OA
ATOM     25  O   UNL     1       5.603   5.522  19.746  0.00  0.00    +0.000 OA
BRANCH  23  30
ATOM     26  C   UNL     1       5.929   4.004  14.921  0.00  0.00    +0.000 A 
ATOM     27  C   UNL     1       7.004   4.855  14.702  0.00  0.00    +0.000 A 
ATOM     28  C   UNL     1       7.480   5.667  15.727  0.00  0.00    +0.000 A 
ATOM     29  C   UNL     1       6.913   5.631  17.015  0.00  0.00    +0.000 A 
ATOM     30  C   UNL     1       5.783   4.816  17.226  0.00  0.00    +0.000 A 
ATOM     31  C   UNL     1       5.303   4.005  16.171  0.00  0.00    +0.000 A 
BRANCH  26  33
ATOM     32  C   UNL     1       6.205   3.561  12.598  0.00  0.00    +0.000 C 
ATOM     33  O   UNL     1       5.626   3.217  13.848  0.00  0.00    +0.000 OA
ENDBRANCH  26  33
BRANCH  29  34
ATOM     34  O   UNL     1       7.435   6.362  18.049  0.00  0.00    +0.000 OA
ATOM     35  C   UNL     1       7.709   7.738  17.766  0.00  0.00    +0.000 C 
ENDBRANCH  29  34
ENDBRANCH  23  30
ENDBRANCH   1  23
TORSDOF 5
ENDMDL
MODEL 7
REMARK VINA RESULT:      -8.5      4.016      7.971
REMARK  Name = 
REMARK  8 active torsions:
REMARK  status: ('A' for Active; 'I' for Inactive)
REMARK    1  A    between atoms: C_1  and  O_2
REMARK    2  A    between atoms: O_2  and  C_3
REMARK    3  A    between atoms: C_6  and  O_7
REMARK    4  A    between atoms: O_7  and  C_8
REMARK    5  A    between atoms: C_9  and  S_10
REMARK    6  A    between atoms: S_10  and  N_13
REMARK    7  A    between atoms: N_13  and  C_14
REMARK    8  A    between atoms: C_20  and  C_21
REMARK                            x       y       z     vdW  Elec       q    Type
REMARK                         _______ _______ _______ _____ _____    ______ ____
ROOT
ATOM      1  N   UNL     1       3.077   4.818  18.899  0.00  0.00    +0.000 N 
ATOM      2  C   UNL     1       2.280   3.940  18.014  0.00  0.00    +0.000 C 
ATOM      3  C   UNL     1       2.725   6.218  18.874  0.00  0.00    +0.000 A 
ATOM      4  C   UNL     1       2.858   6.977  17.708  0.00  0.00    +0.000 A 
ATOM      5  C   UNL     1       2.435   8.307  17.698  0.00  0.00    +0.000 A 
ATOM      6  C   UNL     1       1.908   8.798  18.896  0.00  0.00    +0.000 A 
ATOM      7  N   UNL     1       1.426  10.029  19.251  0.00  0.00    +0.000 N 
ATOM      8  C   UNL     1       1.057  10.068  20.584  0.00  0.00    +0.000 A 
ATOM      9  C   UNL     1       1.231   8.786  21.074  0.00  0.00    +0.000 A 
ATOM     10  C   UNL     1       1.793   7.982  20.022  0.00  0.00    +0.000 A 
ATOM     11  N   UNL     1       2.182   6.672  20.029  0.00  0.00    +0.000 NA
ATOM     12  H   UNL     1       1.370  10.845  18.657  0.00  0.00    +0.000 HD
ENDROOT
BRANCH   8  13
ATOM     13  C   UNL     1       0.574  11.363  21.188  0.00  0.00    +0.000 A 
ATOM     14  N   UNL     1       1.308  12.446  20.876  0.00  0.00    +0.000 NA
ATOM     15  N   UNL     1       0.697  13.457  21.504  0.00  0.00    +0.000 N 
ATOM     16  C   UNL     1      -0.440  13.105  22.173  0.00  0.00    +0.000 A 
ATOM     17  C   UNL     1      -1.359  13.900  22.867  0.00  0.00    +0.000 A 
ATOM     18  C   UNL     1      -2.411  13.250  23.510  0.00  0.00    +0.000 A 
ATOM     19  C   UNL     1      -2.511  11.862  23.465  0.00  0.00    +0.000 A 
ATOM     20  C   UNL     1      -1.585  11.080  22.738  0.00  0.00    +0.000 A 
ATOM     21  C   UNL     1      -0.526  11.712  22.048  0.00  0.00    +0.000 A 
ATOM     22  H   UNL     1       1.110  14.379  21.450  0.00  0.00    +0.000 HD
ENDBRANCH   8  13
BRANCH   1  23
ATOM     23  S   UNL     1       4.750   4.452  18.939  0.00  0.00    +0.000 S 
ATOM     24  O   UNL     1       4.900   3.016  19.080  0.00  0.00    +0.000 OA
ATOM     25  O   UNL     1       5.386   5.315  19.908  0.00  0.00    +0.000 OA
BRANCH  23  30
ATOM     26  C   UNL     1       5.590   4.206  14.974  0.00  0.00    +0.000 A 
ATOM     27  C   UNL     1       6.627   5.113  14.800  0.00  0.00    +0.000 A 
ATOM     28  C   UNL     1       7.073   5.887  15.866  0.00  0.00    +0.000 A 
ATOM     29  C   UNL     1       6.515   5.757  17.152  0.00  0.00    +0.000 A 
ATOM     30  C   UNL     1       5.422   4.886  17.321  0.00  0.00    +0.000 A 
ATOM     31  C   UNL     1       4.971   4.113  16.224  0.00  0.00    +0.000 A 
BRANCH  26  33
ATOM     32  C   UNL     1       6.209   3.577  12.763  0.00  0.00    +0.000 C 
ATOM     33  O   UNL     1       5.316   3.466  13.862  0.00  0.00    +0.000 OA
ENDBRANCH  26  33
BRANCH  29  34
ATOM     34  O   UNL     1       7.011   6.453  18.222  0.00  0.00    +0.000 OA
ATOM     35  C   UNL     1       7.808   7.599  17.908  0.00  0.00    +0.000 C 
ENDBRANCH  29  34
ENDBRANCH  23  30
ENDBRANCH   1  23
TORSDOF 5
ENDMDL
MODEL 8
REMARK VINA RESULT:      -8.5      6.311     10.018
REMARK  Name = 
REMARK  8 active torsions:
REMARK  status: ('A' for Active; 'I' for Inactive)
REMARK    1  A    between atoms: C_1  and  O_2
REMARK    2  A    between atoms: O_2  and  C_3
REMARK    3  A    between atoms: C_6  and  O_7
REMARK    4  A    between atoms: O_7  and  C_8
REMARK    5  A    between atoms: C_9  and  S_10
REMARK    6  A    between atoms: S_10  and  N_13
REMARK    7  A    between atoms: N_13  and  C_14
REMARK    8  A    between atoms: C_20  and  C_21
REMARK                            x       y       z     vdW  Elec       q    Type
REMARK                         _______ _______ _______ _____ _____    ______ ____
ROOT
ATOM      1  N   UNL     1      -0.707  12.467  21.064  0.00  0.00    +0.000 N 
ATOM      2  C   UNL     1      -2.126  12.394  21.475  0.00  0.00    +0.000 C 
ATOM      3  C   UNL     1      -0.001  11.209  21.020  0.00  0.00    +0.000 A 
ATOM      4  C   UNL     1       0.189  10.446  22.175  0.00  0.00    +0.000 A 
ATOM      5  C   UNL     1       0.807   9.197  22.084  0.00  0.00    +0.000 A 
ATOM      6  C   UNL     1       1.213   8.800  20.806  0.00  0.00    +0.000 A 
ATOM      7  N   UNL     1       1.852   7.677  20.354  0.00  0.00    +0.000 N 
ATOM      8  C   UNL     1       2.103   7.745  18.995  0.00  0.00    +0.000 A 
ATOM      9  C   UNL     1       1.524   8.919  18.550  0.00  0.00    +0.000 A 
ATOM     10  C   UNL     1       0.981   9.606  19.691  0.00  0.00    +0.000 A 
ATOM     11  N   UNL     1       0.353  10.817  19.773  0.00  0.00    +0.000 NA
ATOM     12  H   UNL     1       2.158   6.894  20.915  0.00  0.00    +0.000 HD
ENDROOT
BRANCH   8  13
ATOM     13  C   UNL     1       2.872   6.636  18.321  0.00  0.00    +0.000 A 
ATOM     14  N   UNL     1       4.019   7.016  17.729  0.00  0.00    +0.000 NA
ATOM     15  N   UNL     1       4.521   5.887  17.217  0.00  0.00    +0.000 N 
ATOM     16  C   UNL     1       3.790   4.767  17.488  0.00  0.00    +0.000 A 
ATOM     17  C   UNL     1       4.049   3.426  17.180  0.00  0.00    +0.000 A 
ATOM     18  C   UNL     1       3.082   2.488  17.538  0.00  0.00    +0.000 A 
ATOM     19  C   UNL     1       1.904   2.896  18.158  0.00  0.00    +0.000 A 
ATOM     20  C   UNL     1       1.674   4.253  18.481  0.00  0.00    +0.000 A 
ATOM     21  C   UNL     1       2.650   5.223  18.162  0.00  0.00    +0.000 A 
ATOM     22  H   UNL     1       5.373   5.940  16.675  0.00  0.00    +0.000 HD
ENDBRANCH   8  13
BRANCH   1  23
ATOM     23  S   UNL     1       0.150  13.801  21.714  0.00  0.00    +0.000 S 
ATOM     24  O   UNL     1       1.570  13.520  21.621  0.00  0.00    +0.000 OA
ATOM     25  O   UNL     1      -0.412  14.122  23.006  0.00  0.00    +0.000 OA
BRANCH  23  30
ATOM     26  C   UNL     1      -1.557  17.200  20.292  0.00  0.00    +0.000 A 
ATOM     27  C   UNL     1      -1.123  17.260  18.974  0.00  0.00    +0.000 A 
ATOM     28  C   UNL     1      -0.239  16.307  18.479  0.00  0.00    +0.000 A 
ATOM     29  C   UNL     1       0.216  15.242  19.278  0.00  0.00    +0.000 A 
ATOM     30  C   UNL     1      -0.170  15.210  20.632  0.00  0.00    +0.000 A 
ATOM     31  C   UNL     1      -1.060  16.194  21.126  0.00  0.00    +0.000 A 
BRANCH  26  33
ATOM     32  C   UNL     1      -3.441  18.491  19.624  0.00  0.00    +0.000 C 
ATOM     33  O   UNL     1      -2.477  18.155  20.610  0.00  0.00    +0.000 OA
ENDBRANCH  26  33
BRANCH  29  34
ATOM     34  O   UNL     1       1.015  14.252  18.769  0.00  0.00    +0.000 OA
ATOM     35  C   UNL     1       2.342  14.646  18.404  0.00  0.00    +0.000 C 
ENDBRANCH  29  34
ENDBRANCH  23  30
ENDBRANCH   1  23
TORSDOF 5
ENDMDL
MODEL 9
REMARK VINA RESULT:      -8.4      5.297      9.077
REMARK  Name = 
REMARK  8 active torsions:
REMARK  status: ('A' for Active; 'I' for Inactive)
REMARK    1  A    between atoms: C_1  and  O_2
REMARK    2  A    between atoms: O_2  and  C_3
REMARK    3  A    between atoms: C_6  and  O_7
REMARK    4  A    between atoms: O_7  and  C_8
REMARK    5  A    between atoms: C_9  and  S_10
REMARK    6  A    between atoms: S_10  and  N_13
REMARK    7  A    between atoms: N_13  and  C_14
REMARK    8  A    between atoms: C_20  and  C_21
REMARK                            x       y       z     vdW  Elec       q    Type
REMARK                         _______ _______ _______ _____ _____    ______ ____
ROOT
ATOM      1  N   UNL     1       0.200  12.427  19.767  0.00  0.00    +0.000 N 
ATOM      2  C   UNL     1      -1.265  12.579  19.906  0.00  0.00    +0.000 C 
ATOM      3  C   UNL     1       0.701  11.076  19.859  0.00  0.00    +0.000 A 
ATOM      4  C   UNL     1       0.556  10.329  21.032  0.00  0.00    +0.000 A 
ATOM      5  C   UNL     1       0.982   9.000  21.060  0.00  0.00    +0.000 A 
ATOM      6  C   UNL     1       1.551   8.507  19.882  0.00  0.00    +0.000 A 
ATOM      7  N   UNL     1       2.083   7.288  19.560  0.00  0.00    +0.000 N 
ATOM      8  C   UNL     1       2.589   7.276  18.273  0.00  0.00    +0.000 A 
ATOM      9  C   UNL     1       2.288   8.509  17.724  0.00  0.00    +0.000 A 
ATOM     10  C   UNL     1       1.655   9.304  18.742  0.00  0.00    +0.000 A 
ATOM     11  N   UNL     1       1.216  10.598  18.702  0.00  0.00    +0.000 NA
ATOM     12  H   UNL     1       2.158   6.486  20.171  0.00  0.00    +0.000 HD
ENDROOT
BRANCH   8  13
ATOM     13  C   UNL     1       3.291   6.044  17.756  0.00  0.00    +0.000 A 
ATOM     14  N   UNL     1       2.564   4.913  17.804  0.00  0.00    +0.000 NA
ATOM     15  N   UNL     1       3.372   3.975  17.297  0.00  0.00    +0.000 N 
ATOM     16  C   UNL     1       4.580   4.440  16.864  0.00  0.00    +0.000 A 
ATOM     17  C   UNL     1       5.626   3.767  16.222  0.00  0.00    +0.000 A 
ATOM     18  C   UNL     1       6.781   4.497  15.943  0.00  0.00    +0.000 A 
ATOM     19  C   UNL     1       6.873   5.834  16.317  0.00  0.00    +0.000 A 
ATOM     20  C   UNL     1       5.796   6.500  16.944  0.00  0.00    +0.000 A 
ATOM     21  C   UNL     1       4.599   5.798  17.209  0.00  0.00    +0.000 A 
ATOM     22  H   UNL     1       3.047   3.017  17.279  0.00  0.00    +0.000 HD
ENDBRANCH   8  13
BRANCH   1  23
ATOM     23  S   UNL     1       1.116  13.637  20.564  0.00  0.00    +0.000 S 
ATOM     24  O   UNL     1       2.210  12.993  21.266  0.00  0.00    +0.000 OA
ATOM     25  O   UNL     1       0.211  14.480  21.311  0.00  0.00    +0.000 OA
BRANCH  23  30
ATOM     26  C   UNL     1       3.908  15.126  18.020  0.00  0.00    +0.000 A 
ATOM     27  C   UNL     1       3.362  16.332  17.600  0.00  0.00    +0.000 A 
ATOM     28  C   UNL     1       2.092  16.715  18.020  0.00  0.00    +0.000 A 
ATOM     29  C   UNL     1       1.338  15.916  18.901  0.00  0.00    +0.000 A 
ATOM     30  C   UNL     1       1.859  14.664  19.280  0.00  0.00    +0.000 A 
ATOM     31  C   UNL     1       3.148  14.282  18.835  0.00  0.00    +0.000 A 
BRANCH  26  33
ATOM     32  C   UNL     1       6.240  15.267  18.477  0.00  0.00    +0.000 C 
ATOM     33  O   UNL     1       5.186  14.924  17.589  0.00  0.00    +0.000 OA
ENDBRANCH  26  33
BRANCH  29  34
ATOM     34  O   UNL     1       0.126  16.331  19.386  0.00  0.00    +0.000 OA
ATOM     35  C   UNL     1      -0.000  17.735  19.635  0.00  0.00    +0.000 C 
ENDBRANCH  29  34
ENDBRANCH  23  30
ENDBRANCH   1  23
TORSDOF 5
ENDMDL
