MODEL 1
REMARK VINA RESULT:      -8.2      0.000      0.000
REMARK  Name = 
REMARK  6 active torsions:
REMARK  status: ('A' for Active; 'I' for Inactive)
REMARK    1  A    between atoms: C_2  and  C_22
REMARK    2  A    between atoms: N_3  and  C_4
REMARK    3  A    between atoms: C_6  and  N_7
REMARK    4  A    between atoms: N_7  and  C_8
REMARK    5  A    between atoms: C_8  and  C_9
REMARK    6  A    between atoms: C_16  and  C_17
REMARK                            x       y       z     vdW  Elec       q    Type
REMARK                         _______ _______ _______ _____ _____    ______ ____
ROOT
ATOM      1  C   UNL     1       3.102   5.481  19.749  0.00  0.00    +0.000 A 
ATOM      2  C   UNL     1       4.499   5.612  19.716  0.00  0.00    +0.000 A 
ATOM      3  C   UNL     1       5.336   4.582  19.269  0.00  0.00    +0.000 A 
ATOM      4  C   UNL     1       4.740   3.373  18.924  0.00  0.00    +0.000 A 
ATOM      5  C   UNL     1       3.349   3.202  18.941  0.00  0.00    +0.000 A 
ATOM      6  C   UNL     1       2.532   4.264  19.370  0.00  0.00    +0.000 A 
ENDROOT
BRANCH   1   9
ATOM      7  O   UNL     1       2.561   7.966  18.398  0.00  0.00    +0.000 OA
ATOM      8  C   UNL     1       2.066   7.733  19.494  0.00  0.00    +0.000 C 
ATOM      9  N   UNL     1       2.247   6.531  20.166  0.00  0.00    +0.000 N 
ATOM     10  H   UNL     1       1.647   6.369  20.967  0.00  0.00    +0.000 HD
BRANCH   8  11
ATOM     11  C   UNL     1       1.206   8.724  20.115  0.00  0.00    +0.000 A 
ATOM     12  C   UNL     1       0.802   8.698  21.442  0.00  0.00    +0.000 A 
ATOM     13  C   UNL     1      -0.078   9.759  21.775  0.00  0.00    +0.000 A 
ATOM     14  C   UNL     1      -0.327  10.566  20.690  0.00  0.00    +0.000 A 
ATOM     15  S   UNL     1       0.523  10.057  19.290  0.00  0.00    +0.000 S 
ENDBRANCH   8  11
ENDBRANCH   1   9
BRANCH   5  16
ATOM     16  C   UNL     1       2.758   1.891  18.490  0.00  0.00    +0.000 C 
ATOM     17  F   UNL     1       3.655   0.863  18.483  0.00  0.00    +0.000 F 
ATOM     18  F   UNL     1       1.727   1.481  19.278  0.00  0.00    +0.000 F 
ATOM     19  F   UNL     1       2.263   1.955  17.223  0.00  0.00    +0.000 F 
ENDBRANCH   5  16
BRANCH   3  20
ATOM     20  N   UNL     1       6.721   4.764  19.291  0.00  0.00    +0.000 N 
ATOM     21  H   UNL     1       7.088   4.902  20.228  0.00  0.00    +0.000 HD
BRANCH  20  22
ATOM     22  C   UNL     1       7.347   5.653  18.316  0.00  0.00    +0.000 C 
BRANCH  22  23
ATOM     23  C   UNL     1       6.756   5.431  16.946  0.00  0.00    +0.000 A 
ATOM     24  C   UNL     1       5.817   6.330  16.419  0.00  0.00    +0.000 A 
ATOM     25  C   UNL     1       5.259   6.118  15.157  0.00  0.00    +0.000 A 
ATOM     26  C   UNL     1       5.635   5.005  14.407  0.00  0.00    +0.000 A 
ATOM     27  C   UNL     1       6.580   4.113  14.911  0.00  0.00    +0.000 A 
ATOM     28  C   UNL     1       7.140   4.326  16.171  0.00  0.00    +0.000 A 
ENDBRANCH  22  23
ENDBRANCH  20  22
ENDBRANCH   3  20
TORSDOF 6
ENDMDL
MODEL 2
REMARK VINA RESULT:      -8.1      2.953      4.978
REMARK  Name = 
REMARK  6 active torsions:
REMARK  status: ('A' for Active; 'I' for Inactive)
REMARK    1  A    between atoms: C_2  and  C_22
REMARK    2  A    between atoms: N_3  and  C_4
REMARK    3  A    between atoms: C_6  and  N_7
REMARK    4  A    between atoms: N_7  and  C_8
REMARK    5  A    between atoms: C_8  and  C_9
REMARK    6  A    between atoms: C_16  and  C_17
REMARK                            x       y       z     vdW  Elec       q    Type
REMARK                         _______ _______ _______ _____ _____    ______ ____
ROOT
ATOM      1  C   UNL     1       3.603   6.552  17.869  0.00  0.00    +0.000 A 
ATOM      2  C   UNL     1       3.089   5.286  17.547  0.00  0.00    +0.000 A 
ATOM      3  C   UNL     1       3.916   4.180  17.314  0.00  0.00    +0.000 A 
ATOM      4  C   UNL     1       5.292   4.390  17.334  0.00  0.00    +0.000 A 
ATOM      5  C   UNL     1       5.845   5.638  17.652  0.00  0.00    +0.000 A 
ATOM      6  C   UNL     1       4.988   6.724  17.908  0.00  0.00    +0.000 A 
ENDROOT
BRANCH   1   9
ATOM      7  O   UNL     1       2.183   7.149  20.302  0.00  0.00    +0.000 OA
ATOM      8  C   UNL     1       2.069   7.873  19.322  0.00  0.00    +0.000 C 
ATOM      9  N   UNL     1       2.772   7.666  18.141  0.00  0.00    +0.000 N 
ATOM     10  H   UNL     1       2.751   8.422  17.467  0.00  0.00    +0.000 HD
BRANCH   8  11
ATOM     11  C   UNL     1       1.205   9.038  19.390  0.00  0.00    +0.000 A 
ATOM     12  C   UNL     1       0.913   9.868  18.318  0.00  0.00    +0.000 A 
ATOM     13  C   UNL     1       0.083  10.962  18.672  0.00  0.00    +0.000 A 
ATOM     14  C   UNL     1      -0.233  10.940  20.011  0.00  0.00    +0.000 A 
ATOM     15  S   UNL     1       0.446   9.589  20.819  0.00  0.00    +0.000 S 
ENDBRANCH   8  11
ENDBRANCH   1   9
BRANCH   5  16
ATOM     16  C   UNL     1       7.343   5.787  17.726  0.00  0.00    +0.000 C 
ATOM     17  F   UNL     1       8.021   4.669  17.336  0.00  0.00    +0.000 F 
ATOM     18  F   UNL     1       7.809   6.798  16.944  0.00  0.00    +0.000 F 
ATOM     19  F   UNL     1       7.775   6.056  18.989  0.00  0.00    +0.000 F 
ENDBRANCH   5  16
BRANCH   3  20
ATOM     20  N   UNL     1       3.343   2.955  16.966  0.00  0.00    +0.000 N 
ATOM     21  H   UNL     1       2.449   3.054  16.494  0.00  0.00    +0.000 HD
BRANCH  20  22
ATOM     22  C   UNL     1       3.336   1.861  17.935  0.00  0.00    +0.000 C 
BRANCH  22  23
ATOM     23  C   UNL     1       2.641   2.289  19.205  0.00  0.00    +0.000 A 
ATOM     24  C   UNL     1       3.357   2.406  20.405  0.00  0.00    +0.000 A 
ATOM     25  C   UNL     1       2.712   2.788  21.583  0.00  0.00    +0.000 A 
ATOM     26  C   UNL     1       1.344   3.058  21.574  0.00  0.00    +0.000 A 
ATOM     27  C   UNL     1       0.624   2.962  20.384  0.00  0.00    +0.000 A 
ATOM     28  C   UNL     1       1.269   2.583  19.205  0.00  0.00    +0.000 A 
ENDBRANCH  22  23
ENDBRANCH  20  22
ENDBRANCH   3  20
TORSDOF 6
ENDMDL
MODEL 3
REMARK VINA RESULT:      -8.1      0.787      1.499
REMARK  Name = 
REMARK  6 active torsions:
REMARK  status: ('A' for Active; 'I' for Inactive)
REMARK    1  A    between atoms: C_2  and  C_22
REMARK    2  A    between atoms: N_3  and  C_4
REMARK    3  A    between atoms: C_6  and  N_7
REMARK    4  A    between atoms: N_7  and  C_8
REMARK    5  A    between atoms: C_8  and  C_9
REMARK    6  A    between atoms: C_16  and  C_17
REMARK                            x       y       z     vdW  Elec       q    Type
REMARK                         _______ _______ _______ _____ _____    ______ ____
ROOT
ATOM      1  C   UNL     1       2.520   5.659  20.077  0.00  0.00    +0.000 A 
ATOM      2  C   UNL     1       3.920   5.622  19.985  0.00  0.00    +0.000 A 
ATOM      3  C   UNL     1       4.604   4.544  19.409  0.00  0.00    +0.000 A 
ATOM      4  C   UNL     1       3.848   3.453  18.990  0.00  0.00    +0.000 A 
ATOM      5  C   UNL     1       2.449   3.450  19.063  0.00  0.00    +0.000 A 
ATOM      6  C   UNL     1       1.788   4.559  19.623  0.00  0.00    +0.000 A 
ENDROOT
BRANCH   1   9
ATOM      7  O   UNL     1       2.055   8.236  18.879  0.00  0.00    +0.000 OA
ATOM      8  C   UNL     1       1.673   8.001  20.018  0.00  0.00    +0.000 C 
ATOM      9  N   UNL     1       1.820   6.761  20.626  0.00  0.00    +0.000 N 
ATOM     10  H   UNL     1       1.306   6.619  21.488  0.00  0.00    +0.000 HD
BRANCH   8  11
ATOM     11  C   UNL     1       0.986   9.037  20.768  0.00  0.00    +0.000 A 
ATOM     12  C   UNL     1       0.468   8.874  22.045  0.00  0.00    +0.000 A 
ATOM     13  C   UNL     1      -0.198  10.031  22.525  0.00  0.00    +0.000 A 
ATOM     14  C   UNL     1      -0.174  11.046  21.598  0.00  0.00    +0.000 A 
ATOM     15  S   UNL     1       0.674  10.609  20.173  0.00  0.00    +0.000 S 
ENDBRANCH   8  11
ENDBRANCH   1   9
BRANCH   5  16
ATOM     16  C   UNL     1       1.682   2.268  18.530  0.00  0.00    +0.000 C 
ATOM     17  F   UNL     1       0.348   2.509  18.376  0.00  0.00    +0.000 F 
ATOM     18  F   UNL     1       2.129   1.857  17.312  0.00  0.00    +0.000 F 
ATOM     19  F   UNL     1       1.766   1.184  19.350  0.00  0.00    +0.000 F 
ENDBRANCH   5  16
BRANCH   3  20
ATOM     20  N   UNL     1       6.000   4.554  19.377  0.00  0.00    +0.000 N 
ATOM     21  H   UNL     1       6.419   4.417  20.292  0.00  0.00    +0.000 HD
BRANCH  20  22
ATOM     22  C   UNL     1       6.697   5.577  18.600  0.00  0.00    +0.000 C 
BRANCH  22  23
ATOM     23  C   UNL     1       6.403   5.410  17.129  0.00  0.00    +0.000 A 
ATOM     24  C   UNL     1       7.024   4.394  16.388  0.00  0.00    +0.000 A 
ATOM     25  C   UNL     1       6.763   4.248  15.024  0.00  0.00    +0.000 A 
ATOM     26  C   UNL     1       5.877   5.115  14.386  0.00  0.00    +0.000 A 
ATOM     27  C   UNL     1       5.241   6.119  15.115  0.00  0.00    +0.000 A 
ATOM     28  C   UNL     1       5.499   6.264  16.479  0.00  0.00    +0.000 A 
ENDBRANCH  22  23
ENDBRANCH  20  22
ENDBRANCH   3  20
TORSDOF 6
ENDMDL
MODEL 4
REMARK VINA RESULT:      -8.1      0.736      1.240
REMARK  Name = 
REMARK  6 active torsions:
REMARK  status: ('A' for Active; 'I' for Inactive)
REMARK    1  A    between atoms: C_2  and  C_22
REMARK    2  A    between atoms: N_3  and  C_4
REMARK    3  A    between atoms: C_6  and  N_7
REMARK    4  A    between atoms: N_7  and  C_8
REMARK    5  A    between atoms: C_8  and  C_9
REMARK    6  A    between atoms: C_16  and  C_17
REMARK                            x       y       z     vdW  Elec       q    Type
REMARK                         _______ _______ _______ _____ _____    ______ ____
ROOT
ATOM      1  C   UNL     1       3.053   5.667  19.370  0.00  0.00    +0.000 A 
ATOM      2  C   UNL     1       4.447   5.783  19.484  0.00  0.00    +0.000 A 
ATOM      3  C   UNL     1       5.309   4.703  19.256  0.00  0.00    +0.000 A 
ATOM      4  C   UNL     1       4.732   3.466  18.983  0.00  0.00    +0.000 A 
ATOM      5  C   UNL     1       3.346   3.308  18.859  0.00  0.00    +0.000 A 
ATOM      6  C   UNL     1       2.506   4.417  19.068  0.00  0.00    +0.000 A 
ENDROOT
BRANCH   1   9
ATOM      7  O   UNL     1       2.895   8.099  17.837  0.00  0.00    +0.000 OA
ATOM      8  C   UNL     1       2.184   7.936  18.820  0.00  0.00    +0.000 C 
ATOM      9  N   UNL     1       2.177   6.763  19.564  0.00  0.00    +0.000 N 
ATOM     10  H   UNL     1       1.425   6.660  20.235  0.00  0.00    +0.000 HD
BRANCH   8  11
ATOM     11  C   UNL     1       1.260   8.984  19.215  0.00  0.00    +0.000 A 
ATOM     12  C   UNL     1       0.626   9.849  18.336  0.00  0.00    +0.000 A 
ATOM     13  C   UNL     1      -0.185  10.811  18.991  0.00  0.00    +0.000 A 
ATOM     14  C   UNL     1      -0.144  10.656  20.357  0.00  0.00    +0.000 A 
ATOM     15  S   UNL     1       0.845   9.339  20.834  0.00  0.00    +0.000 S 
ENDBRANCH   8  11
ENDBRANCH   1   9
BRANCH   5  16
ATOM     16  C   UNL     1       2.784   1.958  18.494  0.00  0.00    +0.000 C 
ATOM     17  F   UNL     1       1.785   1.541  19.323  0.00  0.00    +0.000 F 
ATOM     18  F   UNL     1       2.262   1.929  17.237  0.00  0.00    +0.000 F 
ATOM     19  F   UNL     1       3.727   0.976  18.534  0.00  0.00    +0.000 F 
ENDBRANCH   5  16
BRANCH   3  20
ATOM     20  N   UNL     1       6.686   4.876  19.417  0.00  0.00    +0.000 N 
ATOM     21  H   UNL     1       6.945   5.134  20.365  0.00  0.00    +0.000 HD
BRANCH  20  22
ATOM     22  C   UNL     1       7.440   5.627  18.416  0.00  0.00    +0.000 C 
BRANCH  22  23
ATOM     23  C   UNL     1       6.837   5.431  17.047  0.00  0.00    +0.000 A 
ATOM     24  C   UNL     1       5.919   6.359  16.532  0.00  0.00    +0.000 A 
ATOM     25  C   UNL     1       5.350   6.170  15.272  0.00  0.00    +0.000 A 
ATOM     26  C   UNL     1       5.692   5.054  14.511  0.00  0.00    +0.000 A 
ATOM     27  C   UNL     1       6.616   4.133  15.003  0.00  0.00    +0.000 A 
ATOM     28  C   UNL     1       7.188   4.322  16.263  0.00  0.00    +0.000 A 
ENDBRANCH  22  23
ENDBRANCH  20  22
ENDBRANCH   3  20
TORSDOF 6
ENDMDL
MODEL 5
REMARK VINA RESULT:      -8.0      2.506      4.621
REMARK  Name = 
REMARK  6 active torsions:
REMARK  status: ('A' for Active; 'I' for Inactive)
REMARK    1  A    between atoms: C_2  and  C_22
REMARK    2  A    between atoms: N_3  and  C_4
REMARK    3  A    between atoms: C_6  and  N_7
REMARK    4  A    between atoms: N_7  and  C_8
REMARK    5  A    between atoms: C_8  and  C_9
REMARK    6  A    between atoms: C_16  and  C_17
REMARK                            x       y       z     vdW  Elec       q    Type
REMARK                         _______ _______ _______ _____ _____    ______ ____
ROOT
ATOM      1  C   UNL     1       4.112   6.214  17.840  0.00  0.00    +0.000 A 
ATOM      2  C   UNL     1       4.383   5.254  18.828  0.00  0.00    +0.000 A 
ATOM      3  C   UNL     1       5.157   4.116  18.572  0.00  0.00    +0.000 A 
ATOM      4  C   UNL     1       5.596   3.917  17.267  0.00  0.00    +0.000 A 
ATOM      5  C   UNL     1       5.348   4.851  16.252  0.00  0.00    +0.000 A 
ATOM      6  C   UNL     1       4.590   5.999  16.546  0.00  0.00    +0.000 A 
ENDROOT
BRANCH   1   9
ATOM      7  O   UNL     1       2.116   6.620  19.876  0.00  0.00    +0.000 OA
ATOM      8  C   UNL     1       2.369   7.504  19.068  0.00  0.00    +0.000 C 
ATOM      9  N   UNL     1       3.359   7.386  18.101  0.00  0.00    +0.000 N 
ATOM     10  H   UNL     1       3.615   8.236  17.612  0.00  0.00    +0.000 HD
BRANCH   8  11
ATOM     11  C   UNL     1       1.650   8.763  19.138  0.00  0.00    +0.000 A 
ATOM     12  C   UNL     1       1.604   9.703  18.119  0.00  0.00    +0.000 A 
ATOM     13  C   UNL     1       0.872  10.867  18.469  0.00  0.00    +0.000 A 
ATOM     14  C   UNL     1       0.382  10.785  19.752  0.00  0.00    +0.000 A 
ATOM     15  S   UNL     1       0.781   9.299  20.509  0.00  0.00    +0.000 S 
ENDBRANCH   8  11
ENDBRANCH   1   9
BRANCH   5  16
ATOM     16  C   UNL     1       5.909   4.614  14.874  0.00  0.00    +0.000 C 
ATOM     17  F   UNL     1       5.061   4.980  13.870  0.00  0.00    +0.000 F 
ATOM     18  F   UNL     1       7.065   5.296  14.652  0.00  0.00    +0.000 F 
ATOM     19  F   UNL     1       6.196   3.301  14.650  0.00  0.00    +0.000 F 
ENDBRANCH   5  16
BRANCH   3  20
ATOM     20  N   UNL     1       5.363   3.182  19.590  0.00  0.00    +0.000 N 
ATOM     21  H   UNL     1       6.345   2.969  19.741  0.00  0.00    +0.000 HD
BRANCH  20  22
ATOM     22  C   UNL     1       4.525   1.987  19.653  0.00  0.00    +0.000 C 
BRANCH  22  23
ATOM     23  C   UNL     1       3.070   2.371  19.774  0.00  0.00    +0.000 A 
ATOM     24  C   UNL     1       2.191   2.183  18.697  0.00  0.00    +0.000 A 
ATOM     25  C   UNL     1       0.849   2.551  18.803  0.00  0.00    +0.000 A 
ATOM     26  C   UNL     1       0.369   3.110  19.986  0.00  0.00    +0.000 A 
ATOM     27  C   UNL     1       1.229   3.286  21.070  0.00  0.00    +0.000 A 
ATOM     28  C   UNL     1       2.570   2.916  20.966  0.00  0.00    +0.000 A 
ENDBRANCH  22  23
ENDBRANCH  20  22
ENDBRANCH   3  20
TORSDOF 6
ENDMDL
MODEL 6
REMARK VINA RESULT:      -8.0      0.737      1.375
REMARK  Name = 
REMARK  6 active torsions:
REMARK  status: ('A' for Active; 'I' for Inactive)
REMARK    1  A    between atoms: C_2  and  C_22
REMARK    2  A    between atoms: N_3  and  C_4
REMARK    3  A    between atoms: C_6  and  N_7
REMARK    4  A    between atoms: N_7  and  C_8
REMARK    5  A    between atoms: C_8  and  C_9
REMARK    6  A    between atoms: C_16  and  C_17
REMARK                            x       y       z     vdW  Elec       q    Type
REMARK                         _______ _______ _______ _____ _____    ______ ____
ROOT
ATOM      1  C   UNL     1       3.091   5.671  19.396  0.00  0.00    +0.000 A 
ATOM      2  C   UNL     1       4.487   5.773  19.499  0.00  0.00    +0.000 A 
ATOM      3  C   UNL     1       5.337   4.686  19.263  0.00  0.00    +0.000 A 
ATOM      4  C   UNL     1       4.746   3.455  18.993  0.00  0.00    +0.000 A 
ATOM      5  C   UNL     1       3.357   3.310  18.879  0.00  0.00    +0.000 A 
ATOM      6  C   UNL     1       2.530   4.428  19.096  0.00  0.00    +0.000 A 
ENDROOT
BRANCH   1   9
ATOM      7  O   UNL     1       2.827   8.033  17.770  0.00  0.00    +0.000 OA
ATOM      8  C   UNL     1       2.183   7.915  18.804  0.00  0.00    +0.000 C 
ATOM      9  N   UNL     1       2.227   6.775  19.598  0.00  0.00    +0.000 N 
ATOM     10  H   UNL     1       1.521   6.703  20.321  0.00  0.00    +0.000 HD
BRANCH   8  11
ATOM     11  C   UNL     1       1.285   8.980  19.212  0.00  0.00    +0.000 A 
ATOM     12  C   UNL     1       0.692   9.887  18.346  0.00  0.00    +0.000 A 
ATOM     13  C   UNL     1      -0.101  10.855  19.014  0.00  0.00    +0.000 A 
ATOM     14  C   UNL     1      -0.088  10.664  20.375  0.00  0.00    +0.000 A 
ATOM     15  S   UNL     1       0.853   9.305  20.833  0.00  0.00    +0.000 S 
ENDBRANCH   8  11
ENDBRANCH   1   9
BRANCH   5  16
ATOM     16  C   UNL     1       2.779   1.966  18.517  0.00  0.00    +0.000 C 
ATOM     17  F   UNL     1       3.691   0.953  18.554  0.00  0.00    +0.000 F 
ATOM     18  F   UNL     1       1.768   1.588  19.345  0.00  0.00    +0.000 F 
ATOM     19  F   UNL     1       2.262   1.948  17.257  0.00  0.00    +0.000 F 
ENDBRANCH   5  16
BRANCH   3  20
ATOM     20  N   UNL     1       6.716   4.846  19.413  0.00  0.00    +0.000 N 
ATOM     21  H   UNL     1       6.985   5.107  20.358  0.00  0.00    +0.000 HD
BRANCH  20  22
ATOM     22  C   UNL     1       7.472   5.581  18.402  0.00  0.00    +0.000 C 
BRANCH  22  23
ATOM     23  C   UNL     1       6.835   5.411  17.044  0.00  0.00    +0.000 A 
ATOM     24  C   UNL     1       7.146   4.302  16.244  0.00  0.00    +0.000 A 
ATOM     25  C   UNL     1       6.568   4.152  14.982  0.00  0.00    +0.000 A 
ATOM     26  C   UNL     1       5.673   5.108  14.506  0.00  0.00    +0.000 A 
ATOM     27  C   UNL     1       5.343   6.207  15.298  0.00  0.00    +0.000 A 
ATOM     28  C   UNL     1       5.918   6.356  16.561  0.00  0.00    +0.000 A 
ENDBRANCH  22  23
ENDBRANCH  20  22
ENDBRANCH   3  20
TORSDOF 6
ENDMDL
MODEL 7
REMARK VINA RESULT:      -8.0      2.879      4.875
REMARK  Name = 
REMARK  6 active torsions:
REMARK  status: ('A' for Active; 'I' for Inactive)
REMARK    1  A    between atoms: C_2  and  C_22
REMARK    2  A    between atoms: N_3  and  C_4
REMARK    3  A    between atoms: C_6  and  N_7
REMARK    4  A    between atoms: N_7  and  C_8
REMARK    5  A    between atoms: C_8  and  C_9
REMARK    6  A    between atoms: C_16  and  C_17
REMARK                            x       y       z     vdW  Elec       q    Type
REMARK                         _______ _______ _______ _____ _____    ______ ____
ROOT
ATOM      1  C   UNL     1       3.579   6.458  17.799  0.00  0.00    +0.000 A 
ATOM      2  C   UNL     1       2.962   5.216  17.582  0.00  0.00    +0.000 A 
ATOM      3  C   UNL     1       3.670   4.099  17.125  0.00  0.00    +0.000 A 
ATOM      4  C   UNL     1       5.015   4.274  16.812  0.00  0.00    +0.000 A 
ATOM      5  C   UNL     1       5.670   5.496  17.016  0.00  0.00    +0.000 A 
ATOM      6  C   UNL     1       4.937   6.595  17.501  0.00  0.00    +0.000 A 
ENDROOT
BRANCH   1   9
ATOM      7  O   UNL     1       2.095   6.677  20.257  0.00  0.00    +0.000 OA
ATOM      8  C   UNL     1       2.132   7.612  19.468  0.00  0.00    +0.000 C 
ATOM      9  N   UNL     1       2.876   7.584  18.295  0.00  0.00    +0.000 N 
ATOM     10  H   UNL     1       2.989   8.468  17.813  0.00  0.00    +0.000 HD
BRANCH   8  11
ATOM     11  C   UNL     1       1.415   8.836  19.776  0.00  0.00    +0.000 A 
ATOM     12  C   UNL     1       0.831   9.121  21.002  0.00  0.00    +0.000 A 
ATOM     13  C   UNL     1       0.150  10.365  21.017  0.00  0.00    +0.000 A 
ATOM     14  C   UNL     1       0.227  10.995  19.797  0.00  0.00    +0.000 A 
ATOM     15  S   UNL     1       1.143  10.099  18.657  0.00  0.00    +0.000 S 
ENDBRANCH   8  11
ENDBRANCH   1   9
BRANCH   5  16
ATOM     16  C   UNL     1       7.144   5.605  16.724  0.00  0.00    +0.000 C 
ATOM     17  F   UNL     1       7.895   4.654  17.349  0.00  0.00    +0.000 F 
ATOM     18  F   UNL     1       7.426   5.491  15.397  0.00  0.00    +0.000 F 
ATOM     19  F   UNL     1       7.663   6.801  17.119  0.00  0.00    +0.000 F 
ENDBRANCH   5  16
BRANCH   3  20
ATOM     20  N   UNL     1       2.991   2.900  16.899  0.00  0.00    +0.000 N 
ATOM     21  H   UNL     1       2.042   3.038  16.566  0.00  0.00    +0.000 HD
BRANCH  20  22
ATOM     22  C   UNL     1       3.079   1.824  17.883  0.00  0.00    +0.000 C 
BRANCH  22  23
ATOM     23  C   UNL     1       2.497   2.270  19.202  0.00  0.00    +0.000 A 
ATOM     24  C   UNL     1       1.141   2.614  19.304  0.00  0.00    +0.000 A 
ATOM     25  C   UNL     1       0.606   3.040  20.522  0.00  0.00    +0.000 A 
ATOM     26  C   UNL     1       1.420   3.125  21.650  0.00  0.00    +0.000 A 
ATOM     27  C   UNL     1       2.765   2.769  21.566  0.00  0.00    +0.000 A 
ATOM     28  C   UNL     1       3.300   2.341  20.350  0.00  0.00    +0.000 A 
ENDBRANCH  22  23
ENDBRANCH  20  22
ENDBRANCH   3  20
TORSDOF 6
ENDMDL
MODEL 8
REMARK VINA RESULT:      -8.0      2.952      4.960
REMARK  Name = 
REMARK  6 active torsions:
REMARK  status: ('A' for Active; 'I' for Inactive)
REMARK    1  A    between atoms: C_2  and  C_22
REMARK    2  A    between atoms: N_3  and  C_4
REMARK    3  A    between atoms: C_6  and  N_7
REMARK    4  A    between atoms: N_7  and  C_8
REMARK    5  A    between atoms: C_8  and  C_9
REMARK    6  A    between atoms: C_16  and  C_17
REMARK                            x       y       z     vdW  Elec       q    Type
REMARK                         _______ _______ _______ _____ _____    ______ ____
ROOT
ATOM      1  C   UNL     1       3.604   6.473  17.673  0.00  0.00    +0.000 A 
ATOM      2  C   UNL     1       3.016   5.210  17.505  0.00  0.00    +0.000 A 
ATOM      3  C   UNL     1       3.762   4.076  17.164  0.00  0.00    +0.000 A 
ATOM      4  C   UNL     1       5.120   4.252  16.914  0.00  0.00    +0.000 A 
ATOM      5  C   UNL     1       5.747   5.495  17.071  0.00  0.00    +0.000 A 
ATOM      6  C   UNL     1       4.974   6.611  17.441  0.00  0.00    +0.000 A 
ENDROOT
BRANCH   1   9
ATOM      7  O   UNL     1       2.212   6.938  20.150  0.00  0.00    +0.000 OA
ATOM      8  C   UNL     1       2.165   7.762  19.247  0.00  0.00    +0.000 C 
ATOM      9  N   UNL     1       2.860   7.618  18.052  0.00  0.00    +0.000 N 
ATOM     10  H   UNL     1       2.905   8.435  17.456  0.00  0.00    +0.000 HD
BRANCH   8  11
ATOM     11  C   UNL     1       1.394   8.979  19.429  0.00  0.00    +0.000 A 
ATOM     12  C   UNL     1       1.205   9.946  18.453  0.00  0.00    +0.000 A 
ATOM     13  C   UNL     1       0.453  11.058  18.912  0.00  0.00    +0.000 A 
ATOM     14  C   UNL     1       0.092  10.911  20.231  0.00  0.00    +0.000 A 
ATOM     15  S   UNL     1       0.635   9.425  20.893  0.00  0.00    +0.000 S 
ENDBRANCH   8  11
ENDBRANCH   1   9
BRANCH   5  16
ATOM     16  C   UNL     1       7.234   5.609  16.853  0.00  0.00    +0.000 C 
ATOM     17  F   UNL     1       7.765   6.774  17.321  0.00  0.00    +0.000 F 
ATOM     18  F   UNL     1       7.931   4.610  17.461  0.00  0.00    +0.000 F 
ATOM     19  F   UNL     1       7.569   5.556  15.535  0.00  0.00    +0.000 F 
ENDBRANCH   5  16
BRANCH   3  20
ATOM     20  N   UNL     1       3.112   2.854  16.981  0.00  0.00    +0.000 N 
ATOM     21  H   UNL     1       2.158   2.958  16.647  0.00  0.00    +0.000 HD
BRANCH  20  22
ATOM     22  C   UNL     1       3.228   1.815  18.001  0.00  0.00    +0.000 C 
BRANCH  22  23
ATOM     23  C   UNL     1       2.567   2.260  19.283  0.00  0.00    +0.000 A 
ATOM     24  C   UNL     1       1.201   2.578  19.308  0.00  0.00    +0.000 A 
ATOM     25  C   UNL     1       0.593   3.003  20.490  0.00  0.00    +0.000 A 
ATOM     26  C   UNL     1       1.342   3.114  21.661  0.00  0.00    +0.000 A 
ATOM     27  C   UNL     1       2.696   2.784  21.653  0.00  0.00    +0.000 A 
ATOM     28  C   UNL     1       3.305   2.356  20.472  0.00  0.00    +0.000 A 
ENDBRANCH  22  23
ENDBRANCH  20  22
ENDBRANCH   3  20
TORSDOF 6
ENDMDL
MODEL 9
REMARK VINA RESULT:      -8.0      0.897      1.665
REMARK  Name = 
REMARK  6 active torsions:
REMARK  status: ('A' for Active; 'I' for Inactive)
REMARK    1  A    between atoms: C_2  and  C_22
REMARK    2  A    between atoms: N_3  and  C_4
REMARK    3  A    between atoms: C_6  and  N_7
REMARK    4  A    between atoms: N_7  and  C_8
REMARK    5  A    between atoms: C_8  and  C_9
REMARK    6  A    between atoms: C_16  and  C_17
REMARK                            x       y       z     vdW  Elec       q    Type
REMARK                         _______ _______ _______ _____ _____    ______ ____
ROOT
ATOM      1  C   UNL     1       2.780   5.848  19.688  0.00  0.00    +0.000 A 
ATOM      2  C   UNL     1       4.179   5.733  19.680  0.00  0.00    +0.000 A 
ATOM      3  C   UNL     1       4.831   4.561  19.278  0.00  0.00    +0.000 A 
ATOM      4  C   UNL     1       4.039   3.464  18.953  0.00  0.00    +0.000 A 
ATOM      5  C   UNL     1       2.640   3.537  18.946  0.00  0.00    +0.000 A 
ATOM      6  C   UNL     1       2.013   4.737  19.330  0.00  0.00    +0.000 A 
ENDROOT
BRANCH   1   9
ATOM      7  O   UNL     1       2.107   8.093  18.015  0.00  0.00    +0.000 OA
ATOM      8  C   UNL     1       1.864   8.116  19.214  0.00  0.00    +0.000 C 
ATOM      9  N   UNL     1       2.115   7.042  20.059  0.00  0.00    +0.000 N 
ATOM     10  H   UNL     1       1.706   7.093  20.985  0.00  0.00    +0.000 HD
BRANCH   8  11
ATOM     11  C   UNL     1       1.236   9.290  19.793  0.00  0.00    +0.000 A 
ATOM     12  C   UNL     1       1.026  10.485  19.120  0.00  0.00    +0.000 A 
ATOM     13  C   UNL     1       0.439  11.486  19.936  0.00  0.00    +0.000 A 
ATOM     14  C   UNL     1       0.220  11.028  21.215  0.00  0.00    +0.000 A 
ATOM     15  S   UNL     1       0.695   9.392  21.411  0.00  0.00    +0.000 S 
ENDBRANCH   8  11
ENDBRANCH   1   9
BRANCH   5  16
ATOM     16  C   UNL     1       1.837   2.336  18.518  0.00  0.00    +0.000 C 
ATOM     17  F   UNL     1       0.508   2.598  18.358  0.00  0.00    +0.000 F 
ATOM     18  F   UNL     1       2.260   1.816  17.334  0.00  0.00    +0.000 F 
ATOM     19  F   UNL     1       1.904   1.319  19.422  0.00  0.00    +0.000 F 
ENDBRANCH   5  16
BRANCH   3  20
ATOM     20  N   UNL     1       6.226   4.500  19.324  0.00  0.00    +0.000 N 
ATOM     21  H   UNL     1       6.591   4.459  20.271  0.00  0.00    +0.000 HD
BRANCH  20  22
ATOM     22  C   UNL     1       7.015   5.382  18.467  0.00  0.00    +0.000 C 
BRANCH  22  23
ATOM     23  C   UNL     1       6.550   5.278  17.035  0.00  0.00    +0.000 A 
ATOM     24  C   UNL     1       6.917   4.179  16.243  0.00  0.00    +0.000 A 
ATOM     25  C   UNL     1       6.498   4.090  14.915  0.00  0.00    +0.000 A 
ATOM     26  C   UNL     1       5.707   5.096  14.363  0.00  0.00    +0.000 A 
ATOM     27  C   UNL     1       5.321   6.184  15.144  0.00  0.00    +0.000 A 
ATOM     28  C   UNL     1       5.737   6.274  16.473  0.00  0.00    +0.000 A 
ENDBRANCH  22  23
ENDBRANCH  20  22
ENDBRANCH   3  20
TORSDOF 6
ENDMDL
