MODEL 1
REMARK VINA RESULT:      -7.2      0.000      0.000
REMARK  Name = 
REMARK  9 active torsions:
REMARK  status: ('A' for Active; 'I' for Inactive)
REMARK    1  A    between atoms: C_1  and  C_2
REMARK    2  A    between atoms: C_2  and  C_3
REMARK    3  A    between atoms: C_3  and  C_4
REMARK    4  A    between atoms: C_4  and  C_5
REMARK    5  A    between atoms: C_5  and  N_6
REMARK    6  A    between atoms: C_7  and  C_8
REMARK    7  A    between atoms: C_9  and  C_10
REMARK    8  A    between atoms: C_10  and  C_12
REMARK    9  A    between atoms: C_12  and  C_13
REMARK                            x       y       z     vdW  Elec       q    Type
REMARK                         _______ _______ _______ _____ _____    ______ ____
ROOT
ATOM      1  N   UNL     1       3.189   4.712  20.044  0.00  0.00    +0.000 N 
ATOM      2  C   UNL     1       4.088   3.999  19.271  0.00  0.00    +0.000 A 
ATOM      3  C   UNL     1       4.622   2.646  19.625  0.00  0.00    +0.000 C 
ATOM      4  C   UNL     1       4.399   4.782  18.154  0.00  0.00    +0.000 A 
ATOM      5  C   UNL     1       3.666   6.004  18.272  0.00  0.00    +0.000 A 
ATOM      6  C   UNL     1       3.524   7.166  17.473  0.00  0.00    +0.000 A 
ATOM      7  C   UNL     1       2.723   8.231  17.894  0.00  0.00    +0.000 A 
ATOM      8  C   UNL     1       2.045   8.160  19.098  0.00  0.00    +0.000 A 
ATOM      9  C   UNL     1       2.155   7.031  19.910  0.00  0.00    +0.000 A 
ATOM     10  C   UNL     1       2.954   5.953  19.473  0.00  0.00    +0.000 A 
ENDROOT
BRANCH   4  11
ATOM     11  C   UNL     1       5.328   4.370  17.080  0.00  0.00    +0.000 C 
ATOM     12  O   UNL     1       4.905   3.940  16.005  0.00  0.00    +0.000 OA
BRANCH  11  13
ATOM     13  C   UNL     1       6.831   4.444  17.324  0.00  0.00    +0.000 C 
BRANCH  13  14
ATOM     14  C   UNL     1       7.368   5.801  17.741  0.00  0.00    +0.000 A 
ATOM     15  C   UNL     1       8.042   6.013  18.952  0.00  0.00    +0.000 A 
ATOM     16  C   UNL     1       8.524   7.282  19.289  0.00  0.00    +0.000 A 
ATOM     17  C   UNL     1       8.349   8.348  18.412  0.00  0.00    +0.000 A 
ATOM     18 BR   UNL     1       8.966  10.071  18.885  0.00  0.00    +0.000 Br
ATOM     19  C   UNL     1       7.719   8.151  17.186  0.00  0.00    +0.000 A 
ATOM     20  C   UNL     1       7.238   6.883  16.850  0.00  0.00    +0.000 A 
ENDBRANCH  13  14
ENDBRANCH  11  13
ENDBRANCH   4  11
BRANCH   1  21
ATOM     21  C   UNL     1       2.570   4.292  21.300  0.00  0.00    +0.000 C 
BRANCH  21  22
ATOM     22  C   UNL     1       1.511   3.203  21.117  0.00  0.00    +0.000 C 
BRANCH  22  23
ATOM     23  C   UNL     1       0.451   3.622  20.101  0.00  0.00    +0.000 C 
BRANCH  23  25
ATOM     24  C   UNL     1       1.485   1.594  19.024  0.00  0.00    +0.000 C 
ATOM     25  C   UNL     1       0.549   2.775  18.832  0.00  0.00    +0.000 C 
ENDBRANCH  23  25
ENDBRANCH  22  23
ENDBRANCH  21  22
ENDBRANCH   1  21
TORSDOF 7
ENDMDL
MODEL 2
REMARK VINA RESULT:      -7.1      2.630      6.607
REMARK  Name = 
REMARK  9 active torsions:
REMARK  status: ('A' for Active; 'I' for Inactive)
REMARK    1  A    between atoms: C_1  and  C_2
REMARK    2  A    between atoms: C_2  and  C_3
REMARK    3  A    between atoms: C_3  and  C_4
REMARK    4  A    between atoms: C_4  and  C_5
REMARK    5  A    between atoms: C_5  and  N_6
REMARK    6  A    between atoms: C_7  and  C_8
REMARK    7  A    between atoms: C_9  and  C_10
REMARK    8  A    between atoms: C_10  and  C_12
REMARK    9  A    between atoms: C_12  and  C_13
REMARK                            x       y       z     vdW  Elec       q    Type
REMARK                         _______ _______ _______ _____ _____    ______ ____
ROOT
ATOM      1  N   UNL     1       6.771   5.408  17.269  0.00  0.00    +0.000 N 
ATOM      2  C   UNL     1       5.729   4.884  18.013  0.00  0.00    +0.000 A 
ATOM      3  C   UNL     1       5.535   5.118  19.479  0.00  0.00    +0.000 C 
ATOM      4  C   UNL     1       4.945   4.107  17.154  0.00  0.00    +0.000 A 
ATOM      5  C   UNL     1       5.547   4.165  15.858  0.00  0.00    +0.000 A 
ATOM      6  C   UNL     1       5.229   3.633  14.583  0.00  0.00    +0.000 A 
ATOM      7  C   UNL     1       6.061   3.861  13.484  0.00  0.00    +0.000 A 
ATOM      8  C   UNL     1       7.208   4.622  13.625  0.00  0.00    +0.000 A 
ATOM      9  C   UNL     1       7.553   5.167  14.862  0.00  0.00    +0.000 A 
ATOM     10  C   UNL     1       6.701   4.945  15.964  0.00  0.00    +0.000 A 
ENDROOT
BRANCH   4  11
ATOM     11  C   UNL     1       3.727   3.378  17.567  0.00  0.00    +0.000 C 
ATOM     12  O   UNL     1       3.784   2.203  17.936  0.00  0.00    +0.000 OA
BRANCH  11  13
ATOM     13  C   UNL     1       2.376   4.081  17.497  0.00  0.00    +0.000 C 
BRANCH  13  14
ATOM     14  C   UNL     1       2.176   5.230  18.468  0.00  0.00    +0.000 A 
ATOM     15  C   UNL     1       2.326   6.574  18.097  0.00  0.00    +0.000 A 
ATOM     16  C   UNL     1       2.125   7.599  19.028  0.00  0.00    +0.000 A 
ATOM     17  C   UNL     1       1.758   7.289  20.334  0.00  0.00    +0.000 A 
ATOM     18 BR   UNL     1       1.525   8.672  21.602  0.00  0.00    +0.000 Br
ATOM     19  C   UNL     1       1.565   5.964  20.713  0.00  0.00    +0.000 A 
ATOM     20  C   UNL     1       1.765   4.941  19.782  0.00  0.00    +0.000 A 
ENDBRANCH  13  14
ENDBRANCH  11  13
ENDBRANCH   4  11
BRANCH   1  21
ATOM     21  C   UNL     1       7.838   6.292  17.735  0.00  0.00    +0.000 C 
BRANCH  21  22
ATOM     22  C   UNL     1       7.454   7.773  17.699  0.00  0.00    +0.000 C 
BRANCH  22  23
ATOM     23  C   UNL     1       8.422   8.620  18.522  0.00  0.00    +0.000 C 
BRANCH  23  25
ATOM     24  C   UNL     1       9.412  10.918  18.806  0.00  0.00    +0.000 C 
ATOM     25  C   UNL     1       8.578  10.014  17.914  0.00  0.00    +0.000 C 
ENDBRANCH  23  25
ENDBRANCH  22  23
ENDBRANCH  21  22
ENDBRANCH   1  21
TORSDOF 7
ENDMDL
MODEL 3
REMARK VINA RESULT:      -7.1      3.412      6.460
REMARK  Name = 
REMARK  9 active torsions:
REMARK  status: ('A' for Active; 'I' for Inactive)
REMARK    1  A    between atoms: C_1  and  C_2
REMARK    2  A    between atoms: C_2  and  C_3
REMARK    3  A    between atoms: C_3  and  C_4
REMARK    4  A    between atoms: C_4  and  C_5
REMARK    5  A    between atoms: C_5  and  N_6
REMARK    6  A    between atoms: C_7  and  C_8
REMARK    7  A    between atoms: C_9  and  C_10
REMARK    8  A    between atoms: C_10  and  C_12
REMARK    9  A    between atoms: C_12  and  C_13
REMARK                            x       y       z     vdW  Elec       q    Type
REMARK                         _______ _______ _______ _____ _____    ______ ____
ROOT
ATOM      1  N   UNL     1       4.808   4.723  17.360  0.00  0.00    +0.000 N 
ATOM      2  C   UNL     1       4.533   6.050  17.634  0.00  0.00    +0.000 A 
ATOM      3  C   UNL     1       5.503   7.174  17.439  0.00  0.00    +0.000 C 
ATOM      4  C   UNL     1       3.227   6.117  18.132  0.00  0.00    +0.000 A 
ATOM      5  C   UNL     1       2.713   4.783  18.162  0.00  0.00    +0.000 A 
ATOM      6  C   UNL     1       1.474   4.197  18.522  0.00  0.00    +0.000 A 
ATOM      7  C   UNL     1       1.291   2.813  18.458  0.00  0.00    +0.000 A 
ATOM      8  C   UNL     1       2.321   1.993  18.032  0.00  0.00    +0.000 A 
ATOM      9  C   UNL     1       3.553   2.533  17.663  0.00  0.00    +0.000 A 
ATOM     10  C   UNL     1       3.727   3.932  17.716  0.00  0.00    +0.000 A 
ENDROOT
BRANCH   4  11
ATOM     11  C   UNL     1       2.554   7.368  18.542  0.00  0.00    +0.000 C 
ATOM     12  O   UNL     1       2.291   7.591  19.725  0.00  0.00    +0.000 OA
BRANCH  11  13
ATOM     13  C   UNL     1       2.144   8.379  17.475  0.00  0.00    +0.000 C 
BRANCH  13  14
ATOM     14  C   UNL     1       1.473   9.642  17.983  0.00  0.00    +0.000 A 
ATOM     15  C   UNL     1       2.184  10.812  18.287  0.00  0.00    +0.000 A 
ATOM     16  C   UNL     1       1.519  11.954  18.746  0.00  0.00    +0.000 A 
ATOM     17  C   UNL     1       0.135  11.940  18.892  0.00  0.00    +0.000 A 
ATOM     18 BR   UNL     1      -0.758  13.470  19.550  0.00  0.00    +0.000 Br
ATOM     19  C   UNL     1      -0.594  10.802  18.558  0.00  0.00    +0.000 A 
ATOM     20  C   UNL     1       0.071   9.663  18.099  0.00  0.00    +0.000 A 
ENDBRANCH  13  14
ENDBRANCH  11  13
ENDBRANCH   4  11
BRANCH   1  21
ATOM     21  C   UNL     1       6.044   4.168  16.810  0.00  0.00    +0.000 C 
BRANCH  21  22
ATOM     22  C   UNL     1       6.410   4.747  15.442  0.00  0.00    +0.000 C 
BRANCH  22  23
ATOM     23  C   UNL     1       5.453   4.257  14.357  0.00  0.00    +0.000 C 
BRANCH  23  25
ATOM     24  C   UNL     1       5.299   3.144  12.103  0.00  0.00    +0.000 C 
ATOM     25  C   UNL     1       6.224   3.786  13.124  0.00  0.00    +0.000 C 
ENDBRANCH  23  25
ENDBRANCH  22  23
ENDBRANCH  21  22
ENDBRANCH   1  21
TORSDOF 7
ENDMDL
MODEL 4
REMARK VINA RESULT:      -7.0      3.392      6.494
REMARK  Name = 
REMARK  9 active torsions:
REMARK  status: ('A' for Active; 'I' for Inactive)
REMARK    1  A    between atoms: C_1  and  C_2
REMARK    2  A    between atoms: C_2  and  C_3
REMARK    3  A    between atoms: C_3  and  C_4
REMARK    4  A    between atoms: C_4  and  C_5
REMARK    5  A    between atoms: C_5  and  N_6
REMARK    6  A    between atoms: C_7  and  C_8
REMARK    7  A    between atoms: C_9  and  C_10
REMARK    8  A    between atoms: C_10  and  C_12
REMARK    9  A    between atoms: C_12  and  C_13
REMARK                            x       y       z     vdW  Elec       q    Type
REMARK                         _______ _______ _______ _____ _____    ______ ____
ROOT
ATOM      1  N   UNL     1       4.392   4.686  17.314  0.00  0.00    +0.000 N 
ATOM      2  C   UNL     1       4.158   6.034  17.517  0.00  0.00    +0.000 A 
ATOM      3  C   UNL     1       5.072   7.130  17.063  0.00  0.00    +0.000 C 
ATOM      4  C   UNL     1       2.956   6.154  18.223  0.00  0.00    +0.000 A 
ATOM      5  C   UNL     1       2.465   4.831  18.455  0.00  0.00    +0.000 A 
ATOM      6  C   UNL     1       1.310   4.287  19.071  0.00  0.00    +0.000 A 
ATOM      7  C   UNL     1       1.130   2.904  19.158  0.00  0.00    +0.000 A 
ATOM      8  C   UNL     1       2.077   2.043  18.634  0.00  0.00    +0.000 A 
ATOM      9  C   UNL     1       3.224   2.540  18.015  0.00  0.00    +0.000 A 
ATOM     10  C   UNL     1       3.394   3.937  17.917  0.00  0.00    +0.000 A 
ENDROOT
BRANCH   4  11
ATOM     11  C   UNL     1       2.353   7.440  18.633  0.00  0.00    +0.000 C 
ATOM     12  O   UNL     1       2.202   7.721  19.823  0.00  0.00    +0.000 OA
BRANCH  11  13
ATOM     13  C   UNL     1       1.877   8.415  17.562  0.00  0.00    +0.000 C 
BRANCH  13  14
ATOM     14  C   UNL     1       1.318   9.733  18.067  0.00  0.00    +0.000 A 
ATOM     15  C   UNL     1      -0.024   9.897  18.441  0.00  0.00    +0.000 A 
ATOM     16  C   UNL     1      -0.490  11.131  18.906  0.00  0.00    +0.000 A 
ATOM     17  C   UNL     1       0.384  12.208  19.014  0.00  0.00    +0.000 A 
ATOM     18 BR   UNL     1      -0.256  13.886  19.605  0.00  0.00    +0.000 Br
ATOM     19  C   UNL     1       1.728  12.056  18.686  0.00  0.00    +0.000 A 
ATOM     20  C   UNL     1       2.193  10.824  18.222  0.00  0.00    +0.000 A 
ENDBRANCH  13  14
ENDBRANCH  11  13
ENDBRANCH   4  11
BRANCH   1  21
ATOM     21  C   UNL     1       5.520   4.077  16.611  0.00  0.00    +0.000 C 
BRANCH  21  22
ATOM     22  C   UNL     1       5.258   3.866  15.118  0.00  0.00    +0.000 C 
BRANCH  22  23
ATOM     23  C   UNL     1       6.229   4.678  14.263  0.00  0.00    +0.000 C 
BRANCH  23  25
ATOM     24  C   UNL     1       5.421   3.354  12.280  0.00  0.00    +0.000 C 
ATOM     25  C   UNL     1       6.635   3.898  13.012  0.00  0.00    +0.000 C 
ENDBRANCH  23  25
ENDBRANCH  22  23
ENDBRANCH  21  22
ENDBRANCH   1  21
TORSDOF 7
ENDMDL
MODEL 5
REMARK VINA RESULT:      -6.9      3.171      6.577
REMARK  Name = 
REMARK  9 active torsions:
REMARK  status: ('A' for Active; 'I' for Inactive)
REMARK    1  A    between atoms: C_1  and  C_2
REMARK    2  A    between atoms: C_2  and  C_3
REMARK    3  A    between atoms: C_3  and  C_4
REMARK    4  A    between atoms: C_4  and  C_5
REMARK    5  A    between atoms: C_5  and  N_6
REMARK    6  A    between atoms: C_7  and  C_8
REMARK    7  A    between atoms: C_9  and  C_10
REMARK    8  A    between atoms: C_10  and  C_12
REMARK    9  A    between atoms: C_12  and  C_13
REMARK                            x       y       z     vdW  Elec       q    Type
REMARK                         _______ _______ _______ _____ _____    ______ ____
ROOT
ATOM      1  N   UNL     1       4.190   5.025  18.243  0.00  0.00    +0.000 N 
ATOM      2  C   UNL     1       3.750   6.331  18.115  0.00  0.00    +0.000 A 
ATOM      3  C   UNL     1       4.301   7.317  17.133  0.00  0.00    +0.000 C 
ATOM      4  C   UNL     1       2.746   6.534  19.068  0.00  0.00    +0.000 A 
ATOM      5  C   UNL     1       2.591   5.310  19.791  0.00  0.00    +0.000 A 
ATOM      6  C   UNL     1       1.740   4.866  20.835  0.00  0.00    +0.000 A 
ATOM      7  C   UNL     1       1.859   3.575  21.355  0.00  0.00    +0.000 A 
ATOM      8  C   UNL     1       2.809   2.705  20.850  0.00  0.00    +0.000 A 
ATOM      9  C   UNL     1       3.660   3.102  19.820  0.00  0.00    +0.000 A 
ATOM     10  C   UNL     1       3.526   4.402  19.288  0.00  0.00    +0.000 A 
ENDROOT
BRANCH   4  11
ATOM     11  C   UNL     1       2.014   7.806  19.251  0.00  0.00    +0.000 C 
ATOM     12  O   UNL     1       1.737   8.224  20.377  0.00  0.00    +0.000 OA
BRANCH  11  13
ATOM     13  C   UNL     1       1.563   8.590  18.023  0.00  0.00    +0.000 C 
BRANCH  13  14
ATOM     14  C   UNL     1       1.177  10.037  18.267  0.00  0.00    +0.000 A 
ATOM     15  C   UNL     1       2.110  11.084  18.271  0.00  0.00    +0.000 A 
ATOM     16  C   UNL     1       1.703  12.404  18.495  0.00  0.00    +0.000 A 
ATOM     17  C   UNL     1       0.358  12.690  18.703  0.00  0.00    +0.000 A 
ATOM     18 BR   UNL     1      -0.186  14.468  19.045  0.00  0.00    +0.000 Br
ATOM     19  C   UNL     1      -0.590  11.672  18.664  0.00  0.00    +0.000 A 
ATOM     20  C   UNL     1      -0.183  10.354  18.440  0.00  0.00    +0.000 A 
ENDBRANCH  13  14
ENDBRANCH  11  13
ENDBRANCH   4  11
BRANCH   1  21
ATOM     21  C   UNL     1       5.221   4.355  17.452  0.00  0.00    +0.000 C 
BRANCH  21  22
ATOM     22  C   UNL     1       6.629   4.527  18.027  0.00  0.00    +0.000 C 
BRANCH  22  23
ATOM     23  C   UNL     1       7.382   5.654  17.324  0.00  0.00    +0.000 C 
BRANCH  23  25
ATOM     24  C   UNL     1       7.855   8.105  17.656  0.00  0.00    +0.000 C 
ATOM     25  C   UNL     1       7.787   6.741  18.321  0.00  0.00    +0.000 C 
ENDBRANCH  23  25
ENDBRANCH  22  23
ENDBRANCH  21  22
ENDBRANCH   1  21
TORSDOF 7
ENDMDL
MODEL 6
REMARK VINA RESULT:      -6.7      3.481      6.619
REMARK  Name = 
REMARK  9 active torsions:
REMARK  status: ('A' for Active; 'I' for Inactive)
REMARK    1  A    between atoms: C_1  and  C_2
REMARK    2  A    between atoms: C_2  and  C_3
REMARK    3  A    between atoms: C_3  and  C_4
REMARK    4  A    between atoms: C_4  and  C_5
REMARK    5  A    between atoms: C_5  and  N_6
REMARK    6  A    between atoms: C_7  and  C_8
REMARK    7  A    between atoms: C_9  and  C_10
REMARK    8  A    between atoms: C_10  and  C_12
REMARK    9  A    between atoms: C_12  and  C_13
REMARK                            x       y       z     vdW  Elec       q    Type
REMARK                         _______ _______ _______ _____ _____    ______ ____
ROOT
ATOM      1  N   UNL     1       5.030   4.875  17.128  0.00  0.00    +0.000 N 
ATOM      2  C   UNL     1       4.782   6.223  17.318  0.00  0.00    +0.000 A 
ATOM      3  C   UNL     1       5.795   7.306  17.115  0.00  0.00    +0.000 C 
ATOM      4  C   UNL     1       3.456   6.353  17.745  0.00  0.00    +0.000 A 
ATOM      5  C   UNL     1       2.901   5.037  17.818  0.00  0.00    +0.000 A 
ATOM      6  C   UNL     1       1.627   4.507  18.145  0.00  0.00    +0.000 A 
ATOM      7  C   UNL     1       1.406   3.127  18.144  0.00  0.00    +0.000 A 
ATOM      8  C   UNL     1       2.429   2.257  17.814  0.00  0.00    +0.000 A 
ATOM      9  C   UNL     1       3.694   2.741  17.481  0.00  0.00    +0.000 A 
ATOM     10  C   UNL     1       3.908   4.135  17.470  0.00  0.00    +0.000 A 
ENDROOT
BRANCH   4  11
ATOM     11  C   UNL     1       2.802   7.643  18.053  0.00  0.00    +0.000 C 
ATOM     12  O   UNL     1       2.762   8.551  17.220  0.00  0.00    +0.000 OA
BRANCH  11  13
ATOM     13  C   UNL     1       2.203   7.863  19.438  0.00  0.00    +0.000 C 
BRANCH  13  14
ATOM     14  C   UNL     1       1.157   8.959  19.541  0.00  0.00    +0.000 A 
ATOM     15  C   UNL     1       0.807   9.565  20.756  0.00  0.00    +0.000 A 
ATOM     16  C   UNL     1      -0.159  10.575  20.799  0.00  0.00    +0.000 A 
ATOM     17  C   UNL     1      -0.774  10.999  19.624  0.00  0.00    +0.000 A 
ATOM     18 BR   UNL     1      -2.108  12.337  19.688  0.00  0.00    +0.000 Br
ATOM     19  C   UNL     1      -0.412  10.439  18.402  0.00  0.00    +0.000 A 
ATOM     20  C   UNL     1       0.553   9.430  18.361  0.00  0.00    +0.000 A 
ENDBRANCH  13  14
ENDBRANCH  11  13
ENDBRANCH   4  11
BRANCH   1  21
ATOM     21  C   UNL     1       6.274   4.257  16.673  0.00  0.00    +0.000 C 
BRANCH  21  22
ATOM     22  C   UNL     1       6.627   4.606  15.225  0.00  0.00    +0.000 C 
BRANCH  22  23
ATOM     23  C   UNL     1       5.547   4.125  14.258  0.00  0.00    +0.000 C 
BRANCH  23  25
ATOM     24  C   UNL     1       5.099   3.221  11.951  0.00  0.00    +0.000 C 
ATOM     25  C   UNL     1       6.165   3.667  12.936  0.00  0.00    +0.000 C 
ENDBRANCH  23  25
ENDBRANCH  22  23
ENDBRANCH  21  22
ENDBRANCH   1  21
TORSDOF 7
ENDMDL
MODEL 7
REMARK VINA RESULT:      -6.6      3.540      6.832
REMARK  Name = 
REMARK  9 active torsions:
REMARK  status: ('A' for Active; 'I' for Inactive)
REMARK    1  A    between atoms: C_1  and  C_2
REMARK    2  A    between atoms: C_2  and  C_3
REMARK    3  A    between atoms: C_3  and  C_4
REMARK    4  A    between atoms: C_4  and  C_5
REMARK    5  A    between atoms: C_5  and  N_6
REMARK    6  A    between atoms: C_7  and  C_8
REMARK    7  A    between atoms: C_9  and  C_10
REMARK    8  A    between atoms: C_10  and  C_12
REMARK    9  A    between atoms: C_12  and  C_13
REMARK                            x       y       z     vdW  Elec       q    Type
REMARK                         _______ _______ _______ _____ _____    ______ ____
ROOT
ATOM      1  N   UNL     1       3.684   4.707  17.401  0.00  0.00    +0.000 N 
ATOM      2  C   UNL     1       3.613   6.062  17.669  0.00  0.00    +0.000 A 
ATOM      3  C   UNL     1       4.473   7.100  17.018  0.00  0.00    +0.000 C 
ATOM      4  C   UNL     1       2.632   6.248  18.650  0.00  0.00    +0.000 A 
ATOM      5  C   UNL     1       2.110   4.959  18.980  0.00  0.00    +0.000 A 
ATOM      6  C   UNL     1       1.100   4.483  19.854  0.00  0.00    +0.000 A 
ATOM      7  C   UNL     1       0.838   3.115  19.968  0.00  0.00    +0.000 A 
ATOM      8  C   UNL     1       1.558   2.203  19.218  0.00  0.00    +0.000 A 
ATOM      9  C   UNL     1       2.555   2.632  18.343  0.00  0.00    +0.000 A 
ATOM     10  C   UNL     1       2.806   4.015  18.221  0.00  0.00    +0.000 A 
ENDROOT
BRANCH   4  11
ATOM     11  C   UNL     1       2.251   7.563  19.209  0.00  0.00    +0.000 C 
ATOM     12  O   UNL     1       2.117   7.723  20.424  0.00  0.00    +0.000 OA
BRANCH  11  13
ATOM     13  C   UNL     1       1.981   8.726  18.261  0.00  0.00    +0.000 C 
BRANCH  13  14
ATOM     14  C   UNL     1       0.837   9.645  18.650  0.00  0.00    +0.000 A 
ATOM     15  C   UNL     1      -0.376   9.689  17.947  0.00  0.00    +0.000 A 
ATOM     16  C   UNL     1      -1.404  10.550  18.348  0.00  0.00    +0.000 A 
ATOM     17  C   UNL     1      -1.233  11.364  19.463  0.00  0.00    +0.000 A 
ATOM     18 BR   UNL     1      -2.606  12.556  19.980  0.00  0.00    +0.000 Br
ATOM     19  C   UNL     1      -0.052  11.308  20.198  0.00  0.00    +0.000 A 
ATOM     20  C   UNL     1       0.973  10.448  19.797  0.00  0.00    +0.000 A 
ENDBRANCH  13  14
ENDBRANCH  11  13
ENDBRANCH   4  11
BRANCH   1  21
ATOM     21  C   UNL     1       4.555   4.037  16.436  0.00  0.00    +0.000 C 
BRANCH  21  22
ATOM     22  C   UNL     1       6.035   4.382  16.619  0.00  0.00    +0.000 C 
BRANCH  22  23
ATOM     23  C   UNL     1       6.777   4.371  15.285  0.00  0.00    +0.000 C 
BRANCH  23  25
ATOM     24  C   UNL     1       6.571   3.915  12.817  0.00  0.00    +0.000 C 
ATOM     25  C   UNL     1       5.826   4.036  14.136  0.00  0.00    +0.000 C 
ENDBRANCH  23  25
ENDBRANCH  22  23
ENDBRANCH  21  22
ENDBRANCH   1  21
TORSDOF 7
ENDMDL
MODEL 8
REMARK VINA RESULT:      -6.6      3.103      5.525
REMARK  Name = 
REMARK  9 active torsions:
REMARK  status: ('A' for Active; 'I' for Inactive)
REMARK    1  A    between atoms: C_1  and  C_2
REMARK    2  A    between atoms: C_2  and  C_3
REMARK    3  A    between atoms: C_3  and  C_4
REMARK    4  A    between atoms: C_4  and  C_5
REMARK    5  A    between atoms: C_5  and  N_6
REMARK    6  A    between atoms: C_7  and  C_8
REMARK    7  A    between atoms: C_9  and  C_10
REMARK    8  A    between atoms: C_10  and  C_12
REMARK    9  A    between atoms: C_12  and  C_13
REMARK                            x       y       z     vdW  Elec       q    Type
REMARK                         _______ _______ _______ _____ _____    ______ ____
ROOT
ATOM      1  N   UNL     1       4.176   4.455  19.169  0.00  0.00    +0.000 N 
ATOM      2  C   UNL     1       3.226   5.316  19.689  0.00  0.00    +0.000 A 
ATOM      3  C   UNL     1       2.416   5.040  20.918  0.00  0.00    +0.000 C 
ATOM      4  C   UNL     1       3.165   6.435  18.852  0.00  0.00    +0.000 A 
ATOM      5  C   UNL     1       4.105   6.227  17.794  0.00  0.00    +0.000 A 
ATOM      6  C   UNL     1       4.533   6.983  16.674  0.00  0.00    +0.000 A 
ATOM      7  C   UNL     1       5.485   6.473  15.787  0.00  0.00    +0.000 A 
ATOM      8  C   UNL     1       6.032   5.220  15.998  0.00  0.00    +0.000 A 
ATOM      9  C   UNL     1       5.641   4.448  17.091  0.00  0.00    +0.000 A 
ATOM     10  C   UNL     1       4.691   4.974  17.991  0.00  0.00    +0.000 A 
ENDROOT
BRANCH   4  11
ATOM     11  C   UNL     1       2.269   7.591  19.068  0.00  0.00    +0.000 C 
ATOM     12  O   UNL     1       1.912   7.915  20.202  0.00  0.00    +0.000 OA
BRANCH  11  13
ATOM     13  C   UNL     1       1.750   8.368  17.863  0.00  0.00    +0.000 C 
BRANCH  13  14
ATOM     14  C   UNL     1       1.228   9.764  18.149  0.00  0.00    +0.000 A 
ATOM     15  C   UNL     1      -0.131  10.041  18.356  0.00  0.00    +0.000 A 
ATOM     16  C   UNL     1      -0.562  11.344  18.623  0.00  0.00    +0.000 A 
ATOM     17  C   UNL     1       0.363  12.381  18.699  0.00  0.00    +0.000 A 
ATOM     18 BR   UNL     1      -0.225  14.148  19.020  0.00  0.00    +0.000 Br
ATOM     19  C   UNL     1       1.721  12.121  18.536  0.00  0.00    +0.000 A 
ATOM     20  C   UNL     1       2.151  10.819  18.270  0.00  0.00    +0.000 A 
ENDBRANCH  13  14
ENDBRANCH  11  13
ENDBRANCH   4  11
BRANCH   1  21
ATOM     21  C   UNL     1       4.595   3.164  19.711  0.00  0.00    +0.000 C 
BRANCH  21  22
ATOM     22  C   UNL     1       3.525   2.077  19.576  0.00  0.00    +0.000 C 
BRANCH  22  23
ATOM     23  C   UNL     1       3.202   1.793  18.111  0.00  0.00    +0.000 C 
BRANCH  23  25
ATOM     24  C   UNL     1       0.845   2.435  18.721  0.00  0.00    +0.000 C 
ATOM     25  C   UNL     1       1.942   2.543  17.677  0.00  0.00    +0.000 C 
ENDBRANCH  23  25
ENDBRANCH  22  23
ENDBRANCH  21  22
ENDBRANCH   1  21
TORSDOF 7
ENDMDL
MODEL 9
REMARK VINA RESULT:      -6.6      3.585      6.780
REMARK  Name = 
REMARK  9 active torsions:
REMARK  status: ('A' for Active; 'I' for Inactive)
REMARK    1  A    between atoms: C_1  and  C_2
REMARK    2  A    between atoms: C_2  and  C_3
REMARK    3  A    between atoms: C_3  and  C_4
REMARK    4  A    between atoms: C_4  and  C_5
REMARK    5  A    between atoms: C_5  and  N_6
REMARK    6  A    between atoms: C_7  and  C_8
REMARK    7  A    between atoms: C_9  and  C_10
REMARK    8  A    between atoms: C_10  and  C_12
REMARK    9  A    between atoms: C_12  and  C_13
REMARK                            x       y       z     vdW  Elec       q    Type
REMARK                         _______ _______ _______ _____ _____    ______ ____
ROOT
ATOM      1  N   UNL     1       4.336   4.727  17.038  0.00  0.00    +0.000 N 
ATOM      2  C   UNL     1       4.152   6.050  17.397  0.00  0.00    +0.000 A 
ATOM      3  C   UNL     1       5.068   7.168  17.008  0.00  0.00    +0.000 C 
ATOM      4  C   UNL     1       2.997   6.117  18.184  0.00  0.00    +0.000 A 
ATOM      5  C   UNL     1       2.484   4.788  18.303  0.00  0.00    +0.000 A 
ATOM      6  C   UNL     1       1.352   4.205  18.927  0.00  0.00    +0.000 A 
ATOM      7  C   UNL     1       1.139   2.825  18.877  0.00  0.00    +0.000 A 
ATOM      8  C   UNL     1       2.029   2.006  18.206  0.00  0.00    +0.000 A 
ATOM      9  C   UNL     1       3.152   2.542  17.575  0.00  0.00    +0.000 A 
ATOM     10  C   UNL     1       3.354   3.938  17.617  0.00  0.00    +0.000 A 
ENDROOT
BRANCH   4  11
ATOM     11  C   UNL     1       2.456   7.365  18.765  0.00  0.00    +0.000 C 
ATOM     12  O   UNL     1       2.317   8.378  18.078  0.00  0.00    +0.000 OA
BRANCH  11  13
ATOM     13  C   UNL     1       2.100   7.404  20.247  0.00  0.00    +0.000 C 
BRANCH  13  14
ATOM     14  C   UNL     1       1.238   8.572  20.691  0.00  0.00    +0.000 A 
ATOM     15  C   UNL     1       0.592   9.428  19.787  0.00  0.00    +0.000 A 
ATOM     16  C   UNL     1      -0.197  10.488  20.245  0.00  0.00    +0.000 A 
ATOM     17  C   UNL     1      -0.360  10.693  21.612  0.00  0.00    +0.000 A 
ATOM     18 BR   UNL     1      -1.395  12.149  22.230  0.00  0.00    +0.000 Br
ATOM     19  C   UNL     1       0.239   9.831  22.526  0.00  0.00    +0.000 A 
ATOM     20  C   UNL     1       1.028   8.773  22.067  0.00  0.00    +0.000 A 
ENDBRANCH  13  14
ENDBRANCH  11  13
ENDBRANCH   4  11
BRANCH   1  21
ATOM     21  C   UNL     1       5.404   4.173  16.206  0.00  0.00    +0.000 C 
BRANCH  21  22
ATOM     22  C   UNL     1       5.309   4.600  14.739  0.00  0.00    +0.000 C 
BRANCH  22  23
ATOM     23  C   UNL     1       6.234   3.765  13.856  0.00  0.00    +0.000 C 
BRANCH  23  25
ATOM     24  C   UNL     1       6.098   2.319  11.799  0.00  0.00    +0.000 C 
ATOM     25  C   UNL     1       5.656   3.619  12.448  0.00  0.00    +0.000 C 
ENDBRANCH  23  25
ENDBRANCH  22  23
ENDBRANCH  21  22
ENDBRANCH   1  21
TORSDOF 7
ENDMDL
