MODEL 1
REMARK VINA RESULT:      -6.1      0.000      0.000
REMARK  Name = 
REMARK  4 active torsions:
REMARK  status: ('A' for Active; 'I' for Inactive)
REMARK    1  A    between atoms: C_2  and  C_4
REMARK    2  A    between atoms: C_4  and  N_5
REMARK    3  A    between atoms: N_9  and  C_10
REMARK    4  A    between atoms: C_10  and  C_11
REMARK                            x       y       z     vdW  Elec       q    Type
REMARK                         _______ _______ _______ _____ _____    ______ ____
ROOT
ATOM      1  N   UNL     1       6.030   4.726  16.035  0.00  0.00    +0.000 N 
ATOM      2  C   UNL     1       7.251   5.084  16.522  0.00  0.00    +0.000 A 
ATOM      3  C   UNL     1       7.233   4.739  17.853  0.00  0.00    +0.000 A 
ATOM      4  C   UNL     1       5.970   4.143  18.067  0.00  0.00    +0.000 A 
ATOM      5  N   UNL     1       5.589   3.688  19.276  0.00  0.00    +0.000 N 
ATOM      6  N   UNL     1       5.258   4.097  16.941  0.00  0.00    +0.000 NA
ATOM      7  H   UNL     1       6.263   3.682  20.032  0.00  0.00    +0.000 HD
ENDROOT
BRANCH   1   8
ATOM      8  C   UNL     1       5.544   4.919  14.690  0.00  0.00    +0.000 C 
BRANCH   8  10
ATOM      9  F   UNL     1       5.339   3.592  12.757  0.00  0.00    +0.000 F 
ATOM     10  C   UNL     1       6.220   3.988  13.714  0.00  0.00    +0.000 C 
ATOM     11  F   UNL     1       7.195   4.676  13.056  0.00  0.00    +0.000 F 
ENDBRANCH   8  10
ENDBRANCH   1   8
BRANCH   5  12
ATOM     12  C   UNL     1       4.585   2.640  19.393  0.00  0.00    +0.000 C 
BRANCH  12  13
ATOM     13  C   UNL     1       3.300   3.057  20.043  0.00  0.00    +0.000 A 
ATOM     14  C   UNL     1       2.846   2.631  21.332  0.00  0.00    +0.000 A 
ATOM     15  N   UNL     1       1.677   3.099  21.759  0.00  0.00    +0.000 NA
ATOM     16  S   UNL     1       1.061   4.101  20.591  0.00  0.00    +0.000 S 
ATOM     17  C   UNL     1       2.361   3.917  19.498  0.00  0.00    +0.000 A 
ENDBRANCH  12  13
ENDBRANCH   5  12
TORSDOF 4
ENDMDL
MODEL 2
REMARK VINA RESULT:      -6.1      2.703      3.413
REMARK  Name = 
REMARK  4 active torsions:
REMARK  status: ('A' for Active; 'I' for Inactive)
REMARK    1  A    between atoms: C_2  and  C_4
REMARK    2  A    between atoms: C_4  and  N_5
REMARK    3  A    between atoms: N_9  and  C_10
REMARK    4  A    between atoms: C_10  and  C_11
REMARK                            x       y       z     vdW  Elec       q    Type
REMARK                         _______ _______ _______ _____ _____    ______ ____
ROOT
ATOM      1  N   UNL     1       6.623   5.265  17.633  0.00  0.00    +0.000 N 
ATOM      2  C   UNL     1       6.913   4.655  16.449  0.00  0.00    +0.000 A 
ATOM      3  C   UNL     1       5.760   4.000  16.080  0.00  0.00    +0.000 A 
ATOM      4  C   UNL     1       4.819   4.307  17.087  0.00  0.00    +0.000 A 
ATOM      5  N   UNL     1       3.562   3.821  17.065  0.00  0.00    +0.000 N 
ATOM      6  N   UNL     1       5.339   5.117  18.009  0.00  0.00    +0.000 NA
ATOM      7  H   UNL     1       3.253   3.301  16.252  0.00  0.00    +0.000 HD
ENDROOT
BRANCH   1   8
ATOM      8  C   UNL     1       7.523   6.047  18.446  0.00  0.00    +0.000 C 
BRANCH   8  10
ATOM      9  F   UNL     1       6.788   8.041  17.434  0.00  0.00    +0.000 F 
ATOM     10  C   UNL     1       7.904   7.341  17.769  0.00  0.00    +0.000 C 
ATOM     11  F   UNL     1       8.575   8.121  18.663  0.00  0.00    +0.000 F 
ENDBRANCH   8  10
ENDBRANCH   1   8
BRANCH   5  12
ATOM     12  C   UNL     1       2.482   4.521  17.744  0.00  0.00    +0.000 C 
BRANCH  12  13
ATOM     13  C   UNL     1       2.197   4.052  19.140  0.00  0.00    +0.000 A 
ATOM     14  C   UNL     1       2.587   4.731  20.339  0.00  0.00    +0.000 A 
ATOM     15  N   UNL     1       2.253   4.172  21.498  0.00  0.00    +0.000 NA
ATOM     16  S   UNL     1       1.428   2.769  21.182  0.00  0.00    +0.000 S 
ATOM     17  C   UNL     1       1.513   2.897  19.480  0.00  0.00    +0.000 A 
ENDBRANCH  12  13
ENDBRANCH   5  12
TORSDOF 4
ENDMDL
MODEL 3
REMARK VINA RESULT:      -6.0      4.428      6.743
REMARK  Name = 
REMARK  4 active torsions:
REMARK  status: ('A' for Active; 'I' for Inactive)
REMARK    1  A    between atoms: C_2  and  C_4
REMARK    2  A    between atoms: C_4  and  N_5
REMARK    3  A    between atoms: N_9  and  C_10
REMARK    4  A    between atoms: C_10  and  C_11
REMARK                            x       y       z     vdW  Elec       q    Type
REMARK                         _______ _______ _______ _____ _____    ______ ____
ROOT
ATOM      1  N   UNL     1       2.523   4.107  19.692  0.00  0.00    +0.000 N 
ATOM      2  C   UNL     1       2.073   5.379  19.499  0.00  0.00    +0.000 A 
ATOM      3  C   UNL     1       3.175   6.106  19.111  0.00  0.00    +0.000 A 
ATOM      4  C   UNL     1       4.236   5.174  19.063  0.00  0.00    +0.000 A 
ATOM      5  N   UNL     1       5.490   5.536  18.727  0.00  0.00    +0.000 N 
ATOM      6  N   UNL     1       3.821   3.947  19.375  0.00  0.00    +0.000 NA
ATOM      7  H   UNL     1       5.658   6.482  18.406  0.00  0.00    +0.000 HD
ENDROOT
BRANCH   1   8
ATOM      8  C   UNL     1       1.750   2.975  20.145  0.00  0.00    +0.000 C 
BRANCH   8  10
ATOM      9  F   UNL     1       2.422   3.803  22.242  0.00  0.00    +0.000 F 
ATOM     10  C   UNL     1       1.991   2.682  21.605  0.00  0.00    +0.000 C 
ATOM     11  F   UNL     1       0.803   2.359  22.188  0.00  0.00    +0.000 F 
ENDBRANCH   8  10
ENDBRANCH   1   8
BRANCH   5  12
ATOM     12  C   UNL     1       6.418   4.565  18.168  0.00  0.00    +0.000 C 
BRANCH  12  13
ATOM     13  C   UNL     1       6.510   4.559  16.671  0.00  0.00    +0.000 A 
ATOM     14  C   UNL     1       7.386   5.378  15.890  0.00  0.00    +0.000 A 
ATOM     15  N   UNL     1       7.337   5.245  14.567  0.00  0.00    +0.000 NA
ATOM     16  S   UNL     1       6.202   4.093  14.202  0.00  0.00    +0.000 S 
ATOM     17  C   UNL     1       5.765   3.760  15.820  0.00  0.00    +0.000 A 
ENDBRANCH  12  13
ENDBRANCH   5  12
TORSDOF 4
ENDMDL
MODEL 4
REMARK VINA RESULT:      -6.0      3.542      6.159
REMARK  Name = 
REMARK  4 active torsions:
REMARK  status: ('A' for Active; 'I' for Inactive)
REMARK    1  A    between atoms: C_2  and  C_4
REMARK    2  A    between atoms: C_4  and  N_5
REMARK    3  A    between atoms: N_9  and  C_10
REMARK    4  A    between atoms: C_10  and  C_11
REMARK                            x       y       z     vdW  Elec       q    Type
REMARK                         _______ _______ _______ _____ _____    ______ ____
ROOT
ATOM      1  N   UNL     1       2.504   3.258  20.151  0.00  0.00    +0.000 N 
ATOM      2  C   UNL     1       3.088   2.346  20.978  0.00  0.00    +0.000 A 
ATOM      3  C   UNL     1       4.413   2.307  20.608  0.00  0.00    +0.000 A 
ATOM      4  C   UNL     1       4.538   3.260  19.572  0.00  0.00    +0.000 A 
ATOM      5  N   UNL     1       5.710   3.489  18.948  0.00  0.00    +0.000 N 
ATOM      6  N   UNL     1       3.378   3.870  19.329  0.00  0.00    +0.000 NA
ATOM      7  H   UNL     1       6.546   3.037  19.296  0.00  0.00    +0.000 HD
ENDROOT
BRANCH   1   8
ATOM      8  C   UNL     1       1.109   3.628  20.119  0.00  0.00    +0.000 C 
BRANCH   8  10
ATOM      9  F   UNL     1       0.858   3.856  17.791  0.00  0.00    +0.000 F 
ATOM     10  C   UNL     1       0.431   3.138  18.863  0.00  0.00    +0.000 C 
ATOM     11  F   UNL     1       0.820   1.854  18.628  0.00  0.00    +0.000 F 
ENDBRANCH   8  10
ENDBRANCH   1   8
BRANCH   5  12
ATOM     12  C   UNL     1       5.972   4.768  18.306  0.00  0.00    +0.000 C 
BRANCH  12  13
ATOM     13  C   UNL     1       6.258   4.698  16.836  0.00  0.00    +0.000 A 
ATOM     14  C   UNL     1       7.246   5.470  16.145  0.00  0.00    +0.000 A 
ATOM     15  N   UNL     1       7.367   5.284  14.834  0.00  0.00    +0.000 NA
ATOM     16  S   UNL     1       6.266   4.135  14.368  0.00  0.00    +0.000 S 
ATOM     17  C   UNL     1       5.614   3.876  15.926  0.00  0.00    +0.000 A 
ENDBRANCH  12  13
ENDBRANCH   5  12
TORSDOF 4
ENDMDL
MODEL 5
REMARK VINA RESULT:      -6.0      1.775      2.084
REMARK  Name = 
REMARK  4 active torsions:
REMARK  status: ('A' for Active; 'I' for Inactive)
REMARK    1  A    between atoms: C_2  and  C_4
REMARK    2  A    between atoms: C_4  and  N_5
REMARK    3  A    between atoms: N_9  and  C_10
REMARK    4  A    between atoms: C_10  and  C_11
REMARK                            x       y       z     vdW  Elec       q    Type
REMARK                         _______ _______ _______ _____ _____    ______ ____
ROOT
ATOM      1  N   UNL     1       6.550   5.042  15.782  0.00  0.00    +0.000 N 
ATOM      2  C   UNL     1       7.360   4.537  16.755  0.00  0.00    +0.000 A 
ATOM      3  C   UNL     1       6.723   4.809  17.943  0.00  0.00    +0.000 A 
ATOM      4  C   UNL     1       5.516   5.449  17.581  0.00  0.00    +0.000 A 
ATOM      5  N   UNL     1       4.629   5.877  18.500  0.00  0.00    +0.000 N 
ATOM      6  N   UNL     1       5.396   5.546  16.257  0.00  0.00    +0.000 NA
ATOM      7  H   UNL     1       4.784   5.648  19.474  0.00  0.00    +0.000 HD
ENDROOT
BRANCH   1   8
ATOM      8  C   UNL     1       6.801   5.040  14.360  0.00  0.00    +0.000 C 
BRANCH   8  10
ATOM      9  F   UNL     1       4.894   4.040  13.411  0.00  0.00    +0.000 F 
ATOM     10  C   UNL     1       6.207   3.825  13.691  0.00  0.00    +0.000 C 
ATOM     11  F   UNL     1       6.817   3.648  12.485  0.00  0.00    +0.000 F 
ENDBRANCH   8  10
ENDBRANCH   1   8
BRANCH   5  12
ATOM     12  C   UNL     1       3.222   6.026  18.161  0.00  0.00    +0.000 C 
BRANCH  12  13
ATOM     13  C   UNL     1       2.343   4.881  18.566  0.00  0.00    +0.000 A 
ATOM     14  C   UNL     1       1.667   3.996  17.666  0.00  0.00    +0.000 A 
ATOM     15  N   UNL     1       0.924   3.029  18.196  0.00  0.00    +0.000 NA
ATOM     16  S   UNL     1       1.015   3.149  19.848  0.00  0.00    +0.000 S 
ATOM     17  C   UNL     1       2.055   4.503  19.867  0.00  0.00    +0.000 A 
ENDBRANCH  12  13
ENDBRANCH   5  12
TORSDOF 4
ENDMDL
MODEL 6
REMARK VINA RESULT:      -6.0      2.800      3.275
REMARK  Name = 
REMARK  4 active torsions:
REMARK  status: ('A' for Active; 'I' for Inactive)
REMARK    1  A    between atoms: C_2  and  C_4
REMARK    2  A    between atoms: C_4  and  N_5
REMARK    3  A    between atoms: N_9  and  C_10
REMARK    4  A    between atoms: C_10  and  C_11
REMARK                            x       y       z     vdW  Elec       q    Type
REMARK                         _______ _______ _______ _____ _____    ______ ____
ROOT
ATOM      1  N   UNL     1       5.862   5.852  16.934  0.00  0.00    +0.000 N 
ATOM      2  C   UNL     1       6.480   5.070  16.004  0.00  0.00    +0.000 A 
ATOM      3  C   UNL     1       5.803   3.873  16.020  0.00  0.00    +0.000 A 
ATOM      4  C   UNL     1       4.769   4.042  16.967  0.00  0.00    +0.000 A 
ATOM      5  N   UNL     1       3.899   3.056  17.261  0.00  0.00    +0.000 N 
ATOM      6  N   UNL     1       4.782   5.269  17.488  0.00  0.00    +0.000 NA
ATOM      7  H   UNL     1       3.925   2.202  16.718  0.00  0.00    +0.000 HD
ENDROOT
BRANCH   1   8
ATOM      8  C   UNL     1       6.230   7.194  17.318  0.00  0.00    +0.000 C 
BRANCH   8  10
ATOM      9  F   UNL     1       8.059   8.657  17.539  0.00  0.00    +0.000 F 
ATOM     10  C   UNL     1       7.723   7.342  17.470  0.00  0.00    +0.000 C 
ATOM     11  F   UNL     1       8.098   6.802  18.664  0.00  0.00    +0.000 F 
ENDBRANCH   8  10
ENDBRANCH   1   8
BRANCH   5  12
ATOM     12  C   UNL     1       2.576   3.364  17.785  0.00  0.00    +0.000 C 
BRANCH  12  13
ATOM     13  C   UNL     1       2.392   3.099  19.249  0.00  0.00    +0.000 A 
ATOM     14  C   UNL     1       3.434   2.749  20.167  0.00  0.00    +0.000 A 
ATOM     15  N   UNL     1       3.093   2.547  21.436  0.00  0.00    +0.000 NA
ATOM     16  S   UNL     1       1.458   2.781  21.580  0.00  0.00    +0.000 S 
ATOM     17  C   UNL     1       1.190   3.156  19.935  0.00  0.00    +0.000 A 
ENDBRANCH  12  13
ENDBRANCH   5  12
TORSDOF 4
ENDMDL
MODEL 7
REMARK VINA RESULT:      -5.9      4.185      6.507
REMARK  Name = 
REMARK  4 active torsions:
REMARK  status: ('A' for Active; 'I' for Inactive)
REMARK    1  A    between atoms: C_2  and  C_4
REMARK    2  A    between atoms: C_4  and  N_5
REMARK    3  A    between atoms: N_9  and  C_10
REMARK    4  A    between atoms: C_10  and  C_11
REMARK                            x       y       z     vdW  Elec       q    Type
REMARK                         _______ _______ _______ _____ _____    ______ ____
ROOT
ATOM      1  N   UNL     1       3.015   2.788  19.465  0.00  0.00    +0.000 N 
ATOM      2  C   UNL     1       1.942   2.529  18.666  0.00  0.00    +0.000 A 
ATOM      3  C   UNL     1       2.304   2.963  17.412  0.00  0.00    +0.000 A 
ATOM      4  C   UNL     1       3.629   3.434  17.548  0.00  0.00    +0.000 A 
ATOM      5  N   UNL     1       4.313   3.954  16.510  0.00  0.00    +0.000 N 
ATOM      6  N   UNL     1       4.073   3.282  18.795  0.00  0.00    +0.000 NA
ATOM      7  H   UNL     1       3.904   3.916  15.585  0.00  0.00    +0.000 HD
ENDROOT
BRANCH   1   8
ATOM      8  C   UNL     1       3.114   2.548  20.885  0.00  0.00    +0.000 C 
BRANCH   8  10
ATOM      9  F   UNL     1       2.026   4.627  21.063  0.00  0.00    +0.000 F 
ATOM     10  C   UNL     1       2.157   3.416  21.666  0.00  0.00    +0.000 C 
ATOM     11  F   UNL     1       0.920   2.847  21.627  0.00  0.00    +0.000 F 
ENDBRANCH   8  10
ENDBRANCH   1   8
BRANCH   5  12
ATOM     12  C   UNL     1       5.768   3.934  16.496  0.00  0.00    +0.000 C 
BRANCH  12  13
ATOM     13  C   UNL     1       6.429   5.165  17.039  0.00  0.00    +0.000 A 
ATOM     14  C   UNL     1       6.180   6.504  16.597  0.00  0.00    +0.000 A 
ATOM     15  N   UNL     1       6.857   7.484  17.188  0.00  0.00    +0.000 NA
ATOM     16  S   UNL     1       7.848   6.812  18.336  0.00  0.00    +0.000 S 
ATOM     17  C   UNL     1       7.376   5.196  18.049  0.00  0.00    +0.000 A 
ENDBRANCH  12  13
ENDBRANCH   5  12
TORSDOF 4
ENDMDL
MODEL 8
REMARK VINA RESULT:      -5.9      5.213      6.800
REMARK  Name = 
REMARK  4 active torsions:
REMARK  status: ('A' for Active; 'I' for Inactive)
REMARK    1  A    between atoms: C_2  and  C_4
REMARK    2  A    between atoms: C_4  and  N_5
REMARK    3  A    between atoms: N_9  and  C_10
REMARK    4  A    between atoms: C_10  and  C_11
REMARK                            x       y       z     vdW  Elec       q    Type
REMARK                         _______ _______ _______ _____ _____    ______ ____
ROOT
ATOM      1  N   UNL     1       6.458   5.751  16.764  0.00  0.00    +0.000 N 
ATOM      2  C   UNL     1       6.725   5.050  17.902  0.00  0.00    +0.000 A 
ATOM      3  C   UNL     1       7.535   5.867  18.657  0.00  0.00    +0.000 A 
ATOM      4  C   UNL     1       7.670   7.055  17.904  0.00  0.00    +0.000 A 
ATOM      5  N   UNL     1       8.416   8.092  18.333  0.00  0.00    +0.000 N 
ATOM      6  N   UNL     1       6.972   6.995  16.771  0.00  0.00    +0.000 NA
ATOM      7  H   UNL     1       8.813   8.059  19.264  0.00  0.00    +0.000 HD
ENDROOT
BRANCH   1   8
ATOM      8  C   UNL     1       5.676   5.304  15.636  0.00  0.00    +0.000 C 
BRANCH   8  10
ATOM      9  F   UNL     1       5.682   3.931  13.726  0.00  0.00    +0.000 F 
ATOM     10  C   UNL     1       6.465   4.381  14.741  0.00  0.00    +0.000 C 
ATOM     11  F   UNL     1       7.464   5.094  14.149  0.00  0.00    +0.000 F 
ENDBRANCH   8  10
ENDBRANCH   1   8
BRANCH   5  12
ATOM     12  C   UNL     1       8.141   9.445  17.873  0.00  0.00    +0.000 C 
BRANCH  12  13
ATOM     13  C   UNL     1       8.970  10.518  18.513  0.00  0.00    +0.000 A 
ATOM     14  C   UNL     1       9.580  10.436  19.806  0.00  0.00    +0.000 A 
ATOM     15  N   UNL     1      10.284  11.484  20.222  0.00  0.00    +0.000 NA
ATOM     16  S   UNL     1      10.242  12.643  19.037  0.00  0.00    +0.000 S 
ATOM     17  C   UNL     1       9.275  11.747  17.951  0.00  0.00    +0.000 A 
ENDBRANCH  12  13
ENDBRANCH   5  12
TORSDOF 4
ENDMDL
MODEL 9
REMARK VINA RESULT:      -5.9      1.550      1.769
REMARK  Name = 
REMARK  4 active torsions:
REMARK  status: ('A' for Active; 'I' for Inactive)
REMARK    1  A    between atoms: C_2  and  C_4
REMARK    2  A    between atoms: C_4  and  N_5
REMARK    3  A    between atoms: N_9  and  C_10
REMARK    4  A    between atoms: C_10  and  C_11
REMARK                            x       y       z     vdW  Elec       q    Type
REMARK                         _______ _______ _______ _____ _____    ______ ____
ROOT
ATOM      1  N   UNL     1       5.656   5.297  16.554  0.00  0.00    +0.000 N 
ATOM      2  C   UNL     1       6.651   4.787  17.333  0.00  0.00    +0.000 A 
ATOM      3  C   UNL     1       6.225   4.954  18.630  0.00  0.00    +0.000 A 
ATOM      4  C   UNL     1       4.944   5.541  18.529  0.00  0.00    +0.000 A 
ATOM      5  N   UNL     1       4.217   5.865  19.617  0.00  0.00    +0.000 N 
ATOM      6  N   UNL     1       4.583   5.705  17.257  0.00  0.00    +0.000 NA
ATOM      7  H   UNL     1       4.556   5.591  20.531  0.00  0.00    +0.000 HD
ENDROOT
BRANCH   1   8
ATOM      8  C   UNL     1       5.646   5.389  15.113  0.00  0.00    +0.000 C 
BRANCH   8  10
ATOM      9  F   UNL     1       6.005   3.533  13.713  0.00  0.00    +0.000 F 
ATOM     10  C   UNL     1       6.646   4.448  14.487  0.00  0.00    +0.000 C 
ATOM     11  F   UNL     1       7.443   5.156  13.639  0.00  0.00    +0.000 F 
ENDBRANCH   8  10
ENDBRANCH   1   8
BRANCH   5  12
ATOM     12  C   UNL     1       2.767   5.950  19.543  0.00  0.00    +0.000 C 
BRANCH  12  13
ATOM     13  C   UNL     1       2.047   4.636  19.600  0.00  0.00    +0.000 A 
ATOM     14  C   UNL     1       1.714   3.922  20.795  0.00  0.00    +0.000 A 
ATOM     15  N   UNL     1       1.072   2.765  20.664  0.00  0.00    +0.000 NA
ATOM     16  S   UNL     1       0.835   2.483  19.047  0.00  0.00    +0.000 S 
ATOM     17  C   UNL     1       1.593   3.915  18.507  0.00  0.00    +0.000 A 
ENDBRANCH  12  13
ENDBRANCH   5  12
TORSDOF 4
ENDMDL
