MODEL 1
REMARK VINA RESULT:      -7.4      0.000      0.000
REMARK  Name = 
REMARK  9 active torsions:
REMARK  status: ('A' for Active; 'I' for Inactive)
REMARK    1  A    between atoms: C_1  and  O_2
REMARK    2  A    between atoms: O_2  and  C_3
REMARK    3  A    between atoms: C_3  and  C_5
REMARK    4  A    between atoms: C_5  and  C_6
REMARK    5  A    between atoms: C_5  and  N_10
REMARK    6  A    between atoms: C_6  and  C_7
REMARK    7  A    between atoms: C_7  and  C_8
REMARK    8  A    between atoms: C_7  and  C_9
REMARK    9  A    between atoms: C_11  and  C_13
REMARK                            x       y       z     vdW  Elec       q    Type
REMARK                         _______ _______ _______ _____ _____    ______ ____
ROOT
ATOM      1  C   UNL     1       3.726   6.934  18.373  0.00  0.00    +0.000 C 
ATOM      2  C   UNL     1       4.728   6.290  19.405  0.00  0.00    +0.000 C 
ATOM      3  C   UNL     1       5.038   4.817  19.009  0.00  0.00    +0.000 C 
ATOM      4  C   UNL     1       5.656   4.886  17.616  0.00  0.00    +0.000 A 
ATOM      5  C   UNL     1       6.893   4.366  17.245  0.00  0.00    +0.000 A 
ATOM      6  C   UNL     1       7.283   4.453  15.909  0.00  0.00    +0.000 A 
ATOM      7  C   UNL     1       6.450   5.058  14.955  0.00  0.00    +0.000 A 
ATOM      8  C   UNL     1       5.209   5.584  15.320  0.00  0.00    +0.000 A 
ATOM      9  C   UNL     1       4.814   5.494  16.649  0.00  0.00    +0.000 A 
ATOM     10  C   UNL     1       3.458   5.919  17.212  0.00  0.00    +0.000 C 
ATOM     11  C   UNL     1       2.846   4.693  17.889  0.00  0.00    +0.000 A 
ATOM     12  C   UNL     1       1.578   4.190  17.650  0.00  0.00    +0.000 A 
ATOM     13  C   UNL     1       1.126   3.126  18.429  0.00  0.00    +0.000 A 
ATOM     14  C   UNL     1       1.951   2.560  19.414  0.00  0.00    +0.000 A 
ATOM     15  C   UNL     1       3.240   3.048  19.638  0.00  0.00    +0.000 A 
ATOM     16  C   UNL     1       3.686   4.120  18.880  0.00  0.00    +0.000 A 
ENDROOT
BRANCH   1  18
ATOM     17  N   UNL     1       1.854   8.506  18.446  0.00  0.00    +0.000 N 
ATOM     18  C   UNL     1       2.409   7.387  19.030  0.00  0.00    +0.000 C 
ATOM     19  O   UNL     1       1.920   6.860  20.027  0.00  0.00    +0.000 OA
ATOM     20  H   UNL     1       2.476   9.087  17.899  0.00  0.00    +0.000 HD
BRANCH  17  21
ATOM     21  C   UNL     1       0.690   9.187  19.015  0.00  0.00    +0.000 C 
BRANCH  21  22
ATOM     22  C   UNL     1       1.195  10.272  19.988  0.00  0.00    +0.000 C 
ATOM     23  O   UNL     1       1.546  11.394  19.626  0.00  0.00    +0.000 OA
BRANCH  22  25
ATOM     24  C   UNL     1      -0.135   9.280  21.684  0.00  0.00    +0.000 C 
ATOM     25  O   UNL     1       1.116   9.858  21.281  0.00  0.00    +0.000 OA
ENDBRANCH  22  25
ENDBRANCH  21  22
BRANCH  21  26
ATOM     26  C   UNL     1      -0.101   9.876  17.891  0.00  0.00    +0.000 C 
BRANCH  26  27
ATOM     27  C   UNL     1      -1.581  10.185  18.206  0.00  0.00    +0.000 C 
ATOM     28  C   UNL     1      -1.814  11.645  18.602  0.00  0.00    +0.000 C 
ATOM     29  C   UNL     1      -2.449   9.829  16.996  0.00  0.00    +0.000 C 
ENDBRANCH  26  27
ENDBRANCH  21  26
ENDBRANCH  17  21
ENDBRANCH   1  18
TORSDOF 6
ENDMDL
MODEL 2
REMARK VINA RESULT:      -7.2      0.713      1.211
REMARK  Name = 
REMARK  9 active torsions:
REMARK  status: ('A' for Active; 'I' for Inactive)
REMARK    1  A    between atoms: C_1  and  O_2
REMARK    2  A    between atoms: O_2  and  C_3
REMARK    3  A    between atoms: C_3  and  C_5
REMARK    4  A    between atoms: C_5  and  C_6
REMARK    5  A    between atoms: C_5  and  N_10
REMARK    6  A    between atoms: C_6  and  C_7
REMARK    7  A    between atoms: C_7  and  C_8
REMARK    8  A    between atoms: C_7  and  C_9
REMARK    9  A    between atoms: C_11  and  C_13
REMARK                            x       y       z     vdW  Elec       q    Type
REMARK                         _______ _______ _______ _____ _____    ______ ____
ROOT
ATOM      1  C   UNL     1       3.742   7.045  18.263  0.00  0.00    +0.000 C 
ATOM      2  C   UNL     1       4.745   6.412  19.302  0.00  0.00    +0.000 C 
ATOM      3  C   UNL     1       5.016   4.920  18.950  0.00  0.00    +0.000 C 
ATOM      4  C   UNL     1       5.614   4.930  17.546  0.00  0.00    +0.000 A 
ATOM      5  C   UNL     1       6.833   4.369  17.176  0.00  0.00    +0.000 A 
ATOM      6  C   UNL     1       7.205   4.404  15.832  0.00  0.00    +0.000 A 
ATOM      7  C   UNL     1       6.371   4.996  14.871  0.00  0.00    +0.000 A 
ATOM      8  C   UNL     1       5.148   5.563  15.236  0.00  0.00    +0.000 A 
ATOM      9  C   UNL     1       4.771   5.525  16.573  0.00  0.00    +0.000 A 
ATOM     10  C   UNL     1       3.434   6.000  17.141  0.00  0.00    +0.000 C 
ATOM     11  C   UNL     1       2.805   4.811  17.866  0.00  0.00    +0.000 A 
ATOM     12  C   UNL     1       1.522   4.330  17.663  0.00  0.00    +0.000 A 
ATOM     13  C   UNL     1       1.057   3.303  18.482  0.00  0.00    +0.000 A 
ATOM     14  C   UNL     1       1.884   2.750  19.473  0.00  0.00    +0.000 A 
ATOM     15  C   UNL     1       3.187   3.215  19.663  0.00  0.00    +0.000 A 
ATOM     16  C   UNL     1       3.646   4.251  18.863  0.00  0.00    +0.000 A 
ENDROOT
BRANCH   1  18
ATOM     17  N   UNL     1       1.903   8.656  18.306  0.00  0.00    +0.000 N 
ATOM     18  C   UNL     1       2.446   7.550  18.924  0.00  0.00    +0.000 C 
ATOM     19  O   UNL     1       1.965   7.073  19.950  0.00  0.00    +0.000 OA
ATOM     20  H   UNL     1       2.526   9.203  17.725  0.00  0.00    +0.000 HD
BRANCH  17  21
ATOM     21  C   UNL     1       0.762   9.382  18.867  0.00  0.00    +0.000 C 
BRANCH  21  22
ATOM     22  C   UNL     1       1.274  10.726  19.425  0.00  0.00    +0.000 C 
ATOM     23  O   UNL     1       1.085  11.094  20.583  0.00  0.00    +0.000 OA
BRANCH  22  25
ATOM     24  C   UNL     1       1.956  12.825  18.554  0.00  0.00    +0.000 C 
ATOM     25  O   UNL     1       2.025  11.392  18.507  0.00  0.00    +0.000 OA
ENDBRANCH  22  25
ENDBRANCH  21  22
BRANCH  21  26
ATOM     26  C   UNL     1      -0.255   9.678  17.753  0.00  0.00    +0.000 C 
BRANCH  26  27
ATOM     27  C   UNL     1      -1.560  10.370  18.205  0.00  0.00    +0.000 C 
ATOM     28  C   UNL     1      -1.588  11.864  17.873  0.00  0.00    +0.000 C 
ATOM     29  C   UNL     1      -2.761   9.672  17.562  0.00  0.00    +0.000 C 
ENDBRANCH  26  27
ENDBRANCH  21  26
ENDBRANCH  17  21
ENDBRANCH   1  18
TORSDOF 6
ENDMDL
MODEL 3
REMARK VINA RESULT:      -7.0      1.151      1.578
REMARK  Name = 
REMARK  9 active torsions:
REMARK  status: ('A' for Active; 'I' for Inactive)
REMARK    1  A    between atoms: C_1  and  O_2
REMARK    2  A    between atoms: O_2  and  C_3
REMARK    3  A    between atoms: C_3  and  C_5
REMARK    4  A    between atoms: C_5  and  C_6
REMARK    5  A    between atoms: C_5  and  N_10
REMARK    6  A    between atoms: C_6  and  C_7
REMARK    7  A    between atoms: C_7  and  C_8
REMARK    8  A    between atoms: C_7  and  C_9
REMARK    9  A    between atoms: C_11  and  C_13
REMARK                            x       y       z     vdW  Elec       q    Type
REMARK                         _______ _______ _______ _____ _____    ______ ____
ROOT
ATOM      1  C   UNL     1       3.465   6.520  19.140  0.00  0.00    +0.000 C 
ATOM      2  C   UNL     1       4.547   5.668  19.906  0.00  0.00    +0.000 C 
ATOM      3  C   UNL     1       4.847   4.353  19.129  0.00  0.00    +0.000 C 
ATOM      4  C   UNL     1       5.361   4.789  17.761  0.00  0.00    +0.000 A 
ATOM      5  C   UNL     1       6.574   4.417  17.189  0.00  0.00    +0.000 A 
ATOM      6  C   UNL     1       6.865   4.850  15.895  0.00  0.00    +0.000 A 
ATOM      7  C   UNL     1       5.958   5.650  15.184  0.00  0.00    +0.000 A 
ATOM      8  C   UNL     1       4.740   6.029  15.753  0.00  0.00    +0.000 A 
ATOM      9  C   UNL     1       4.443   5.595  17.039  0.00  0.00    +0.000 A 
ATOM     10  C   UNL     1       3.127   5.823  17.781  0.00  0.00    +0.000 C 
ATOM     11  C   UNL     1       2.581   4.449  18.164  0.00  0.00    +0.000 A 
ATOM     12  C   UNL     1       1.305   3.983  17.890  0.00  0.00    +0.000 A 
ATOM     13  C   UNL     1       0.924   2.744  18.402  0.00  0.00    +0.000 A 
ATOM     14  C   UNL     1       1.825   1.974  19.154  0.00  0.00    +0.000 A 
ATOM     15  C   UNL     1       3.121   2.429  19.408  0.00  0.00    +0.000 A 
ATOM     16  C   UNL     1       3.497   3.670  18.918  0.00  0.00    +0.000 A 
ENDROOT
BRANCH   1  18
ATOM     17  N   UNL     1       1.762   8.062  19.978  0.00  0.00    +0.000 N 
ATOM     18  C   UNL     1       2.194   6.753  19.977  0.00  0.00    +0.000 C 
ATOM     19  O   UNL     1       1.642   5.883  20.648  0.00  0.00    +0.000 OA
ATOM     20  H   UNL     1       2.447   8.765  19.728  0.00  0.00    +0.000 HD
BRANCH  17  21
ATOM     21  C   UNL     1       0.667   8.523  20.834  0.00  0.00    +0.000 C 
BRANCH  21  22
ATOM     22  C   UNL     1       1.273   9.339  21.993  0.00  0.00    +0.000 C 
ATOM     23  O   UNL     1       2.366   9.089  22.498  0.00  0.00    +0.000 OA
BRANCH  22  25
ATOM     24  C   UNL     1      -0.567  10.156  23.250  0.00  0.00    +0.000 C 
ATOM     25  O   UNL     1       0.491  10.406  22.312  0.00  0.00    +0.000 OA
ENDBRANCH  22  25
ENDBRANCH  21  22
BRANCH  21  26
ATOM     26  C   UNL     1      -0.261   9.445  20.026  0.00  0.00    +0.000 C 
BRANCH  26  27
ATOM     27  C   UNL     1       0.282   9.906  18.655  0.00  0.00    +0.000 C 
ATOM     28  C   UNL     1      -0.804   9.984  17.579  0.00  0.00    +0.000 C 
ATOM     29  C   UNL     1       0.965  11.267  18.805  0.00  0.00    +0.000 C 
ENDBRANCH  26  27
ENDBRANCH  21  26
ENDBRANCH  17  21
ENDBRANCH   1  18
TORSDOF 6
ENDMDL
MODEL 4
REMARK VINA RESULT:      -6.9      3.856      7.181
REMARK  Name = 
REMARK  9 active torsions:
REMARK  status: ('A' for Active; 'I' for Inactive)
REMARK    1  A    between atoms: C_1  and  O_2
REMARK    2  A    between atoms: O_2  and  C_3
REMARK    3  A    between atoms: C_3  and  C_5
REMARK    4  A    between atoms: C_5  and  C_6
REMARK    5  A    between atoms: C_5  and  N_10
REMARK    6  A    between atoms: C_6  and  C_7
REMARK    7  A    between atoms: C_7  and  C_8
REMARK    8  A    between atoms: C_7  and  C_9
REMARK    9  A    between atoms: C_11  and  C_13
REMARK                            x       y       z     vdW  Elec       q    Type
REMARK                         _______ _______ _______ _____ _____    ______ ____
ROOT
ATOM      1  C   UNL     1      -1.023  10.360  19.088  0.00  0.00    +0.000 C 
ATOM      2  C   UNL     1      -0.306  10.080  17.713  0.00  0.00    +0.000 C 
ATOM      3  C   UNL     1       1.236  10.009  17.914  0.00  0.00    +0.000 C 
ATOM      4  C   UNL     1       1.472   8.868  18.898  0.00  0.00    +0.000 A 
ATOM      5  C   UNL     1       2.291   7.763  18.684  0.00  0.00    +0.000 A 
ATOM      6  C   UNL     1       2.453   6.840  19.717  0.00  0.00    +0.000 A 
ATOM      7  C   UNL     1       1.801   7.016  20.947  0.00  0.00    +0.000 A 
ATOM      8  C   UNL     1       0.976   8.121  21.168  0.00  0.00    +0.000 A 
ATOM      9  C   UNL     1       0.817   9.046  20.144  0.00  0.00    +0.000 A 
ATOM     10  C   UNL     1       0.041  10.360  20.235  0.00  0.00    +0.000 C 
ATOM     11  C   UNL     1       1.012  11.483  19.876  0.00  0.00    +0.000 A 
ATOM     12  C   UNL     1       1.252  12.615  20.637  0.00  0.00    +0.000 A 
ATOM     13  C   UNL     1       2.089  13.602  20.120  0.00  0.00    +0.000 A 
ATOM     14  C   UNL     1       2.698  13.437  18.866  0.00  0.00    +0.000 A 
ATOM     15  C   UNL     1       2.480  12.284  18.108  0.00  0.00    +0.000 A 
ATOM     16  C   UNL     1       1.631  11.309  18.610  0.00  0.00    +0.000 A 
ENDROOT
BRANCH   1  18
ATOM     17  N   UNL     1      -2.533  11.900  20.242  0.00  0.00    +0.000 N 
ATOM     18  C   UNL     1      -1.829  11.673  19.078  0.00  0.00    +0.000 C 
ATOM     19  O   UNL     1      -1.911  12.423  18.108  0.00  0.00    +0.000 OA
ATOM     20  H   UNL     1      -2.717  11.094  20.825  0.00  0.00    +0.000 HD
BRANCH  17  21
ATOM     21  C   UNL     1      -3.481  13.008  20.376  0.00  0.00    +0.000 C 
BRANCH  21  22
ATOM     22  C   UNL     1      -4.906  12.443  20.211  0.00  0.00    +0.000 C 
ATOM     23  O   UNL     1      -5.593  12.053  21.154  0.00  0.00    +0.000 OA
BRANCH  22  25
ATOM     24  C   UNL     1      -5.480  11.269  18.230  0.00  0.00    +0.000 C 
ATOM     25  O   UNL     1      -5.325  12.519  18.919  0.00  0.00    +0.000 OA
ENDBRANCH  22  25
ENDBRANCH  21  22
BRANCH  21  26
ATOM     26  C   UNL     1      -3.362  13.615  21.784  0.00  0.00    +0.000 C 
BRANCH  26  27
ATOM     27  C   UNL     1      -2.565  12.778  22.809  0.00  0.00    +0.000 C 
ATOM     28  C   UNL     1      -1.327  13.505  23.339  0.00  0.00    +0.000 C 
ATOM     29  C   UNL     1      -3.478  12.388  23.974  0.00  0.00    +0.000 C 
ENDBRANCH  26  27
ENDBRANCH  21  26
ENDBRANCH  17  21
ENDBRANCH   1  18
TORSDOF 6
ENDMDL
MODEL 5
REMARK VINA RESULT:      -6.7      3.880      7.726
REMARK  Name = 
REMARK  9 active torsions:
REMARK  status: ('A' for Active; 'I' for Inactive)
REMARK    1  A    between atoms: C_1  and  O_2
REMARK    2  A    between atoms: O_2  and  C_3
REMARK    3  A    between atoms: C_3  and  C_5
REMARK    4  A    between atoms: C_5  and  C_6
REMARK    5  A    between atoms: C_5  and  N_10
REMARK    6  A    between atoms: C_6  and  C_7
REMARK    7  A    between atoms: C_7  and  C_8
REMARK    8  A    between atoms: C_7  and  C_9
REMARK    9  A    between atoms: C_11  and  C_13
REMARK                            x       y       z     vdW  Elec       q    Type
REMARK                         _______ _______ _______ _____ _____    ______ ____
ROOT
ATOM      1  C   UNL     1       4.069   4.764  16.835  0.00  0.00    +0.000 C 
ATOM      2  C   UNL     1       4.143   3.889  18.144  0.00  0.00    +0.000 C 
ATOM      3  C   UNL     1       4.503   4.781  19.368  0.00  0.00    +0.000 C 
ATOM      4  C   UNL     1       3.390   5.819  19.464  0.00  0.00    +0.000 A 
ATOM      5  C   UNL     1       2.596   6.061  20.581  0.00  0.00    +0.000 A 
ATOM      6  C   UNL     1       1.663   7.097  20.528  0.00  0.00    +0.000 A 
ATOM      7  C   UNL     1       1.522   7.878  19.371  0.00  0.00    +0.000 A 
ATOM      8  C   UNL     1       2.315   7.639  18.245  0.00  0.00    +0.000 A 
ATOM      9  C   UNL     1       3.248   6.612  18.296  0.00  0.00    +0.000 A 
ATOM     10  C   UNL     1       4.266   6.270  17.208  0.00  0.00    +0.000 C 
ATOM     11  C   UNL     1       5.652   6.344  17.847  0.00  0.00    +0.000 A 
ATOM     12  C   UNL     1       6.725   7.072  17.362  0.00  0.00    +0.000 A 
ATOM     13  C   UNL     1       7.957   6.950  18.001  0.00  0.00    +0.000 A 
ATOM     14  C   UNL     1       8.098   6.128  19.130  0.00  0.00    +0.000 A 
ATOM     15  C   UNL     1       7.011   5.413  19.638  0.00  0.00    +0.000 A 
ATOM     16  C   UNL     1       5.788   5.516  18.992  0.00  0.00    +0.000 A 
ENDROOT
BRANCH   1  18
ATOM     17  N   UNL     1       5.136   5.148  14.668  0.00  0.00    +0.000 N 
ATOM     18  C   UNL     1       5.086   4.318  15.767  0.00  0.00    +0.000 C 
ATOM     19  O   UNL     1       5.747   3.284  15.835  0.00  0.00    +0.000 OA
ATOM     20  H   UNL     1       4.330   5.742  14.511  0.00  0.00    +0.000 HD
BRANCH  17  21
ATOM     21  C   UNL     1       5.920   4.820  13.476  0.00  0.00    +0.000 C 
BRANCH  21  22
ATOM     22  C   UNL     1       7.395   5.168  13.760  0.00  0.00    +0.000 C 
ATOM     23  O   UNL     1       7.836   5.377  14.889  0.00  0.00    +0.000 OA
BRANCH  22  25
ATOM     24  C   UNL     1       8.083   6.286  11.782  0.00  0.00    +0.000 C 
ATOM     25  O   UNL     1       8.144   5.125  12.625  0.00  0.00    +0.000 OA
ENDBRANCH  22  25
ENDBRANCH  21  22
BRANCH  21  26
ATOM     26  C   UNL     1       5.825   3.310  13.201  0.00  0.00    +0.000 C 
BRANCH  26  27
ATOM     27  C   UNL     1       5.615   2.911  11.723  0.00  0.00    +0.000 C 
ATOM     28  C   UNL     1       5.936   1.440  11.451  0.00  0.00    +0.000 C 
ATOM     29  C   UNL     1       4.173   3.214  11.309  0.00  0.00    +0.000 C 
ENDBRANCH  26  27
ENDBRANCH  21  26
ENDBRANCH  17  21
ENDBRANCH   1  18
TORSDOF 6
ENDMDL
MODEL 6
REMARK VINA RESULT:      -6.7      3.775      7.205
REMARK  Name = 
REMARK  9 active torsions:
REMARK  status: ('A' for Active; 'I' for Inactive)
REMARK    1  A    between atoms: C_1  and  O_2
REMARK    2  A    between atoms: O_2  and  C_3
REMARK    3  A    between atoms: C_3  and  C_5
REMARK    4  A    between atoms: C_5  and  C_6
REMARK    5  A    between atoms: C_5  and  N_10
REMARK    6  A    between atoms: C_6  and  C_7
REMARK    7  A    between atoms: C_7  and  C_8
REMARK    8  A    between atoms: C_7  and  C_9
REMARK    9  A    between atoms: C_11  and  C_13
REMARK                            x       y       z     vdW  Elec       q    Type
REMARK                         _______ _______ _______ _____ _____    ______ ____
ROOT
ATOM      1  C   UNL     1      -0.941  10.529  19.632  0.00  0.00    +0.000 C 
ATOM      2  C   UNL     1      -0.548  10.399  18.111  0.00  0.00    +0.000 C 
ATOM      3  C   UNL     1       0.998  10.301  17.960  0.00  0.00    +0.000 C 
ATOM      4  C   UNL     1       1.411   9.058  18.741  0.00  0.00    +0.000 A 
ATOM      5  C   UNL     1       2.133   7.980  18.237  0.00  0.00    +0.000 A 
ATOM      6  C   UNL     1       2.490   6.949  19.104  0.00  0.00    +0.000 A 
ATOM      7  C   UNL     1       2.126   6.990  20.459  0.00  0.00    +0.000 A 
ATOM      8  C   UNL     1       1.400   8.068  20.972  0.00  0.00    +0.000 A 
ATOM      9  C   UNL     1       1.047   9.101  20.112  0.00  0.00    +0.000 A 
ATOM     10  C   UNL     1       0.346  10.399  20.510  0.00  0.00    +0.000 C 
ATOM     11  C   UNL     1       1.247  11.551  20.069  0.00  0.00    +0.000 A 
ATOM     12  C   UNL     1       1.678  12.592  20.876  0.00  0.00    +0.000 A 
ATOM     13  C   UNL     1       2.409  13.627  20.295  0.00  0.00    +0.000 A 
ATOM     14  C   UNL     1       2.726  13.598  18.928  0.00  0.00    +0.000 A 
ATOM     15  C   UNL     1       2.317  12.536  18.118  0.00  0.00    +0.000 A 
ATOM     16  C   UNL     1       1.571  11.515  18.688  0.00  0.00    +0.000 A 
ENDROOT
BRANCH   1  18
ATOM     17  N   UNL     1      -1.951  12.028  21.279  0.00  0.00    +0.000 N 
ATOM     18  C   UNL     1      -1.694  11.838  19.938  0.00  0.00    +0.000 C 
ATOM     19  O   UNL     1      -2.100  12.617  19.078  0.00  0.00    +0.000 OA
ATOM     20  H   UNL     1      -1.928  11.204  21.867  0.00  0.00    +0.000 HD
BRANCH  17  21
ATOM     21  C   UNL     1      -2.788  13.127  21.765  0.00  0.00    +0.000 C 
BRANCH  21  22
ATOM     22  C   UNL     1      -3.993  12.520  22.512  0.00  0.00    +0.000 C 
ATOM     23  O   UNL     1      -5.105  12.383  22.003  0.00  0.00    +0.000 OA
BRANCH  22  25
ATOM     24  C   UNL     1      -4.574  12.365  24.808  0.00  0.00    +0.000 C 
ATOM     25  O   UNL     1      -3.642  12.084  23.751  0.00  0.00    +0.000 OA
ENDBRANCH  22  25
ENDBRANCH  21  22
BRANCH  21  26
ATOM     26  C   UNL     1      -1.985  13.982  22.759  0.00  0.00    +0.000 C 
BRANCH  26  27
ATOM     27  C   UNL     1      -0.792  14.759  22.160  0.00  0.00    +0.000 C 
ATOM     28  C   UNL     1      -1.150  15.498  20.868  0.00  0.00    +0.000 C 
ATOM     29  C   UNL     1      -0.254  15.751  23.195  0.00  0.00    +0.000 C 
ENDBRANCH  26  27
ENDBRANCH  21  26
ENDBRANCH  17  21
ENDBRANCH   1  18
TORSDOF 6
ENDMDL
MODEL 7
REMARK VINA RESULT:      -6.6      5.800      8.173
REMARK  Name = 
REMARK  9 active torsions:
REMARK  status: ('A' for Active; 'I' for Inactive)
REMARK    1  A    between atoms: C_1  and  O_2
REMARK    2  A    between atoms: O_2  and  C_3
REMARK    3  A    between atoms: C_3  and  C_5
REMARK    4  A    between atoms: C_5  and  C_6
REMARK    5  A    between atoms: C_5  and  N_10
REMARK    6  A    between atoms: C_6  and  C_7
REMARK    7  A    between atoms: C_7  and  C_8
REMARK    8  A    between atoms: C_7  and  C_9
REMARK    9  A    between atoms: C_11  and  C_13
REMARK                            x       y       z     vdW  Elec       q    Type
REMARK                         _______ _______ _______ _____ _____    ______ ____
ROOT
ATOM      1  C   UNL     1       0.342  12.717  19.446  0.00  0.00    +0.000 C 
ATOM      2  C   UNL     1       1.080  11.456  18.854  0.00  0.00    +0.000 C 
ATOM      3  C   UNL     1       0.207  10.182  19.044  0.00  0.00    +0.000 C 
ATOM      4  C   UNL     1      -1.093  10.457  18.296  0.00  0.00    +0.000 A 
ATOM      5  C   UNL     1      -1.640   9.663  17.292  0.00  0.00    +0.000 A 
ATOM      6  C   UNL     1      -2.876  10.020  16.754  0.00  0.00    +0.000 A 
ATOM      7  C   UNL     1      -3.557  11.159  17.211  0.00  0.00    +0.000 A 
ATOM      8  C   UNL     1      -3.013  11.962  18.217  0.00  0.00    +0.000 A 
ATOM      9  C   UNL     1      -1.784  11.606  18.759  0.00  0.00    +0.000 A 
ATOM     10  C   UNL     1      -1.086  12.299  19.929  0.00  0.00    +0.000 C 
ATOM     11  C   UNL     1      -0.848  11.240  21.004  0.00  0.00    +0.000 A 
ATOM     12  C   UNL     1      -1.218  11.345  22.335  0.00  0.00    +0.000 A 
ATOM     13  C   UNL     1      -0.833  10.336  23.216  0.00  0.00    +0.000 A 
ATOM     14  C   UNL     1      -0.110   9.224  22.756  0.00  0.00    +0.000 A 
ATOM     15  C   UNL     1       0.241   9.102  21.409  0.00  0.00    +0.000 A 
ATOM     16  C   UNL     1      -0.123  10.114  20.534  0.00  0.00    +0.000 A 
ENDROOT
BRANCH   1  18
ATOM     17  N   UNL     1       0.612  14.599  20.984  0.00  0.00    +0.000 N 
ATOM     18  C   UNL     1       1.138  13.390  20.579  0.00  0.00    +0.000 C 
ATOM     19  O   UNL     1       2.186  12.946  21.043  0.00  0.00    +0.000 OA
ATOM     20  H   UNL     1      -0.004  15.066  20.331  0.00  0.00    +0.000 HD
BRANCH  17  21
ATOM     21  C   UNL     1       1.302  15.470  21.937  0.00  0.00    +0.000 C 
BRANCH  21  22
ATOM     22  C   UNL     1       1.882  16.669  21.159  0.00  0.00    +0.000 C 
ATOM     23  O   UNL     1       3.071  16.770  20.859  0.00  0.00    +0.000 OA
BRANCH  22  25
ATOM     24  C   UNL     1       0.991  18.038  19.437  0.00  0.00    +0.000 C 
ATOM     25  O   UNL     1       0.905  17.537  20.780  0.00  0.00    +0.000 OA
ENDBRANCH  22  25
ENDBRANCH  21  22
BRANCH  21  26
ATOM     26  C   UNL     1       0.292  16.005  22.966  0.00  0.00    +0.000 C 
BRANCH  26  27
ATOM     27  C   UNL     1      -1.106  15.349  22.933  0.00  0.00    +0.000 C 
ATOM     28  C   UNL     1      -1.447  14.608  24.229  0.00  0.00    +0.000 C 
ATOM     29  C   UNL     1      -2.167  16.416  22.650  0.00  0.00    +0.000 C 
ENDBRANCH  26  27
ENDBRANCH  21  26
ENDBRANCH  17  21
ENDBRANCH   1  18
TORSDOF 6
ENDMDL
MODEL 8
REMARK VINA RESULT:      -6.5      1.181      1.327
REMARK  Name = 
REMARK  9 active torsions:
REMARK  status: ('A' for Active; 'I' for Inactive)
REMARK    1  A    between atoms: C_1  and  O_2
REMARK    2  A    between atoms: O_2  and  C_3
REMARK    3  A    between atoms: C_3  and  C_5
REMARK    4  A    between atoms: C_5  and  C_6
REMARK    5  A    between atoms: C_5  and  N_10
REMARK    6  A    between atoms: C_6  and  C_7
REMARK    7  A    between atoms: C_7  and  C_8
REMARK    8  A    between atoms: C_7  and  C_9
REMARK    9  A    between atoms: C_11  and  C_13
REMARK                            x       y       z     vdW  Elec       q    Type
REMARK                         _______ _______ _______ _____ _____    ______ ____
ROOT
ATOM      1  C   UNL     1       3.534   7.233  17.955  0.00  0.00    +0.000 C 
ATOM      2  C   UNL     1       4.351   6.910  19.263  0.00  0.00    +0.000 C 
ATOM      3  C   UNL     1       4.720   5.398  19.309  0.00  0.00    +0.000 C 
ATOM      4  C   UNL     1       5.559   5.140  18.061  0.00  0.00    +0.000 A 
ATOM      5  C   UNL     1       6.839   4.594  18.038  0.00  0.00    +0.000 A 
ATOM      6  C   UNL     1       7.444   4.358  16.803  0.00  0.00    +0.000 A 
ATOM      7  C   UNL     1       6.780   4.670  15.607  0.00  0.00    +0.000 A 
ATOM      8  C   UNL     1       5.496   5.221  15.623  0.00  0.00    +0.000 A 
ATOM      9  C   UNL     1       4.888   5.451  16.850  0.00  0.00    +0.000 A 
ATOM     10  C   UNL     1       3.459   5.949  17.063  0.00  0.00    +0.000 C 
ATOM     11  C   UNL     1       2.742   4.909  17.923  0.00  0.00    +0.000 A 
ATOM     12  C   UNL     1       1.530   4.311  17.621  0.00  0.00    +0.000 A 
ATOM     13  C   UNL     1       0.953   3.460  18.562  0.00  0.00    +0.000 A 
ATOM     14  C   UNL     1       1.604   3.193  19.777  0.00  0.00    +0.000 A 
ATOM     15  C   UNL     1       2.840   3.774  20.073  0.00  0.00    +0.000 A 
ATOM     16  C   UNL     1       3.406   4.638  19.148  0.00  0.00    +0.000 A 
ENDROOT
BRANCH   1  18
ATOM     17  N   UNL     1       1.989   8.281  19.534  0.00  0.00    +0.000 N 
ATOM     18  C   UNL     1       2.127   7.783  18.256  0.00  0.00    +0.000 C 
ATOM     19  O   UNL     1       1.183   7.727  17.472  0.00  0.00    +0.000 OA
ATOM     20  H   UNL     1       2.663   7.963  20.220  0.00  0.00    +0.000 HD
BRANCH  17  21
ATOM     21  C   UNL     1       0.694   8.706  20.070  0.00  0.00    +0.000 C 
BRANCH  21  22
ATOM     22  C   UNL     1       0.817   8.801  21.605  0.00  0.00    +0.000 C 
ATOM     23  O   UNL     1       1.892   8.920  22.191  0.00  0.00    +0.000 OA
BRANCH  22  25
ATOM     24  C   UNL     1      -0.649   9.924  23.096  0.00  0.00    +0.000 C 
ATOM     25  O   UNL     1      -0.405   8.827  22.201  0.00  0.00    +0.000 OA
ENDBRANCH  22  25
ENDBRANCH  21  22
BRANCH  21  26
ATOM     26  C   UNL     1       0.348  10.101  19.526  0.00  0.00    +0.000 C 
BRANCH  26  27
ATOM     27  C   UNL     1      -1.139  10.334  19.178  0.00  0.00    +0.000 C 
ATOM     28  C   UNL     1      -1.650  11.703  19.631  0.00  0.00    +0.000 C 
ATOM     29  C   UNL     1      -1.344  10.175  17.669  0.00  0.00    +0.000 C 
ENDBRANCH  26  27
ENDBRANCH  21  26
ENDBRANCH  17  21
ENDBRANCH   1  18
TORSDOF 6
ENDMDL
MODEL 9
REMARK VINA RESULT:      -6.5      3.916      7.470
REMARK  Name = 
REMARK  9 active torsions:
REMARK  status: ('A' for Active; 'I' for Inactive)
REMARK    1  A    between atoms: C_1  and  O_2
REMARK    2  A    between atoms: O_2  and  C_3
REMARK    3  A    between atoms: C_3  and  C_5
REMARK    4  A    between atoms: C_5  and  C_6
REMARK    5  A    between atoms: C_5  and  N_10
REMARK    6  A    between atoms: C_6  and  C_7
REMARK    7  A    between atoms: C_7  and  C_8
REMARK    8  A    between atoms: C_7  and  C_9
REMARK    9  A    between atoms: C_11  and  C_13
REMARK                            x       y       z     vdW  Elec       q    Type
REMARK                         _______ _______ _______ _____ _____    ______ ____
ROOT
ATOM      1  C   UNL     1      -0.944  10.652  19.845  0.00  0.00    +0.000 C 
ATOM      2  C   UNL     1      -0.707  10.667  18.286  0.00  0.00    +0.000 C 
ATOM      3  C   UNL     1       0.817  10.615  17.972  0.00  0.00    +0.000 C 
ATOM      4  C   UNL     1       1.322   9.316  18.592  0.00  0.00    +0.000 A 
ATOM      5  C   UNL     1       2.001   8.303  17.920  0.00  0.00    +0.000 A 
ATOM      6  C   UNL     1       2.457   7.205  18.650  0.00  0.00    +0.000 A 
ATOM      7  C   UNL     1       2.233   7.118  20.033  0.00  0.00    +0.000 A 
ATOM      8  C   UNL     1       1.550   8.130  20.712  0.00  0.00    +0.000 A 
ATOM      9  C   UNL     1       1.100   9.228  19.990  0.00  0.00    +0.000 A 
ATOM     10  C   UNL     1       0.428  10.470  20.574  0.00  0.00    +0.000 C 
ATOM     11  C   UNL     1       1.266  11.676  20.151  0.00  0.00    +0.000 A 
ATOM     12  C   UNL     1       1.765  12.649  21.001  0.00  0.00    +0.000 A 
ATOM     13  C   UNL     1       2.421  13.747  20.447  0.00  0.00    +0.000 A 
ATOM     14  C   UNL     1       2.597  13.847  19.058  0.00  0.00    +0.000 A 
ATOM     15  C   UNL     1       2.119  12.854  18.200  0.00  0.00    +0.000 A 
ATOM     16  C   UNL     1       1.447  11.771  18.746  0.00  0.00    +0.000 A 
ENDROOT
BRANCH   1  18
ATOM     17  N   UNL     1      -1.709  12.027  21.717  0.00  0.00    +0.000 N 
ATOM     18  C   UNL     1      -1.676  11.912  20.344  0.00  0.00    +0.000 C 
ATOM     19  O   UNL     1      -2.247  12.713  19.608  0.00  0.00    +0.000 OA
ATOM     20  H   UNL     1      -1.559  11.177  22.247  0.00  0.00    +0.000 HD
BRANCH  17  21
ATOM     21  C   UNL     1      -2.487  13.065  22.395  0.00  0.00    +0.000 C 
BRANCH  21  22
ATOM     22  C   UNL     1      -3.757  12.412  22.977  0.00  0.00    +0.000 C 
ATOM     23  O   UNL     1      -3.835  11.992  24.130  0.00  0.00    +0.000 OA
BRANCH  22  25
ATOM     24  C   UNL     1      -5.588  13.636  22.091  0.00  0.00    +0.000 C 
ATOM     25  O   UNL     1      -4.786  12.444  22.087  0.00  0.00    +0.000 OA
ENDBRANCH  22  25
ENDBRANCH  21  22
BRANCH  21  26
ATOM     26  C   UNL     1      -1.665  13.643  23.559  0.00  0.00    +0.000 C 
BRANCH  26  27
ATOM     27  C   UNL     1      -1.915  15.134  23.879  0.00  0.00    +0.000 C 
ATOM     28  C   UNL     1      -2.619  15.878  22.742  0.00  0.00    +0.000 C 
ATOM     29  C   UNL     1      -2.738  15.251  25.165  0.00  0.00    +0.000 C 
ENDBRANCH  26  27
ENDBRANCH  21  26
ENDBRANCH  17  21
ENDBRANCH   1  18
TORSDOF 6
ENDMDL
