MODEL 1
REMARK VINA RESULT:      -7.4      0.000      0.000
REMARK  Name = 
REMARK  5 active torsions:
REMARK  status: ('A' for Active; 'I' for Inactive)
REMARK    1  A    between atoms: C_1  and  C_2
REMARK    2  A    between atoms: C_2  and  C_3
REMARK    3  A    between atoms: C_2  and  O_4
REMARK    4  A    between atoms: C_2  and  C_5
REMARK    5  A    between atoms: C_9  and  N_10
REMARK                            x       y       z     vdW  Elec       q    Type
REMARK                         _______ _______ _______ _____ _____    ______ ____
ROOT
ATOM      1  C   UNL     1       2.341   3.165  19.355  0.00  0.00    +0.000 A 
ATOM      2  C   UNL     1       2.607   1.893  18.846  0.00  0.00    +0.000 A 
ATOM      3  N   UNL     1       3.524   1.619  17.889  0.00  0.00    +0.000 NA
ATOM      4  C   UNL     1       4.236   2.667  17.407  0.00  0.00    +0.000 A 
ATOM      5  C   UNL     1       4.097   3.962  17.881  0.00  0.00    +0.000 A 
ATOM      6  C   UNL     1       3.126   4.211  18.853  0.00  0.00    +0.000 A 
ENDROOT
BRANCH   5   7
ATOM      7  N   UNL     1       4.908   4.994  17.360  0.00  0.00    +0.000 N 
ATOM      8  N   UNL     1       4.620   5.531  16.142  0.00  0.00    +0.000 NA
ATOM      9  C   UNL     1       5.450   6.568  16.038  0.00  0.00    +0.000 A 
ATOM     10  C   UNL     1       6.372   6.642  17.098  0.00  0.00    +0.000 A 
ATOM     11  C   UNL     1       7.469   7.462  17.421  0.00  0.00    +0.000 A 
ATOM     12  C   UNL     1       8.227   7.166  18.559  0.00  0.00    +0.000 A 
ATOM     13  C   UNL     1       7.903   6.079  19.365  0.00  0.00    +0.000 A 
ATOM     14  C   UNL     1       6.803   5.269  19.071  0.00  0.00    +0.000 A 
ATOM     15  C   UNL     1       6.031   5.584  17.938  0.00  0.00    +0.000 A 
ENDBRANCH   5   7
BRANCH   1  17
ATOM     16  C   UNL     1       0.989   4.899  20.601  0.00  0.00    +0.000 C 
ATOM     17  C   UNL     1       1.223   3.406  20.355  0.00  0.00    +0.000 C 
ATOM     18  C   UNL     1       1.520   2.671  21.670  0.00  0.00    +0.000 C 
BRANCH  17  19
ATOM     19  O   UNL     1      -0.007   2.874  19.841  0.00  0.00    +0.000 OA
ATOM     20  H   UNL     1       0.202   2.062  19.351  0.00  0.00    +0.000 HD
ENDBRANCH  17  19
ENDBRANCH   1  17
TORSDOF 3
ENDMDL
MODEL 2
REMARK VINA RESULT:      -7.3      3.381      6.494
REMARK  Name = 
REMARK  5 active torsions:
REMARK  status: ('A' for Active; 'I' for Inactive)
REMARK    1  A    between atoms: C_1  and  C_2
REMARK    2  A    between atoms: C_2  and  C_3
REMARK    3  A    between atoms: C_2  and  O_4
REMARK    4  A    between atoms: C_2  and  C_5
REMARK    5  A    between atoms: C_9  and  N_10
REMARK                            x       y       z     vdW  Elec       q    Type
REMARK                         _______ _______ _______ _____ _____    ______ ____
ROOT
ATOM      1  C   UNL     1       6.208   4.258  13.981  0.00  0.00    +0.000 A 
ATOM      2  C   UNL     1       7.404   4.820  14.427  0.00  0.00    +0.000 A 
ATOM      3  N   UNL     1       7.562   5.469  15.605  0.00  0.00    +0.000 NA
ATOM      4  C   UNL     1       6.471   5.561  16.403  0.00  0.00    +0.000 A 
ATOM      5  C   UNL     1       5.249   4.988  16.088  0.00  0.00    +0.000 A 
ATOM      6  C   UNL     1       5.116   4.345  14.855  0.00  0.00    +0.000 A 
ENDROOT
BRANCH   5   7
ATOM      7  N   UNL     1       4.169   5.087  16.993  0.00  0.00    +0.000 N 
ATOM      8  N   UNL     1       3.760   6.311  17.426  0.00  0.00    +0.000 NA
ATOM      9  C   UNL     1       2.642   6.060  18.107  0.00  0.00    +0.000 A 
ATOM     10  C   UNL     1       2.385   4.684  18.250  0.00  0.00    +0.000 A 
ATOM     11  C   UNL     1       1.420   3.906  18.916  0.00  0.00    +0.000 A 
ATOM     12  C   UNL     1       1.541   2.513  18.901  0.00  0.00    +0.000 A 
ATOM     13  C   UNL     1       2.597   1.899  18.234  0.00  0.00    +0.000 A 
ATOM     14  C   UNL     1       3.550   2.656  17.547  0.00  0.00    +0.000 A 
ATOM     15  C   UNL     1       3.411   4.057  17.547  0.00  0.00    +0.000 A 
ENDBRANCH   5   7
BRANCH   1  17
ATOM     16  C   UNL     1       7.109   4.213  11.619  0.00  0.00    +0.000 C 
ATOM     17  C   UNL     1       6.085   3.635  12.600  0.00  0.00    +0.000 C 
ATOM     18  C   UNL     1       4.655   3.805  12.068  0.00  0.00    +0.000 C 
BRANCH  17  19
ATOM     19  O   UNL     1       6.342   2.226  12.683  0.00  0.00    +0.000 OA
ATOM     20  H   UNL     1       7.284   2.084  12.489  0.00  0.00    +0.000 HD
ENDBRANCH  17  19
ENDBRANCH   1  17
TORSDOF 3
ENDMDL
MODEL 3
REMARK VINA RESULT:      -7.2      3.569      5.676
REMARK  Name = 
REMARK  5 active torsions:
REMARK  status: ('A' for Active; 'I' for Inactive)
REMARK    1  A    between atoms: C_1  and  C_2
REMARK    2  A    between atoms: C_2  and  C_3
REMARK    3  A    between atoms: C_2  and  O_4
REMARK    4  A    between atoms: C_2  and  C_5
REMARK    5  A    between atoms: C_9  and  N_10
REMARK                            x       y       z     vdW  Elec       q    Type
REMARK                         _______ _______ _______ _____ _____    ______ ____
ROOT
ATOM      1  C   UNL     1       5.314   4.893  17.377  0.00  0.00    +0.000 A 
ATOM      2  C   UNL     1       4.627   3.767  16.923  0.00  0.00    +0.000 A 
ATOM      3  N   UNL     1       3.339   3.475  17.218  0.00  0.00    +0.000 NA
ATOM      4  C   UNL     1       2.677   4.357  18.006  0.00  0.00    +0.000 A 
ATOM      5  C   UNL     1       3.240   5.537  18.464  0.00  0.00    +0.000 A 
ATOM      6  C   UNL     1       4.578   5.795  18.158  0.00  0.00    +0.000 A 
ENDROOT
BRANCH   5   7
ATOM      7  N   UNL     1       2.471   6.429  19.244  0.00  0.00    +0.000 N 
ATOM      8  N   UNL     1       1.980   6.025  20.447  0.00  0.00    +0.000 NA
ATOM      9  C   UNL     1       1.470   7.134  20.981  0.00  0.00    +0.000 A 
ATOM     10  C   UNL     1       1.490   8.228  20.096  0.00  0.00    +0.000 A 
ATOM     11  C   UNL     1       1.025   9.555  20.129  0.00  0.00    +0.000 A 
ATOM     12  C   UNL     1       1.156  10.350  18.985  0.00  0.00    +0.000 A 
ATOM     13  C   UNL     1       1.741   9.841  17.830  0.00  0.00    +0.000 A 
ATOM     14  C   UNL     1       2.229   8.532  17.789  0.00  0.00    +0.000 A 
ATOM     15  C   UNL     1       2.115   7.744  18.949  0.00  0.00    +0.000 A 
ENDBRANCH   5   7
BRANCH   1  17
ATOM     16  C   UNL     1       7.247   6.521  17.427  0.00  0.00    +0.000 C 
ATOM     17  C   UNL     1       6.791   5.099  17.086  0.00  0.00    +0.000 C 
ATOM     18  C   UNL     1       7.095   4.759  15.621  0.00  0.00    +0.000 C 
BRANCH  17  19
ATOM     19  O   UNL     1       7.570   4.210  17.899  0.00  0.00    +0.000 OA
ATOM     20  H   UNL     1       8.227   3.781  17.326  0.00  0.00    +0.000 HD
ENDBRANCH  17  19
ENDBRANCH   1  17
TORSDOF 3
ENDMDL
MODEL 4
REMARK VINA RESULT:      -7.1      3.672      5.833
REMARK  Name = 
REMARK  5 active torsions:
REMARK  status: ('A' for Active; 'I' for Inactive)
REMARK    1  A    between atoms: C_1  and  C_2
REMARK    2  A    between atoms: C_2  and  C_3
REMARK    3  A    between atoms: C_2  and  O_4
REMARK    4  A    between atoms: C_2  and  C_5
REMARK    5  A    between atoms: C_9  and  N_10
REMARK                            x       y       z     vdW  Elec       q    Type
REMARK                         _______ _______ _______ _____ _____    ______ ____
ROOT
ATOM      1  C   UNL     1       5.490   5.265  17.223  0.00  0.00    +0.000 A 
ATOM      2  C   UNL     1       4.868   4.133  16.695  0.00  0.00    +0.000 A 
ATOM      3  N   UNL     1       3.593   3.758  16.953  0.00  0.00    +0.000 NA
ATOM      4  C   UNL     1       2.877   4.559  17.779  0.00  0.00    +0.000 A 
ATOM      5  C   UNL     1       3.372   5.738  18.312  0.00  0.00    +0.000 A 
ATOM      6  C   UNL     1       4.699   6.082  18.042  0.00  0.00    +0.000 A 
ENDROOT
BRANCH   5   7
ATOM      7  N   UNL     1       2.548   6.544  19.128  0.00  0.00    +0.000 N 
ATOM      8  N   UNL     1       2.052   6.042  20.292  0.00  0.00    +0.000 NA
ATOM      9  C   UNL     1       1.481   7.091  20.883  0.00  0.00    +0.000 A 
ATOM     10  C   UNL     1       1.469   8.240  20.070  0.00  0.00    +0.000 A 
ATOM     11  C   UNL     1       0.944   9.541  20.176  0.00  0.00    +0.000 A 
ATOM     12  C   UNL     1       1.061  10.412  19.088  0.00  0.00    +0.000 A 
ATOM     13  C   UNL     1       1.692  10.004  17.917  0.00  0.00    +0.000 A 
ATOM     14  C   UNL     1       2.240   8.723  17.804  0.00  0.00    +0.000 A 
ATOM     15  C   UNL     1       2.138   7.858  18.909  0.00  0.00    +0.000 A 
ENDBRANCH   5   7
BRANCH   1  17
ATOM     16  C   UNL     1       7.873   4.519  17.616  0.00  0.00    +0.000 C 
ATOM     17  C   UNL     1       6.958   5.562  16.968  0.00  0.00    +0.000 C 
ATOM     18  C   UNL     1       7.304   6.977  17.452  0.00  0.00    +0.000 C 
BRANCH  17  19
ATOM     19  O   UNL     1       7.219   5.521  15.557  0.00  0.00    +0.000 OA
ATOM     20  H   UNL     1       6.833   4.701  15.207  0.00  0.00    +0.000 HD
ENDBRANCH  17  19
ENDBRANCH   1  17
TORSDOF 3
ENDMDL
MODEL 5
REMARK VINA RESULT:      -7.1      3.629      5.777
REMARK  Name = 
REMARK  5 active torsions:
REMARK  status: ('A' for Active; 'I' for Inactive)
REMARK    1  A    between atoms: C_1  and  C_2
REMARK    2  A    between atoms: C_2  and  C_3
REMARK    3  A    between atoms: C_2  and  O_4
REMARK    4  A    between atoms: C_2  and  C_5
REMARK    5  A    between atoms: C_9  and  N_10
REMARK                            x       y       z     vdW  Elec       q    Type
REMARK                         _______ _______ _______ _____ _____    ______ ____
ROOT
ATOM      1  C   UNL     1       5.030   5.278  17.544  0.00  0.00    +0.000 A 
ATOM      2  C   UNL     1       4.185   4.168  17.577  0.00  0.00    +0.000 A 
ATOM      3  N   UNL     1       2.864   4.210  17.870  0.00  0.00    +0.000 NA
ATOM      4  C   UNL     1       2.336   5.429  18.137  0.00  0.00    +0.000 A 
ATOM      5  C   UNL     1       3.066   6.604  18.074  0.00  0.00    +0.000 A 
ATOM      6  C   UNL     1       4.431   6.521  17.791  0.00  0.00    +0.000 A 
ENDROOT
BRANCH   5   7
ATOM      7  N   UNL     1       2.433   7.842  18.321  0.00  0.00    +0.000 N 
ATOM      8  N   UNL     1       2.443   8.810  17.364  0.00  0.00    +0.000 NA
ATOM      9  C   UNL     1       1.630   9.751  17.842  0.00  0.00    +0.000 A 
ATOM     10  C   UNL     1       1.197   9.486  19.155  0.00  0.00    +0.000 A 
ATOM     11  C   UNL     1       0.422  10.165  20.114  0.00  0.00    +0.000 A 
ATOM     12  C   UNL     1       0.273   9.605  21.387  0.00  0.00    +0.000 A 
ATOM     13  C   UNL     1       0.878   8.393  21.705  0.00  0.00    +0.000 A 
ATOM     14  C   UNL     1       1.631   7.695  20.757  0.00  0.00    +0.000 A 
ATOM     15  C   UNL     1       1.760   8.252  19.471  0.00  0.00    +0.000 A 
ENDBRANCH   5   7
BRANCH   1  17
ATOM     16  C   UNL     1       7.259   6.469  17.491  0.00  0.00    +0.000 C 
ATOM     17  C   UNL     1       6.524   5.138  17.308  0.00  0.00    +0.000 C 
ATOM     18  C   UNL     1       6.788   4.550  15.914  0.00  0.00    +0.000 C 
BRANCH  17  19
ATOM     19  O   UNL     1       7.079   4.224  18.265  0.00  0.00    +0.000 OA
ATOM     20  H   UNL     1       6.377   3.993  18.897  0.00  0.00    +0.000 HD
ENDBRANCH  17  19
ENDBRANCH   1  17
TORSDOF 3
ENDMDL
MODEL 6
REMARK VINA RESULT:      -7.1      3.738      6.020
REMARK  Name = 
REMARK  5 active torsions:
REMARK  status: ('A' for Active; 'I' for Inactive)
REMARK    1  A    between atoms: C_1  and  C_2
REMARK    2  A    between atoms: C_2  and  C_3
REMARK    3  A    between atoms: C_2  and  O_4
REMARK    4  A    between atoms: C_2  and  C_5
REMARK    5  A    between atoms: C_9  and  N_10
REMARK                            x       y       z     vdW  Elec       q    Type
REMARK                         _______ _______ _______ _____ _____    ______ ____
ROOT
ATOM      1  C   UNL     1       5.405   5.792  17.326  0.00  0.00    +0.000 A 
ATOM      2  C   UNL     1       4.702   4.587  17.314  0.00  0.00    +0.000 A 
ATOM      3  N   UNL     1       3.389   4.454  17.616  0.00  0.00    +0.000 NA
ATOM      4  C   UNL     1       2.720   5.586  17.941  0.00  0.00    +0.000 A 
ATOM      5  C   UNL     1       3.301   6.843  17.927  0.00  0.00    +0.000 A 
ATOM      6  C   UNL     1       4.663   6.940  17.633  0.00  0.00    +0.000 A 
ENDROOT
BRANCH   5   7
ATOM      7  N   UNL     1       2.526   7.983  18.235  0.00  0.00    +0.000 N 
ATOM      8  N   UNL     1       2.403   8.984  17.321  0.00  0.00    +0.000 NA
ATOM      9  C   UNL     1       1.488   9.797  17.847  0.00  0.00    +0.000 A 
ATOM     10  C   UNL     1       1.110   9.426  19.151  0.00  0.00    +0.000 A 
ATOM     11  C   UNL     1       0.272   9.963  20.146  0.00  0.00    +0.000 A 
ATOM     12  C   UNL     1       0.211   9.336  21.395  0.00  0.00    +0.000 A 
ATOM     13  C   UNL     1       0.964   8.195  21.653  0.00  0.00    +0.000 A 
ATOM     14  C   UNL     1       1.783   7.635  20.669  0.00  0.00    +0.000 A 
ATOM     15  C   UNL     1       1.824   8.258  19.407  0.00  0.00    +0.000 A 
ENDBRANCH   5   7
BRANCH   1  17
ATOM     16  C   UNL     1       7.631   4.656  17.708  0.00  0.00    +0.000 C 
ATOM     17  C   UNL     1       6.903   5.845  17.075  0.00  0.00    +0.000 C 
ATOM     18  C   UNL     1       7.478   7.176  17.580  0.00  0.00    +0.000 C 
BRANCH  17  19
ATOM     19  O   UNL     1       7.157   5.781  15.664  0.00  0.00    +0.000 OA
ATOM     20  H   UNL     1       6.569   5.107  15.286  0.00  0.00    +0.000 HD
ENDBRANCH  17  19
ENDBRANCH   1  17
TORSDOF 3
ENDMDL
MODEL 7
REMARK VINA RESULT:      -7.1      3.813      6.065
REMARK  Name = 
REMARK  5 active torsions:
REMARK  status: ('A' for Active; 'I' for Inactive)
REMARK    1  A    between atoms: C_1  and  C_2
REMARK    2  A    between atoms: C_2  and  C_3
REMARK    3  A    between atoms: C_2  and  O_4
REMARK    4  A    between atoms: C_2  and  C_5
REMARK    5  A    between atoms: C_9  and  N_10
REMARK                            x       y       z     vdW  Elec       q    Type
REMARK                         _______ _______ _______ _____ _____    ______ ____
ROOT
ATOM      1  C   UNL     1       1.096   9.221  19.901  0.00  0.00    +0.000 A 
ATOM      2  C   UNL     1       1.253   9.820  18.650  0.00  0.00    +0.000 A 
ATOM      3  N   UNL     1       1.974   9.302  17.629  0.00  0.00    +0.000 NA
ATOM      4  C   UNL     1       2.572   8.106  17.849  0.00  0.00    +0.000 A 
ATOM      5  C   UNL     1       2.435   7.393  19.029  0.00  0.00    +0.000 A 
ATOM      6  C   UNL     1       1.702   7.969  20.069  0.00  0.00    +0.000 A 
ENDROOT
BRANCH   5   7
ATOM      7  N   UNL     1       3.053   6.131  19.166  0.00  0.00    +0.000 N 
ATOM      8  N   UNL     1       4.294   5.925  18.648  0.00  0.00    +0.000 NA
ATOM      9  C   UNL     1       4.641   4.720  19.097  0.00  0.00    +0.000 A 
ATOM     10  C   UNL     1       3.598   4.070  19.784  0.00  0.00    +0.000 A 
ATOM     11  C   UNL     1       3.417   2.803  20.369  0.00  0.00    +0.000 A 
ATOM     12  C   UNL     1       2.166   2.475  20.905  0.00  0.00    +0.000 A 
ATOM     13  C   UNL     1       1.116   3.385  20.864  0.00  0.00    +0.000 A 
ATOM     14  C   UNL     1       1.286   4.656  20.308  0.00  0.00    +0.000 A 
ATOM     15  C   UNL     1       2.552   4.989  19.790  0.00  0.00    +0.000 A 
ENDBRANCH   5   7
BRANCH   1  17
ATOM     16  C   UNL     1      -0.300   8.912  21.985  0.00  0.00    +0.000 C 
ATOM     17  C   UNL     1       0.355   9.915  21.031  0.00  0.00    +0.000 C 
ATOM     18  C   UNL     1      -0.682  10.895  20.464  0.00  0.00    +0.000 C 
BRANCH  17  19
ATOM     19  O   UNL     1       1.281  10.683  21.813  0.00  0.00    +0.000 OA
ATOM     20  H   UNL     1       0.794  11.427  22.206  0.00  0.00    +0.000 HD
ENDBRANCH  17  19
ENDBRANCH   1  17
TORSDOF 3
ENDMDL
MODEL 8
REMARK VINA RESULT:      -7.1      3.672      6.321
REMARK  Name = 
REMARK  5 active torsions:
REMARK  status: ('A' for Active; 'I' for Inactive)
REMARK    1  A    between atoms: C_1  and  C_2
REMARK    2  A    between atoms: C_2  and  C_3
REMARK    3  A    between atoms: C_2  and  O_4
REMARK    4  A    between atoms: C_2  and  C_5
REMARK    5  A    between atoms: C_9  and  N_10
REMARK                            x       y       z     vdW  Elec       q    Type
REMARK                         _______ _______ _______ _____ _____    ______ ____
ROOT
ATOM      1  C   UNL     1       6.241   4.064  13.752  0.00  0.00    +0.000 A 
ATOM      2  C   UNL     1       7.355   4.832  14.093  0.00  0.00    +0.000 A 
ATOM      3  N   UNL     1       7.531   5.454  15.282  0.00  0.00    +0.000 NA
ATOM      4  C   UNL     1       6.550   5.301  16.203  0.00  0.00    +0.000 A 
ATOM      5  C   UNL     1       5.429   4.513  15.996  0.00  0.00    +0.000 A 
ATOM      6  C   UNL     1       5.269   3.904  14.749  0.00  0.00    +0.000 A 
ENDROOT
BRANCH   5   7
ATOM      7  N   UNL     1       4.470   4.365  17.022  0.00  0.00    +0.000 N 
ATOM      8  N   UNL     1       4.107   3.120  17.434  0.00  0.00    +0.000 NA
ATOM      9  C   UNL     1       3.342   3.340  18.503  0.00  0.00    +0.000 A 
ATOM     10  C   UNL     1       3.080   4.706  18.718  0.00  0.00    +0.000 A 
ATOM     11  C   UNL     1       2.298   5.449  19.622  0.00  0.00    +0.000 A 
ATOM     12  C   UNL     1       2.216   6.837  19.468  0.00  0.00    +0.000 A 
ATOM     13  C   UNL     1       2.898   7.478  18.439  0.00  0.00    +0.000 A 
ATOM     14  C   UNL     1       3.697   6.758  17.547  0.00  0.00    +0.000 A 
ATOM     15  C   UNL     1       3.794   5.365  17.720  0.00  0.00    +0.000 A 
ENDBRANCH   5   7
BRANCH   1  17
ATOM     16  C   UNL     1       7.076   4.069  11.366  0.00  0.00    +0.000 C 
ATOM     17  C   UNL     1       6.068   3.482  12.359  0.00  0.00    +0.000 C 
ATOM     18  C   UNL     1       4.628   3.692  11.872  0.00  0.00    +0.000 C 
BRANCH  17  19
ATOM     19  O   UNL     1       6.302   2.067  12.396  0.00  0.00    +0.000 OA
ATOM     20  H   UNL     1       7.162   1.896  11.979  0.00  0.00    +0.000 HD
ENDBRANCH  17  19
ENDBRANCH   1  17
TORSDOF 3
ENDMDL
MODEL 9
REMARK VINA RESULT:      -7.0      3.239      4.750
REMARK  Name = 
REMARK  5 active torsions:
REMARK  status: ('A' for Active; 'I' for Inactive)
REMARK    1  A    between atoms: C_1  and  C_2
REMARK    2  A    between atoms: C_2  and  C_3
REMARK    3  A    between atoms: C_2  and  O_4
REMARK    4  A    between atoms: C_2  and  C_5
REMARK    5  A    between atoms: C_9  and  N_10
REMARK                            x       y       z     vdW  Elec       q    Type
REMARK                         _______ _______ _______ _____ _____    ______ ____
ROOT
ATOM      1  C   UNL     1       2.745   3.896  19.013  0.00  0.00    +0.000 A 
ATOM      2  C   UNL     1       4.084   3.819  18.628  0.00  0.00    +0.000 A 
ATOM      3  N   UNL     1       4.833   4.871  18.222  0.00  0.00    +0.000 NA
ATOM      4  C   UNL     1       4.227   6.083  18.204  0.00  0.00    +0.000 A 
ATOM      5  C   UNL     1       2.922   6.285  18.622  0.00  0.00    +0.000 A 
ATOM      6  C   UNL     1       2.171   5.174  19.013  0.00  0.00    +0.000 A 
ENDROOT
BRANCH   5   7
ATOM      7  N   UNL     1       2.373   7.587  18.616  0.00  0.00    +0.000 N 
ATOM      8  N   UNL     1       2.487   8.364  17.505  0.00  0.00    +0.000 NA
ATOM      9  C   UNL     1       1.729   9.427  17.771  0.00  0.00    +0.000 A 
ATOM     10  C   UNL     1       1.232   9.431  19.087  0.00  0.00    +0.000 A 
ATOM     11  C   UNL     1       0.475  10.320  19.873  0.00  0.00    +0.000 A 
ATOM     12  C   UNL     1       0.241  10.009  21.217  0.00  0.00    +0.000 A 
ATOM     13  C   UNL     1       0.744   8.836  21.772  0.00  0.00    +0.000 A 
ATOM     14  C   UNL     1       1.477   7.931  20.999  0.00  0.00    +0.000 A 
ATOM     15  C   UNL     1       1.691   8.239  19.642  0.00  0.00    +0.000 A 
ENDBRANCH   5   7
BRANCH   1  17
ATOM     16  C   UNL     1       0.543   2.687  18.736  0.00  0.00    +0.000 C 
ATOM     17  C   UNL     1       1.941   2.653  19.358  0.00  0.00    +0.000 C 
ATOM     18  C   UNL     1       1.863   2.479  20.882  0.00  0.00    +0.000 C 
BRANCH  17  19
ATOM     19  O   UNL     1       2.600   1.492  18.832  0.00  0.00    +0.000 OA
ATOM     20  H   UNL     1       2.675   1.604  17.869  0.00  0.00    +0.000 HD
ENDBRANCH  17  19
ENDBRANCH   1  17
TORSDOF 3
ENDMDL
