MODEL 1
REMARK VINA RESULT:      -7.0      0.000      0.000
REMARK  Name = 
REMARK  5 active torsions:
REMARK  status: ('A' for Active; 'I' for Inactive)
REMARK    1  A    between atoms: C_1  and  C_2
REMARK    2  A    between atoms: N_4  and  C_5
REMARK    3  A    between atoms: C_7  and  C_8
REMARK    4  A    between atoms: C_10  and  C_11
REMARK    5  A    between atoms: C_11  and  O_12
REMARK                            x       y       z     vdW  Elec       q    Type
REMARK                         _______ _______ _______ _____ _____    ______ ____
ROOT
ATOM      1  C   UNL     1       5.068   4.966  14.276  0.00  0.00    +0.000 C 
ATOM      2  C   UNL     1       5.770   4.793  15.583  0.00  0.00    +0.000 A 
ATOM      3  C   UNL     1       5.156   4.723  16.773  0.00  0.00    +0.000 A 
ATOM      4  N   UNL     1       5.839   4.601  17.973  0.00  0.00    +0.000 N 
ATOM      5  C   UNL     1       7.234   4.716  17.989  0.00  0.00    +0.000 A 
ATOM      6  O   UNL     1       7.927   4.862  18.993  0.00  0.00    +0.000 OA
ATOM      7  N   UNL     1       7.851   4.639  16.770  0.00  0.00    +0.000 N 
ATOM      8  C   UNL     1       7.242   4.725  15.555  0.00  0.00    +0.000 A 
ATOM      9  O   UNL     1       7.877   4.782  14.508  0.00  0.00    +0.000 OA
ATOM     10  H   UNL     1       8.859   4.671  16.777  0.00  0.00    +0.000 HD
ENDROOT
BRANCH   4  11
ATOM     11  C   UNL     1       5.145   4.635  19.269  0.00  0.00    +0.000 C 
ATOM     12  C   UNL     1       3.705   5.156  19.318  0.00  0.00    +0.000 C 
ATOM     13  C   UNL     1       2.811   3.928  19.461  0.00  0.00    +0.000 C 
ATOM     14  C   UNL     1       3.762   2.745  19.417  0.00  0.00    +0.000 C 
ATOM     15  O   UNL     1       5.038   3.296  19.784  0.00  0.00    +0.000 OA
BRANCH  13  16
ATOM     16  C   UNL     1       1.749   3.890  18.456  0.00  0.00    +0.000 C 
ATOM     17  N   UNL     1       0.903   3.842  17.666  0.00  0.00    +0.000 NA
ENDBRANCH  13  16
BRANCH  14  18
ATOM     18  C   UNL     1       3.899   2.002  18.077  0.00  0.00    +0.000 C 
BRANCH  18  19
ATOM     19  O   UNL     1       4.088   0.607  18.313  0.00  0.00    +0.000 OA
ATOM     20  H   UNL     1       4.607   0.528  19.141  0.00  0.00    +0.000 HD
ENDBRANCH  18  19
ENDBRANCH  14  18
ENDBRANCH   4  11
TORSDOF 4
ENDMDL
MODEL 2
REMARK VINA RESULT:      -7.0      2.873      5.342
REMARK  Name = 
REMARK  5 active torsions:
REMARK  status: ('A' for Active; 'I' for Inactive)
REMARK    1  A    between atoms: C_1  and  C_2
REMARK    2  A    between atoms: N_4  and  C_5
REMARK    3  A    between atoms: C_7  and  C_8
REMARK    4  A    between atoms: C_10  and  C_11
REMARK    5  A    between atoms: C_11  and  O_12
REMARK                            x       y       z     vdW  Elec       q    Type
REMARK                         _______ _______ _______ _____ _____    ______ ____
ROOT
ATOM      1  C   UNL     1       2.062   8.937  17.855  0.00  0.00    +0.000 C 
ATOM      2  C   UNL     1       2.225   7.726  18.713  0.00  0.00    +0.000 A 
ATOM      3  C   UNL     1       2.707   6.550  18.288  0.00  0.00    +0.000 A 
ATOM      4  N   UNL     1       2.809   5.432  19.102  0.00  0.00    +0.000 N 
ATOM      5  C   UNL     1       2.241   5.455  20.381  0.00  0.00    +0.000 A 
ATOM      6  O   UNL     1       2.055   4.474  21.097  0.00  0.00    +0.000 OA
ATOM      7  N   UNL     1       1.887   6.690  20.853  0.00  0.00    +0.000 N 
ATOM      8  C   UNL     1       1.791   7.833  20.119  0.00  0.00    +0.000 A 
ATOM      9  O   UNL     1       1.338   8.873  20.584  0.00  0.00    +0.000 OA
ATOM     10  H   UNL     1       1.523   6.721  21.793  0.00  0.00    +0.000 HD
ENDROOT
BRANCH   4  11
ATOM     11  C   UNL     1       3.242   4.127  18.580  0.00  0.00    +0.000 C 
ATOM     12  C   UNL     1       3.607   4.015  17.095  0.00  0.00    +0.000 C 
ATOM     13  C   UNL     1       5.130   3.960  17.033  0.00  0.00    +0.000 C 
ATOM     14  C   UNL     1       5.586   4.115  18.474  0.00  0.00    +0.000 C 
ATOM     15  O   UNL     1       4.446   3.723  19.256  0.00  0.00    +0.000 OA
BRANCH  13  16
ATOM     16  C   UNL     1       5.688   4.949  16.111  0.00  0.00    +0.000 C 
ATOM     17  N   UNL     1       6.110   5.735  15.373  0.00  0.00    +0.000 NA
ENDBRANCH  13  16
BRANCH  14  18
ATOM     18  C   UNL     1       6.048   5.514  18.919  0.00  0.00    +0.000 C 
BRANCH  18  19
ATOM     19  O   UNL     1       7.085   5.395  19.891  0.00  0.00    +0.000 OA
ATOM     20  H   UNL     1       7.284   6.302  20.206  0.00  0.00    +0.000 HD
ENDBRANCH  18  19
ENDBRANCH  14  18
ENDBRANCH   4  11
TORSDOF 4
ENDMDL
MODEL 3
REMARK VINA RESULT:      -6.9      1.205      1.285
REMARK  Name = 
REMARK  5 active torsions:
REMARK  status: ('A' for Active; 'I' for Inactive)
REMARK    1  A    between atoms: C_1  and  C_2
REMARK    2  A    between atoms: N_4  and  C_5
REMARK    3  A    between atoms: C_7  and  C_8
REMARK    4  A    between atoms: C_10  and  C_11
REMARK    5  A    between atoms: C_11  and  O_12
REMARK                            x       y       z     vdW  Elec       q    Type
REMARK                         _______ _______ _______ _____ _____    ______ ____
ROOT
ATOM      1  C   UNL     1       5.230   4.756  14.645  0.00  0.00    +0.000 C 
ATOM      2  C   UNL     1       5.557   4.810  16.101  0.00  0.00    +0.000 A 
ATOM      3  C   UNL     1       4.658   5.001  17.076  0.00  0.00    +0.000 A 
ATOM      4  N   UNL     1       5.000   5.086  18.418  0.00  0.00    +0.000 N 
ATOM      5  C   UNL     1       6.350   5.141  18.785  0.00  0.00    +0.000 A 
ATOM      6  O   UNL     1       6.775   5.451  19.895  0.00  0.00    +0.000 OA
ATOM      7  N   UNL     1       7.246   4.801  17.807  0.00  0.00    +0.000 N 
ATOM      8  C   UNL     1       6.976   4.675  16.479  0.00  0.00    +0.000 A 
ATOM      9  O   UNL     1       7.859   4.500  15.646  0.00  0.00    +0.000 OA
ATOM     10  H   UNL     1       8.217   4.791  18.078  0.00  0.00    +0.000 HD
ENDROOT
BRANCH   4  11
ATOM     11  C   UNL     1       4.006   5.401  19.455  0.00  0.00    +0.000 C 
ATOM     12  C   UNL     1       2.518   5.324  19.094  0.00  0.00    +0.000 C 
ATOM     13  C   UNL     1       1.995   4.035  19.721  0.00  0.00    +0.000 C 
ATOM     14  C   UNL     1       3.212   3.386  20.355  0.00  0.00    +0.000 C 
ATOM     15  O   UNL     1       4.141   4.467  20.540  0.00  0.00    +0.000 OA
BRANCH  13  16
ATOM     16  C   UNL     1       1.290   3.191  18.756  0.00  0.00    +0.000 C 
ATOM     17  N   UNL     1       0.735   2.537  17.978  0.00  0.00    +0.000 NA
ENDBRANCH  13  16
BRANCH  14  18
ATOM     18  C   UNL     1       3.899   2.258  19.567  0.00  0.00    +0.000 C 
BRANCH  18  19
ATOM     19  O   UNL     1       5.193   2.005  20.110  0.00  0.00    +0.000 OA
ATOM     20  H   UNL     1       5.627   2.876  20.227  0.00  0.00    +0.000 HD
ENDBRANCH  18  19
ENDBRANCH  14  18
ENDBRANCH   4  11
TORSDOF 4
ENDMDL
MODEL 4
REMARK VINA RESULT:      -6.9      1.472      1.659
REMARK  Name = 
REMARK  5 active torsions:
REMARK  status: ('A' for Active; 'I' for Inactive)
REMARK    1  A    between atoms: C_1  and  C_2
REMARK    2  A    between atoms: N_4  and  C_5
REMARK    3  A    between atoms: C_7  and  C_8
REMARK    4  A    between atoms: C_10  and  C_11
REMARK    5  A    between atoms: C_11  and  O_12
REMARK                            x       y       z     vdW  Elec       q    Type
REMARK                         _______ _______ _______ _____ _____    ______ ____
ROOT
ATOM      1  C   UNL     1       5.313   4.042  13.844  0.00  0.00    +0.000 C 
ATOM      2  C   UNL     1       5.724   4.834  15.041  0.00  0.00    +0.000 A 
ATOM      3  C   UNL     1       4.921   5.125  16.073  0.00  0.00    +0.000 A 
ATOM      4  N   UNL     1       5.323   5.896  17.154  0.00  0.00    +0.000 N 
ATOM      5  C   UNL     1       6.562   6.547  17.115  0.00  0.00    +0.000 A 
ATOM      6  O   UNL     1       6.926   7.432  17.885  0.00  0.00    +0.000 OA
ATOM      7  N   UNL     1       7.423   6.129  16.137  0.00  0.00    +0.000 N 
ATOM      8  C   UNL     1       7.104   5.353  15.065  0.00  0.00    +0.000 A 
ATOM      9  O   UNL     1       7.899   5.131  14.158  0.00  0.00    +0.000 OA
ATOM     10  H   UNL     1       8.335   6.558  16.133  0.00  0.00    +0.000 HD
ENDROOT
BRANCH   4  11
ATOM     11  C   UNL     1       4.388   6.288  18.220  0.00  0.00    +0.000 C 
ATOM     12  C   UNL     1       2.903   5.947  18.056  0.00  0.00    +0.000 C 
ATOM     13  C   UNL     1       2.635   4.759  18.974  0.00  0.00    +0.000 C 
ATOM     14  C   UNL     1       3.986   4.416  19.575  0.00  0.00    +0.000 C 
ATOM     15  O   UNL     1       4.756   5.622  19.440  0.00  0.00    +0.000 OA
BRANCH  13  16
ATOM     16  C   UNL     1       1.982   3.651  18.277  0.00  0.00    +0.000 C 
ATOM     17  N   UNL     1       1.448   2.784  17.725  0.00  0.00    +0.000 NA
ENDBRANCH  13  16
BRANCH  14  18
ATOM     18  C   UNL     1       4.762   3.247  18.943  0.00  0.00    +0.000 C 
BRANCH  18  19
ATOM     19  O   UNL     1       5.076   2.277  19.941  0.00  0.00    +0.000 OA
ATOM     20  H   UNL     1       5.877   1.803  19.632  0.00  0.00    +0.000 HD
ENDBRANCH  18  19
ENDBRANCH  14  18
ENDBRANCH   4  11
TORSDOF 4
ENDMDL
MODEL 5
REMARK VINA RESULT:      -6.8      2.267      5.462
REMARK  Name = 
REMARK  5 active torsions:
REMARK  status: ('A' for Active; 'I' for Inactive)
REMARK    1  A    between atoms: C_1  and  C_2
REMARK    2  A    between atoms: N_4  and  C_5
REMARK    3  A    between atoms: C_7  and  C_8
REMARK    4  A    between atoms: C_10  and  C_11
REMARK    5  A    between atoms: C_11  and  O_12
REMARK                            x       y       z     vdW  Elec       q    Type
REMARK                         _______ _______ _______ _____ _____    ______ ____
ROOT
ATOM      1  C   UNL     1       2.087   7.858  19.159  0.00  0.00    +0.000 C 
ATOM      2  C   UNL     1       2.783   6.538  19.130  0.00  0.00    +0.000 A 
ATOM      3  C   UNL     1       3.798   6.230  18.311  0.00  0.00    +0.000 A 
ATOM      4  N   UNL     1       4.398   4.980  18.282  0.00  0.00    +0.000 N 
ATOM      5  C   UNL     1       3.835   3.926  19.011  0.00  0.00    +0.000 A 
ATOM      6  O   UNL     1       4.122   2.739  18.885  0.00  0.00    +0.000 OA
ATOM      7  N   UNL     1       2.900   4.282  19.946  0.00  0.00    +0.000 N 
ATOM      8  C   UNL     1       2.291   5.495  20.049  0.00  0.00    +0.000 A 
ATOM      9  O   UNL     1       1.365   5.697  20.828  0.00  0.00    +0.000 OA
ATOM     10  H   UNL     1       2.526   3.535  20.509  0.00  0.00    +0.000 HD
ENDROOT
BRANCH   4  11
ATOM     11  C   UNL     1       5.438   4.640  17.299  0.00  0.00    +0.000 C 
ATOM     12  C   UNL     1       6.030   5.762  16.439  0.00  0.00    +0.000 C 
ATOM     13  C   UNL     1       7.410   6.060  17.018  0.00  0.00    +0.000 C 
ATOM     14  C   UNL     1       7.530   5.152  18.229  0.00  0.00    +0.000 C 
ATOM     15  O   UNL     1       6.581   4.100  17.986  0.00  0.00    +0.000 OA
BRANCH  13  16
ATOM     16  C   UNL     1       7.600   7.481  17.304  0.00  0.00    +0.000 C 
ATOM     17  N   UNL     1       7.737   8.612  17.516  0.00  0.00    +0.000 NA
ENDBRANCH  13  16
BRANCH  14  18
ATOM     18  C   UNL     1       7.251   5.777  19.607  0.00  0.00    +0.000 C 
BRANCH  18  19
ATOM     19  O   UNL     1       8.206   5.304  20.557  0.00  0.00    +0.000 OA
ATOM     20  H   UNL     1       8.177   4.325  20.524  0.00  0.00    +0.000 HD
ENDBRANCH  18  19
ENDBRANCH  14  18
ENDBRANCH   4  11
TORSDOF 4
ENDMDL
MODEL 6
REMARK VINA RESULT:      -6.6      2.364      3.685
REMARK  Name = 
REMARK  5 active torsions:
REMARK  status: ('A' for Active; 'I' for Inactive)
REMARK    1  A    between atoms: C_1  and  C_2
REMARK    2  A    between atoms: N_4  and  C_5
REMARK    3  A    between atoms: C_7  and  C_8
REMARK    4  A    between atoms: C_10  and  C_11
REMARK    5  A    between atoms: C_11  and  O_12
REMARK                            x       y       z     vdW  Elec       q    Type
REMARK                         _______ _______ _______ _____ _____    ______ ____
ROOT
ATOM      1  C   UNL     1       5.973   6.936  17.185  0.00  0.00    +0.000 C 
ATOM      2  C   UNL     1       5.421   5.624  17.636  0.00  0.00    +0.000 A 
ATOM      3  C   UNL     1       4.141   5.250  17.501  0.00  0.00    +0.000 A 
ATOM      4  N   UNL     1       3.651   4.039  17.966  0.00  0.00    +0.000 N 
ATOM      5  C   UNL     1       4.467   3.221  18.758  0.00  0.00    +0.000 A 
ATOM      6  O   UNL     1       4.086   2.258  19.417  0.00  0.00    +0.000 OA
ATOM      7  N   UNL     1       5.799   3.538  18.764  0.00  0.00    +0.000 N 
ATOM      8  C   UNL     1       6.351   4.694  18.303  0.00  0.00    +0.000 A 
ATOM      9  O   UNL     1       7.536   4.963  18.465  0.00  0.00    +0.000 OA
ATOM     10  H   UNL     1       6.400   2.926  19.292  0.00  0.00    +0.000 HD
ENDROOT
BRANCH   4  11
ATOM     11  C   UNL     1       2.221   3.701  17.899  0.00  0.00    +0.000 C 
ATOM     12  C   UNL     1       1.693   2.564  18.781  0.00  0.00    +0.000 C 
ATOM     13  C   UNL     1       0.948   3.231  19.933  0.00  0.00    +0.000 C 
ATOM     14  C   UNL     1       1.136   4.721  19.711  0.00  0.00    +0.000 C 
ATOM     15  O   UNL     1       1.446   4.840  18.313  0.00  0.00    +0.000 OA
BRANCH  13  16
ATOM     16  C   UNL     1       1.396   2.751  21.240  0.00  0.00    +0.000 C 
ATOM     17  N   UNL     1       1.732   2.368  22.280  0.00  0.00    +0.000 NA
ENDBRANCH  13  16
BRANCH  14  18
ATOM     18  C   UNL     1       2.230   5.423  20.534  0.00  0.00    +0.000 C 
BRANCH  18  19
ATOM     19  O   UNL     1       2.322   6.794  20.149  0.00  0.00    +0.000 OA
ATOM     20  H   UNL     1       1.705   6.919  19.397  0.00  0.00    +0.000 HD
ENDBRANCH  18  19
ENDBRANCH  14  18
ENDBRANCH   4  11
TORSDOF 4
ENDMDL
MODEL 7
REMARK VINA RESULT:      -6.4      2.556      3.738
REMARK  Name = 
REMARK  5 active torsions:
REMARK  status: ('A' for Active; 'I' for Inactive)
REMARK    1  A    between atoms: C_1  and  C_2
REMARK    2  A    between atoms: N_4  and  C_5
REMARK    3  A    between atoms: C_7  and  C_8
REMARK    4  A    between atoms: C_10  and  C_11
REMARK    5  A    between atoms: C_11  and  O_12
REMARK                            x       y       z     vdW  Elec       q    Type
REMARK                         _______ _______ _______ _____ _____    ______ ____
ROOT
ATOM      1  C   UNL     1       8.184   5.518  19.889  0.00  0.00    +0.000 C 
ATOM      2  C   UNL     1       7.209   5.856  18.810  0.00  0.00    +0.000 A 
ATOM      3  C   UNL     1       6.134   5.119  18.497  0.00  0.00    +0.000 A 
ATOM      4  N   UNL     1       5.268   5.440  17.463  0.00  0.00    +0.000 N 
ATOM      5  C   UNL     1       5.594   6.483  16.587  0.00  0.00    +0.000 A 
ATOM      6  O   UNL     1       5.046   6.710  15.512  0.00  0.00    +0.000 OA
ATOM      7  N   UNL     1       6.603   7.311  16.999  0.00  0.00    +0.000 N 
ATOM      8  C   UNL     1       7.472   7.073  18.019  0.00  0.00    +0.000 A 
ATOM      9  O   UNL     1       8.434   7.800  18.243  0.00  0.00    +0.000 OA
ATOM     10  H   UNL     1       6.811   8.094  16.397  0.00  0.00    +0.000 HD
ENDROOT
BRANCH   4  11
ATOM     11  C   UNL     1       4.159   4.556  17.074  0.00  0.00    +0.000 C 
ATOM     12  C   UNL     1       4.086   3.155  17.692  0.00  0.00    +0.000 C 
ATOM     13  C   UNL     1       2.984   3.211  18.745  0.00  0.00    +0.000 C 
ATOM     14  C   UNL     1       2.515   4.655  18.745  0.00  0.00    +0.000 C 
ATOM     15  O   UNL     1       2.913   5.162  17.460  0.00  0.00    +0.000 OA
BRANCH  13  16
ATOM     16  C   UNL     1       3.431   2.719  20.048  0.00  0.00    +0.000 C 
ATOM     17  N   UNL     1       3.788   2.348  21.086  0.00  0.00    +0.000 NA
ENDBRANCH  13  16
BRANCH  14  18
ATOM     18  C   UNL     1       3.070   5.575  19.845  0.00  0.00    +0.000 C 
BRANCH  18  19
ATOM     19  O   UNL     1       2.071   5.798  20.840  0.00  0.00    +0.000 OA
ATOM     20  H   UNL     1       1.266   6.104  20.370  0.00  0.00    +0.000 HD
ENDBRANCH  18  19
ENDBRANCH  14  18
ENDBRANCH   4  11
TORSDOF 4
ENDMDL
MODEL 8
REMARK VINA RESULT:      -6.4      2.192      3.229
REMARK  Name = 
REMARK  5 active torsions:
REMARK  status: ('A' for Active; 'I' for Inactive)
REMARK    1  A    between atoms: C_1  and  C_2
REMARK    2  A    between atoms: N_4  and  C_5
REMARK    3  A    between atoms: C_7  and  C_8
REMARK    4  A    between atoms: C_10  and  C_11
REMARK    5  A    between atoms: C_11  and  O_12
REMARK                            x       y       z     vdW  Elec       q    Type
REMARK                         _______ _______ _______ _____ _____    ______ ____
ROOT
ATOM      1  C   UNL     1       5.523   6.097  15.548  0.00  0.00    +0.000 C 
ATOM      2  C   UNL     1       5.325   5.035  16.579  0.00  0.00    +0.000 A 
ATOM      3  C   UNL     1       4.248   4.241  16.656  0.00  0.00    +0.000 A 
ATOM      4  N   UNL     1       4.077   3.290  17.651  0.00  0.00    +0.000 N 
ATOM      5  C   UNL     1       4.971   3.246  18.727  0.00  0.00    +0.000 A 
ATOM      6  O   UNL     1       4.800   2.625  19.773  0.00  0.00    +0.000 OA
ATOM      7  N   UNL     1       6.132   3.953  18.564  0.00  0.00    +0.000 N 
ATOM      8  C   UNL     1       6.379   4.880  17.598  0.00  0.00    +0.000 A 
ATOM      9  O   UNL     1       7.393   5.569  17.597  0.00  0.00    +0.000 OA
ATOM     10  H   UNL     1       6.803   3.887  19.314  0.00  0.00    +0.000 HD
ENDROOT
BRANCH   4  11
ATOM     11  C   UNL     1       2.838   2.506  17.772  0.00  0.00    +0.000 C 
ATOM     12  C   UNL     1       2.566   1.760  19.083  0.00  0.00    +0.000 C 
ATOM     13  C   UNL     1       1.509   2.572  19.824  0.00  0.00    +0.000 C 
ATOM     14  C   UNL     1       1.264   3.788  18.948  0.00  0.00    +0.000 C 
ATOM     15  O   UNL     1       1.707   3.385  17.641  0.00  0.00    +0.000 OA
BRANCH  13  16
ATOM     16  C   UNL     1       1.904   2.883  21.197  0.00  0.00    +0.000 C 
ATOM     17  N   UNL     1       2.214   3.110  22.290  0.00  0.00    +0.000 NA
ENDBRANCH  13  16
BRANCH  14  18
ATOM     18  C   UNL     1       1.976   5.094  19.343  0.00  0.00    +0.000 C 
BRANCH  18  19
ATOM     19  O   UNL     1       2.016   5.981  18.226  0.00  0.00    +0.000 OA
ATOM     20  H   UNL     1       2.828   5.764  17.720  0.00  0.00    +0.000 HD
ENDBRANCH  18  19
ENDBRANCH  14  18
ENDBRANCH   4  11
TORSDOF 4
ENDMDL
MODEL 9
REMARK VINA RESULT:      -6.3      2.257      3.483
REMARK  Name = 
REMARK  5 active torsions:
REMARK  status: ('A' for Active; 'I' for Inactive)
REMARK    1  A    between atoms: C_1  and  C_2
REMARK    2  A    between atoms: N_4  and  C_5
REMARK    3  A    between atoms: C_7  and  C_8
REMARK    4  A    between atoms: C_10  and  C_11
REMARK    5  A    between atoms: C_11  and  O_12
REMARK                            x       y       z     vdW  Elec       q    Type
REMARK                         _______ _______ _______ _____ _____    ______ ____
ROOT
ATOM      1  C   UNL     1       7.433   5.518  19.788  0.00  0.00    +0.000 C 
ATOM      2  C   UNL     1       6.593   5.233  18.587  0.00  0.00    +0.000 A 
ATOM      3  C   UNL     1       5.609   4.325  18.544  0.00  0.00    +0.000 A 
ATOM      4  N   UNL     1       4.872   4.056  17.401  0.00  0.00    +0.000 N 
ATOM      5  C   UNL     1       5.257   4.626  16.181  0.00  0.00    +0.000 A 
ATOM      6  O   UNL     1       4.845   4.289  15.075  0.00  0.00    +0.000 OA
ATOM      7  N   UNL     1       6.159   5.653  16.263  0.00  0.00    +0.000 N 
ATOM      8  C   UNL     1       6.896   5.989  17.357  0.00  0.00    +0.000 A 
ATOM      9  O   UNL     1       7.781   6.836  17.314  0.00  0.00    +0.000 OA
ATOM     10  H   UNL     1       6.404   6.101  15.394  0.00  0.00    +0.000 HD
ENDROOT
BRANCH   4  11
ATOM     11  C   UNL     1       3.871   2.979  17.356  0.00  0.00    +0.000 C 
ATOM     12  C   UNL     1       3.708   2.077  18.583  0.00  0.00    +0.000 C 
ATOM     13  C   UNL     1       2.427   2.529  19.277  0.00  0.00    +0.000 C 
ATOM     14  C   UNL     1       1.941   3.717  18.467  0.00  0.00    +0.000 C 
ATOM     15  O   UNL     1       2.564   3.555  17.182  0.00  0.00    +0.000 OA
BRANCH  13  16
ATOM     16  C   UNL     1       2.630   2.806  20.699  0.00  0.00    +0.000 C 
ATOM     17  N   UNL     1       2.779   3.010  21.829  0.00  0.00    +0.000 NA
ENDBRANCH  13  16
BRANCH  14  18
ATOM     18  C   UNL     1       2.263   5.119  19.011  0.00  0.00    +0.000 C 
BRANCH  18  19
ATOM     19  O   UNL     1       2.237   6.071  17.948  0.00  0.00    +0.000 OA
ATOM     20  H   UNL     1       1.303   6.349  17.840  0.00  0.00    +0.000 HD
ENDBRANCH  18  19
ENDBRANCH  14  18
ENDBRANCH   4  11
TORSDOF 4
ENDMDL
