MODEL 1
REMARK VINA RESULT:      -6.5      0.000      0.000
REMARK  Name = 
REMARK  7 active torsions:
REMARK  status: ('A' for Active; 'I' for Inactive)
REMARK    1  A    between atoms: C_1  and  O_2
REMARK    2  A    between atoms: O_2  and  C_3
REMARK    3  A    between atoms: C_6  and  C_7
REMARK    4  A    between atoms: C_9  and  S_10
REMARK    5  A    between atoms: S_10  and  N_13
REMARK    6  A    between atoms: N_22  and  S_23
REMARK    7  A    between atoms: S_23  and  C_26
REMARK                            x       y       z     vdW  Elec       q    Type
REMARK                         _______ _______ _______ _____ _____    ______ ____
ROOT
ATOM      1  N   UNL     1      -1.496  14.011  21.036  0.00  0.00    +0.000 NA
ATOM      2  C   UNL     1      -2.476  12.987  20.629  0.00  0.00    +0.000 C 
ATOM      3  C   UNL     1      -3.173  12.335  21.807  0.00  0.00    +0.000 C 
ATOM      4  C   UNL     1      -3.739  13.311  22.835  0.00  0.00    +0.000 C 
ATOM      5  C   UNL     1      -2.892  14.583  23.037  0.00  0.00    +0.000 C 
ATOM      6  C   UNL     1      -2.147  15.097  21.811  0.00  0.00    +0.000 C 
ATOM      7  O   UNL     1      -3.604  12.573  24.086  0.00  0.00    +0.000 OA
ATOM      8  C   UNL     1      -4.838  12.537  24.787  0.00  0.00    +0.000 C 
ATOM      9  C   UNL     1      -5.905  12.869  23.782  0.00  0.00    +0.000 C 
ATOM     10  N   UNL     1      -5.193  13.591  22.732  0.00  0.00    +0.000 NA
ENDROOT
BRANCH   1  11
ATOM     11  S   UNL     1       0.038  13.502  21.574  0.00  0.00    +0.000 S 
ATOM     12  O   UNL     1      -0.095  13.200  22.972  0.00  0.00    +0.000 OA
ATOM     13  O   UNL     1       1.012  14.486  21.123  0.00  0.00    +0.000 OA
BRANCH  11  20
ATOM     14  C   UNL     1       0.737  12.018  19.285  0.00  0.00    +0.000 A 
ATOM     15  C   UNL     1       1.124  10.801  18.701  0.00  0.00    +0.000 A 
ATOM     16  C   UNL     1       1.055   9.600  19.415  0.00  0.00    +0.000 A 
ATOM     17  C   UNL     1       0.580   9.593  20.727  0.00  0.00    +0.000 A 
ATOM     18  C   UNL     1       0.383   8.308  21.480  0.00  0.00    +0.000 C 
ATOM     19  C   UNL     1       0.258  10.812  21.334  0.00  0.00    +0.000 A 
ATOM     20  C   UNL     1       0.363  12.028  20.633  0.00  0.00    +0.000 A 
BRANCH  14  22
ATOM     21  C   UNL     1       2.206  13.383  18.055  0.00  0.00    +0.000 C 
ATOM     22  O   UNL     1       0.863  13.108  18.472  0.00  0.00    +0.000 OA
ENDBRANCH  14  22
ENDBRANCH  11  20
ENDBRANCH   1  11
BRANCH  10  23
ATOM     23  S   UNL     1      -6.060  14.100  21.391  0.00  0.00    +0.000 S 
ATOM     24  O   UNL     1      -7.378  14.507  21.845  0.00  0.00    +0.000 OA
ATOM     25  O   UNL     1      -5.220  15.012  20.651  0.00  0.00    +0.000 OA
BRANCH  23  26
ATOM     26  C   UNL     1      -6.320  12.661  20.354  0.00  0.00    +0.000 A 
ATOM     27  C   UNL     1      -7.153  11.614  20.759  0.00  0.00    +0.000 A 
ATOM     28  C   UNL     1      -7.278  10.476  19.951  0.00  0.00    +0.000 A 
ATOM     29  C   UNL     1      -6.556  10.378  18.759  0.00  0.00    +0.000 A 
ATOM     30  C   UNL     1      -5.811  11.464  18.310  0.00  0.00    +0.000 A 
ATOM     31  C   UNL     1      -5.750  12.627  19.078  0.00  0.00    +0.000 A 
ENDBRANCH  23  26
ENDBRANCH  10  23
TORSDOF 5
ENDMDL
MODEL 2
REMARK VINA RESULT:      -6.4      8.749     11.928
REMARK  Name = 
REMARK  7 active torsions:
REMARK  status: ('A' for Active; 'I' for Inactive)
REMARK    1  A    between atoms: C_1  and  O_2
REMARK    2  A    between atoms: O_2  and  C_3
REMARK    3  A    between atoms: C_6  and  C_7
REMARK    4  A    between atoms: C_9  and  S_10
REMARK    5  A    between atoms: S_10  and  N_13
REMARK    6  A    between atoms: N_22  and  S_23
REMARK    7  A    between atoms: S_23  and  C_26
REMARK                            x       y       z     vdW  Elec       q    Type
REMARK                         _______ _______ _______ _____ _____    ______ ____
ROOT
ATOM      1  N   UNL     1       5.293   5.361  16.588  0.00  0.00    +0.000 NA
ATOM      2  C   UNL     1       4.321   4.274  16.372  0.00  0.00    +0.000 C 
ATOM      3  C   UNL     1       4.403   3.189  17.428  0.00  0.00    +0.000 C 
ATOM      4  C   UNL     1       4.404   3.697  18.867  0.00  0.00    +0.000 C 
ATOM      5  C   UNL     1       5.138   5.037  19.068  0.00  0.00    +0.000 C 
ATOM      6  C   UNL     1       5.080   6.017  17.902  0.00  0.00    +0.000 C 
ATOM      7  O   UNL     1       5.235   2.712  19.553  0.00  0.00    +0.000 OA
ATOM      8  C   UNL     1       4.568   2.198  20.696  0.00  0.00    +0.000 C 
ATOM      9  C   UNL     1       3.109   2.514  20.513  0.00  0.00    +0.000 C 
ATOM     10  N   UNL     1       3.102   3.634  19.577  0.00  0.00    +0.000 NA
ENDROOT
BRANCH   1  11
ATOM     11  S   UNL     1       6.909   5.115  16.109  0.00  0.00    +0.000 S 
ATOM     12  O   UNL     1       7.369   3.942  16.800  0.00  0.00    +0.000 OA
ATOM     13  O   UNL     1       7.612   6.381  16.260  0.00  0.00    +0.000 OA
BRANCH  11  20
ATOM     14  C   UNL     1       7.760   5.249  13.428  0.00  0.00    +0.000 A 
ATOM     15  C   UNL     1       7.648   4.813  12.098  0.00  0.00    +0.000 A 
ATOM     16  C   UNL     1       6.560   4.042  11.677  0.00  0.00    +0.000 A 
ATOM     17  C   UNL     1       5.552   3.703  12.580  0.00  0.00    +0.000 A 
ATOM     18  C   UNL     1       4.314   2.977  12.134  0.00  0.00    +0.000 C 
ATOM     19  C   UNL     1       5.694   4.078  13.920  0.00  0.00    +0.000 A 
ATOM     20  C   UNL     1       6.806   4.821  14.359  0.00  0.00    +0.000 A 
BRANCH  14  22
ATOM     21  C   UNL     1       9.571   6.453  12.532  0.00  0.00    +0.000 C 
ATOM     22  O   UNL     1       8.876   5.989  13.696  0.00  0.00    +0.000 OA
ENDBRANCH  14  22
ENDBRANCH  11  20
ENDBRANCH   1  11
BRANCH  10  23
ATOM     23  S   UNL     1       1.623   4.251  19.090  0.00  0.00    +0.000 S 
ATOM     24  O   UNL     1       1.447   3.924  17.686  0.00  0.00    +0.000 OA
ATOM     25  O   UNL     1       0.640   3.851  20.069  0.00  0.00    +0.000 OA
BRANCH  23  26
ATOM     26  C   UNL     1       1.747   6.038  19.166  0.00  0.00    +0.000 A 
ATOM     27  C   UNL     1       1.685   6.720  20.384  0.00  0.00    +0.000 A 
ATOM     28  C   UNL     1       1.718   8.121  20.397  0.00  0.00    +0.000 A 
ATOM     29  C   UNL     1       1.789   8.833  19.197  0.00  0.00    +0.000 A 
ATOM     30  C   UNL     1       1.955   8.150  17.996  0.00  0.00    +0.000 A 
ATOM     31  C   UNL     1       2.001   6.756  17.992  0.00  0.00    +0.000 A 
ENDBRANCH  23  26
ENDBRANCH  10  23
TORSDOF 5
ENDMDL
MODEL 3
REMARK VINA RESULT:      -6.3      3.381      7.318
REMARK  Name = 
REMARK  7 active torsions:
REMARK  status: ('A' for Active; 'I' for Inactive)
REMARK    1  A    between atoms: C_1  and  O_2
REMARK    2  A    between atoms: O_2  and  C_3
REMARK    3  A    between atoms: C_6  and  C_7
REMARK    4  A    between atoms: C_9  and  S_10
REMARK    5  A    between atoms: S_10  and  N_13
REMARK    6  A    between atoms: N_22  and  S_23
REMARK    7  A    between atoms: S_23  and  C_26
REMARK                            x       y       z     vdW  Elec       q    Type
REMARK                         _______ _______ _______ _____ _____    ______ ____
ROOT
ATOM      1  N   UNL     1      -0.435  13.197  19.848  0.00  0.00    +0.000 NA
ATOM      2  C   UNL     1       0.488  13.657  20.901  0.00  0.00    +0.000 C 
ATOM      3  C   UNL     1       1.940  13.631  20.467  0.00  0.00    +0.000 C 
ATOM      4  C   UNL     1       2.216  14.288  19.118  0.00  0.00    +0.000 C 
ATOM      5  C   UNL     1       1.089  14.109  18.081  0.00  0.00    +0.000 C 
ATOM      6  C   UNL     1      -0.329  14.044  18.634  0.00  0.00    +0.000 C 
ATOM      7  O   UNL     1       3.327  13.497  18.598  0.00  0.00    +0.000 OA
ATOM      8  C   UNL     1       4.401  14.336  18.201  0.00  0.00    +0.000 C 
ATOM      9  C   UNL     1       4.177  15.660  18.877  0.00  0.00    +0.000 C 
ATOM     10  N   UNL     1       2.746  15.673  19.168  0.00  0.00    +0.000 NA
ENDROOT
BRANCH   1  11
ATOM     11  S   UNL     1      -0.614  11.522  19.598  0.00  0.00    +0.000 S 
ATOM     12  O   UNL     1      -0.791  10.928  20.894  0.00  0.00    +0.000 OA
ATOM     13  O   UNL     1       0.471  11.087  18.731  0.00  0.00    +0.000 OA
BRANCH  11  20
ATOM     14  C   UNL     1      -3.350  11.865  19.025  0.00  0.00    +0.000 A 
ATOM     15  C   UNL     1      -4.408  11.839  18.102  0.00  0.00    +0.000 A 
ATOM     16  C   UNL     1      -4.252  11.259  16.838  0.00  0.00    +0.000 A 
ATOM     17  C   UNL     1      -3.035  10.680  16.479  0.00  0.00    +0.000 A 
ATOM     18  C   UNL     1      -2.870   9.948  15.177  0.00  0.00    +0.000 C 
ATOM     19  C   UNL     1      -1.959  10.765  17.370  0.00  0.00    +0.000 A 
ATOM     20  C   UNL     1      -2.098  11.381  18.628  0.00  0.00    +0.000 A 
BRANCH  14  22
ATOM     21  C   UNL     1      -4.986  12.961  20.311  0.00  0.00    +0.000 C 
ATOM     22  O   UNL     1      -3.645  12.466  20.215  0.00  0.00    +0.000 OA
ENDBRANCH  14  22
ENDBRANCH  11  20
ENDBRANCH   1  11
BRANCH  10  23
ATOM     23  S   UNL     1       2.112  16.999  19.973  0.00  0.00    +0.000 S 
ATOM     24  O   UNL     1       1.436  16.513  21.162  0.00  0.00    +0.000 OA
ATOM     25  O   UNL     1       3.158  17.990  20.071  0.00  0.00    +0.000 OA
BRANCH  23  26
ATOM     26  C   UNL     1       0.830  17.687  18.925  0.00  0.00    +0.000 A 
ATOM     27  C   UNL     1      -0.492  17.790  19.366  0.00  0.00    +0.000 A 
ATOM     28  C   UNL     1      -1.478  18.272  18.494  0.00  0.00    +0.000 A 
ATOM     29  C   UNL     1      -1.146  18.624  17.184  0.00  0.00    +0.000 A 
ATOM     30  C   UNL     1       0.187  18.618  16.782  0.00  0.00    +0.000 A 
ATOM     31  C   UNL     1       1.178  18.213  17.676  0.00  0.00    +0.000 A 
ENDBRANCH  23  26
ENDBRANCH  10  23
TORSDOF 5
ENDMDL
MODEL 4
REMARK VINA RESULT:      -6.3      1.775      6.685
REMARK  Name = 
REMARK  7 active torsions:
REMARK  status: ('A' for Active; 'I' for Inactive)
REMARK    1  A    between atoms: C_1  and  O_2
REMARK    2  A    between atoms: O_2  and  C_3
REMARK    3  A    between atoms: C_6  and  C_7
REMARK    4  A    between atoms: C_9  and  S_10
REMARK    5  A    between atoms: S_10  and  N_13
REMARK    6  A    between atoms: N_22  and  S_23
REMARK    7  A    between atoms: S_23  and  C_26
REMARK                            x       y       z     vdW  Elec       q    Type
REMARK                         _______ _______ _______ _____ _____    ______ ____
ROOT
ATOM      1  N   UNL     1      -4.933  12.611  22.528  0.00  0.00    +0.000 NA
ATOM      2  C   UNL     1      -3.991  12.623  21.395  0.00  0.00    +0.000 C 
ATOM      3  C   UNL     1      -3.585  14.023  20.978  0.00  0.00    +0.000 C 
ATOM      4  C   UNL     1      -3.137  14.926  22.124  0.00  0.00    +0.000 C 
ATOM      5  C   UNL     1      -3.890  14.694  23.449  0.00  0.00    +0.000 C 
ATOM      6  C   UNL     1      -4.344  13.266  23.722  0.00  0.00    +0.000 C 
ATOM      7  O   UNL     1      -3.568  16.248  21.678  0.00  0.00    +0.000 OA
ATOM      8  C   UNL     1      -2.495  17.175  21.734  0.00  0.00    +0.000 C 
ATOM      9  C   UNL     1      -1.233  16.359  21.792  0.00  0.00    +0.000 C 
ATOM     10  N   UNL     1      -1.670  15.064  22.305  0.00  0.00    +0.000 NA
ENDROOT
BRANCH   1  11
ATOM     11  S   UNL     1      -6.580  12.920  22.220  0.00  0.00    +0.000 S 
ATOM     12  O   UNL     1      -6.810  14.297  22.559  0.00  0.00    +0.000 OA
ATOM     13  O   UNL     1      -7.354  11.866  22.860  0.00  0.00    +0.000 OA
BRANCH  11  20
ATOM     14  C   UNL     1      -6.855  11.401  19.865  0.00  0.00    +0.000 A 
ATOM     15  C   UNL     1      -7.153  11.332  18.494  0.00  0.00    +0.000 A 
ATOM     16  C   UNL     1      -7.257  12.490  17.717  0.00  0.00    +0.000 A 
ATOM     17  C   UNL     1      -7.051  13.743  18.297  0.00  0.00    +0.000 A 
ATOM     18  C   UNL     1      -7.041  14.996  17.468  0.00  0.00    +0.000 C 
ATOM     19  C   UNL     1      -6.821  13.818  19.675  0.00  0.00    +0.000 A 
ATOM     20  C   UNL     1      -6.754  12.659  20.470  0.00  0.00    +0.000 A 
BRANCH  14  22
ATOM     21  C   UNL     1      -7.104   9.071  19.662  0.00  0.00    +0.000 C 
ATOM     22  O   UNL     1      -6.789  10.191  20.497  0.00  0.00    +0.000 OA
ENDBRANCH  14  22
ENDBRANCH  11  20
ENDBRANCH   1  11
BRANCH  10  23
ATOM     23  S   UNL     1      -0.526  13.851  22.473  0.00  0.00    +0.000 S 
ATOM     24  O   UNL     1       0.773  14.483  22.608  0.00  0.00    +0.000 OA
ATOM     25  O   UNL     1      -1.009  12.934  23.479  0.00  0.00    +0.000 OA
BRANCH  23  26
ATOM     26  C   UNL     1      -0.478  12.954  20.921  0.00  0.00    +0.000 A 
ATOM     27  C   UNL     1      -0.249  13.611  19.708  0.00  0.00    +0.000 A 
ATOM     28  C   UNL     1      -0.285  12.886  18.509  0.00  0.00    +0.000 A 
ATOM     29  C   UNL     1      -0.572  11.519  18.524  0.00  0.00    +0.000 A 
ATOM     30  C   UNL     1      -0.696  10.850  19.738  0.00  0.00    +0.000 A 
ATOM     31  C   UNL     1      -0.582  11.559  20.934  0.00  0.00    +0.000 A 
ENDBRANCH  23  26
ENDBRANCH  10  23
TORSDOF 5
ENDMDL
MODEL 5
REMARK VINA RESULT:      -6.2      1.069      2.389
REMARK  Name = 
REMARK  7 active torsions:
REMARK  status: ('A' for Active; 'I' for Inactive)
REMARK    1  A    between atoms: C_1  and  O_2
REMARK    2  A    between atoms: O_2  and  C_3
REMARK    3  A    between atoms: C_6  and  C_7
REMARK    4  A    between atoms: C_9  and  S_10
REMARK    5  A    between atoms: S_10  and  N_13
REMARK    6  A    between atoms: N_22  and  S_23
REMARK    7  A    between atoms: S_23  and  C_26
REMARK                            x       y       z     vdW  Elec       q    Type
REMARK                         _______ _______ _______ _____ _____    ______ ____
ROOT
ATOM      1  N   UNL     1      -1.417  14.000  21.236  0.00  0.00    +0.000 NA
ATOM      2  C   UNL     1      -2.397  13.002  20.772  0.00  0.00    +0.000 C 
ATOM      3  C   UNL     1      -3.133  12.323  21.910  0.00  0.00    +0.000 C 
ATOM      4  C   UNL     1      -3.713  13.274  22.953  0.00  0.00    +0.000 C 
ATOM      5  C   UNL     1      -2.858  14.528  23.217  0.00  0.00    +0.000 C 
ATOM      6  C   UNL     1      -2.075  15.070  22.027  0.00  0.00    +0.000 C 
ATOM      7  O   UNL     1      -3.620  12.495  24.184  0.00  0.00    +0.000 OA
ATOM      8  C   UNL     1      -4.872  12.453  24.852  0.00  0.00    +0.000 C 
ATOM      9  C   UNL     1      -5.909  12.830  23.831  0.00  0.00    +0.000 C 
ATOM     10  N   UNL     1      -5.161  13.575  22.822  0.00  0.00    +0.000 NA
ENDROOT
BRANCH   1  11
ATOM     11  S   UNL     1       0.097  13.456  21.797  0.00  0.00    +0.000 S 
ATOM     12  O   UNL     1      -0.122  12.163  22.383  0.00  0.00    +0.000 OA
ATOM     13  O   UNL     1       0.688  14.529  22.582  0.00  0.00    +0.000 OA
BRANCH  11  20
ATOM     14  C   UNL     1       1.354  12.127  19.656  0.00  0.00    +0.000 A 
ATOM     15  C   UNL     1       2.011  12.178  18.415  0.00  0.00    +0.000 A 
ATOM     16  C   UNL     1       2.477  13.388  17.891  0.00  0.00    +0.000 A 
ATOM     17  C   UNL     1       2.306  14.572  18.608  0.00  0.00    +0.000 A 
ATOM     18  C   UNL     1       2.896  15.869  18.129  0.00  0.00    +0.000 C 
ATOM     19  C   UNL     1       1.593  14.536  19.811  0.00  0.00    +0.000 A 
ATOM     20  C   UNL     1       1.087  13.327  20.325  0.00  0.00    +0.000 A 
BRANCH  14  22
ATOM     21  C   UNL     1      -0.145  10.354  19.280  0.00  0.00    +0.000 C 
ATOM     22  O   UNL     1       0.950  10.879  20.038  0.00  0.00    +0.000 OA
ENDBRANCH  14  22
ENDBRANCH  11  20
ENDBRANCH   1  11
BRANCH  10  23
ATOM     23  S   UNL     1      -5.987  14.136  21.476  0.00  0.00    +0.000 S 
ATOM     24  O   UNL     1      -7.310  14.548  21.908  0.00  0.00    +0.000 OA
ATOM     25  O   UNL     1      -5.116  15.058  20.784  0.00  0.00    +0.000 OA
BRANCH  23  26
ATOM     26  C   UNL     1      -6.240  12.732  20.390  0.00  0.00    +0.000 A 
ATOM     27  C   UNL     1      -7.071  11.670  20.756  0.00  0.00    +0.000 A 
ATOM     28  C   UNL     1      -7.190  10.559  19.909  0.00  0.00    +0.000 A 
ATOM     29  C   UNL     1      -6.465  10.504  18.717  0.00  0.00    +0.000 A 
ATOM     30  C   UNL     1      -5.721  11.607  18.308  0.00  0.00    +0.000 A 
ATOM     31  C   UNL     1      -5.665  12.743  19.115  0.00  0.00    +0.000 A 
ENDBRANCH  23  26
ENDBRANCH  10  23
TORSDOF 5
ENDMDL
MODEL 6
REMARK VINA RESULT:      -6.2      3.596      8.491
REMARK  Name = 
REMARK  7 active torsions:
REMARK  status: ('A' for Active; 'I' for Inactive)
REMARK    1  A    between atoms: C_1  and  O_2
REMARK    2  A    between atoms: O_2  and  C_3
REMARK    3  A    between atoms: C_6  and  C_7
REMARK    4  A    between atoms: C_9  and  S_10
REMARK    5  A    between atoms: S_10  and  N_13
REMARK    6  A    between atoms: N_22  and  S_23
REMARK    7  A    between atoms: S_23  and  C_26
REMARK                            x       y       z     vdW  Elec       q    Type
REMARK                         _______ _______ _______ _____ _____    ______ ____
ROOT
ATOM      1  N   UNL     1      -0.052  12.622  18.743  0.00  0.00    +0.000 NA
ATOM      2  C   UNL     1      -0.180  14.089  18.669  0.00  0.00    +0.000 C 
ATOM      3  C   UNL     1       0.329  14.789  19.913  0.00  0.00    +0.000 C 
ATOM      4  C   UNL     1       1.714  14.344  20.375  0.00  0.00    +0.000 C 
ATOM      5  C   UNL     1       2.011  12.850  20.146  0.00  0.00    +0.000 C 
ATOM      6  C   UNL     1       1.364  12.216  18.921  0.00  0.00    +0.000 C 
ATOM      7  O   UNL     1       1.629  14.488  21.825  0.00  0.00    +0.000 OA
ATOM      8  C   UNL     1       2.712  15.262  22.320  0.00  0.00    +0.000 C 
ATOM      9  C   UNL     1       3.270  16.011  21.143  0.00  0.00    +0.000 C 
ATOM     10  N   UNL     1       2.842  15.228  19.987  0.00  0.00    +0.000 NA
ENDROOT
BRANCH   1  11
ATOM     11  S   UNL     1      -1.215  11.747  19.627  0.00  0.00    +0.000 S 
ATOM     12  O   UNL     1      -1.595  12.573  20.739  0.00  0.00    +0.000 OA
ATOM     13  O   UNL     1      -0.685  10.410  19.852  0.00  0.00    +0.000 OA
BRANCH  11  20
ATOM     14  C   UNL     1      -3.895  11.899  18.775  0.00  0.00    +0.000 A 
ATOM     15  C   UNL     1      -4.842  11.847  17.739  0.00  0.00    +0.000 A 
ATOM     16  C   UNL     1      -4.502  11.369  16.469  0.00  0.00    +0.000 A 
ATOM     17  C   UNL     1      -3.207  10.919  16.215  0.00  0.00    +0.000 A 
ATOM     18  C   UNL     1      -2.840  10.292  14.900  0.00  0.00    +0.000 C 
ATOM     19  C   UNL     1      -2.243  11.032  17.224  0.00  0.00    +0.000 A 
ATOM     20  C   UNL     1      -2.569  11.549  18.492  0.00  0.00    +0.000 A 
BRANCH  14  22
ATOM     21  C   UNL     1      -5.625  13.070  19.855  0.00  0.00    +0.000 C 
ATOM     22  O   UNL     1      -4.367  12.392  19.957  0.00  0.00    +0.000 OA
ENDBRANCH  14  22
ENDBRANCH  11  20
ENDBRANCH   1  11
BRANCH  10  23
ATOM     23  S   UNL     1       3.249  15.782  18.459  0.00  0.00    +0.000 S 
ATOM     24  O   UNL     1       2.862  14.762  17.501  0.00  0.00    +0.000 OA
ATOM     25  O   UNL     1       2.752  17.132  18.339  0.00  0.00    +0.000 OA
BRANCH  23  26
ATOM     26  C   UNL     1       5.038  15.869  18.389  0.00  0.00    +0.000 A 
ATOM     27  C   UNL     1       5.729  16.997  18.839  0.00  0.00    +0.000 A 
ATOM     28  C   UNL     1       7.123  17.055  18.707  0.00  0.00    +0.000 A 
ATOM     29  C   UNL     1       7.815  16.001  18.106  0.00  0.00    +0.000 A 
ATOM     30  C   UNL     1       7.137  14.838  17.754  0.00  0.00    +0.000 A 
ATOM     31  C   UNL     1       5.760  14.751  17.959  0.00  0.00    +0.000 A 
ENDBRANCH  23  26
ENDBRANCH  10  23
TORSDOF 5
ENDMDL
MODEL 7
REMARK VINA RESULT:      -6.1      3.281      7.061
REMARK  Name = 
REMARK  7 active torsions:
REMARK  status: ('A' for Active; 'I' for Inactive)
REMARK    1  A    between atoms: C_1  and  O_2
REMARK    2  A    between atoms: O_2  and  C_3
REMARK    3  A    between atoms: C_6  and  C_7
REMARK    4  A    between atoms: C_9  and  S_10
REMARK    5  A    between atoms: S_10  and  N_13
REMARK    6  A    between atoms: N_22  and  S_23
REMARK    7  A    between atoms: S_23  and  C_26
REMARK                            x       y       z     vdW  Elec       q    Type
REMARK                         _______ _______ _______ _____ _____    ______ ____
ROOT
ATOM      1  N   UNL     1      -0.470  12.944  19.952  0.00  0.00    +0.000 NA
ATOM      2  C   UNL     1       0.468  13.302  21.031  0.00  0.00    +0.000 C 
ATOM      3  C   UNL     1       1.907  13.382  20.561  0.00  0.00    +0.000 C 
ATOM      4  C   UNL     1       2.121  14.211  19.298  0.00  0.00    +0.000 C 
ATOM      5  C   UNL     1       0.971  14.123  18.276  0.00  0.00    +0.000 C 
ATOM      6  C   UNL     1      -0.427  13.940  18.852  0.00  0.00    +0.000 C 
ATOM      7  O   UNL     1       3.242  13.532  18.655  0.00  0.00    +0.000 OA
ATOM      8  C   UNL     1       4.277  14.452  18.340  0.00  0.00    +0.000 C 
ATOM      9  C   UNL     1       4.030  15.672  19.183  0.00  0.00    +0.000 C 
ATOM     10  N   UNL     1       2.608  15.598  19.508  0.00  0.00    +0.000 NA
ENDROOT
BRANCH   1  11
ATOM     11  S   UNL     1      -0.602  11.308  19.498  0.00  0.00    +0.000 S 
ATOM     12  O   UNL     1      -0.750  10.554  20.712  0.00  0.00    +0.000 OA
ATOM     13  O   UNL     1       0.488  11.016  18.578  0.00  0.00    +0.000 OA
BRANCH  11  20
ATOM     14  C   UNL     1      -3.324  11.762  18.935  0.00  0.00    +0.000 A 
ATOM     15  C   UNL     1      -4.382  11.795  18.012  0.00  0.00    +0.000 A 
ATOM     16  C   UNL     1      -4.247  11.240  16.735  0.00  0.00    +0.000 A 
ATOM     17  C   UNL     1      -3.051  10.626  16.362  0.00  0.00    +0.000 A 
ATOM     18  C   UNL     1      -2.912   9.919  15.043  0.00  0.00    +0.000 C 
ATOM     19  C   UNL     1      -1.973  10.651  17.254  0.00  0.00    +0.000 A 
ATOM     20  C   UNL     1      -2.090  11.243  18.526  0.00  0.00    +0.000 A 
BRANCH  14  22
ATOM     21  C   UNL     1      -4.967  12.726  20.313  0.00  0.00    +0.000 C 
ATOM     22  O   UNL     1      -3.597  12.346  20.139  0.00  0.00    +0.000 OA
ENDBRANCH  14  22
ENDBRANCH  11  20
ENDBRANCH   1  11
BRANCH  10  23
ATOM     23  S   UNL     1       1.955  16.790  20.489  0.00  0.00    +0.000 S 
ATOM     24  O   UNL     1       1.690  16.198  21.788  0.00  0.00    +0.000 OA
ATOM     25  O   UNL     1       2.793  17.960  20.369  0.00  0.00    +0.000 OA
BRANCH  23  26
ATOM     26  C   UNL     1       0.354  17.215  19.806  0.00  0.00    +0.000 A 
ATOM     27  C   UNL     1       0.213  17.610  18.472  0.00  0.00    +0.000 A 
ATOM     28  C   UNL     1      -1.045  17.999  17.993  0.00  0.00    +0.000 A 
ATOM     29  C   UNL     1      -2.148  18.014  18.849  0.00  0.00    +0.000 A 
ATOM     30  C   UNL     1      -2.026  17.522  20.145  0.00  0.00    +0.000 A 
ATOM     31  C   UNL     1      -0.790  17.061  20.597  0.00  0.00    +0.000 A 
ENDBRANCH  23  26
ENDBRANCH  10  23
TORSDOF 5
ENDMDL
MODEL 8
REMARK VINA RESULT:      -6.1      1.960      2.547
REMARK  Name = 
REMARK  7 active torsions:
REMARK  status: ('A' for Active; 'I' for Inactive)
REMARK    1  A    between atoms: C_1  and  O_2
REMARK    2  A    between atoms: O_2  and  C_3
REMARK    3  A    between atoms: C_6  and  C_7
REMARK    4  A    between atoms: C_9  and  S_10
REMARK    5  A    between atoms: S_10  and  N_13
REMARK    6  A    between atoms: N_22  and  S_23
REMARK    7  A    between atoms: S_23  and  C_26
REMARK                            x       y       z     vdW  Elec       q    Type
REMARK                         _______ _______ _______ _____ _____    ______ ____
ROOT
ATOM      1  N   UNL     1      -2.713  12.926  21.089  0.00  0.00    +0.000 NA
ATOM      2  C   UNL     1      -3.091  12.537  22.460  0.00  0.00    +0.000 C 
ATOM      3  C   UNL     1      -3.274  13.726  23.383  0.00  0.00    +0.000 C 
ATOM      4  C   UNL     1      -4.157  14.838  22.824  0.00  0.00    +0.000 C 
ATOM      5  C   UNL     1      -4.033  15.045  21.302  0.00  0.00    +0.000 C 
ATOM      6  C   UNL     1      -3.745  13.798  20.476  0.00  0.00    +0.000 C 
ATOM      7  O   UNL     1      -3.570  16.039  23.411  0.00  0.00    +0.000 OA
ATOM      8  C   UNL     1      -4.561  16.821  24.060  0.00  0.00    +0.000 C 
ATOM      9  C   UNL     1      -5.735  15.910  24.290  0.00  0.00    +0.000 C 
ATOM     10  N   UNL     1      -5.563  14.851  23.301  0.00  0.00    +0.000 NA
ENDROOT
BRANCH   1  11
ATOM     11  S   UNL     1      -1.088  13.330  20.777  0.00  0.00    +0.000 S 
ATOM     12  O   UNL     1      -0.389  13.222  22.028  0.00  0.00    +0.000 OA
ATOM     13  O   UNL     1      -1.079  14.582  20.035  0.00  0.00    +0.000 OA
BRANCH  11  20
ATOM     14  C   UNL     1       0.799  11.726  19.436  0.00  0.00    +0.000 A 
ATOM     15  C   UNL     1       1.089  10.615  18.627  0.00  0.00    +0.000 A 
ATOM     16  C   UNL     1       0.076   9.924  17.954  0.00  0.00    +0.000 A 
ATOM     17  C   UNL     1      -1.250  10.343  18.067  0.00  0.00    +0.000 A 
ATOM     18  C   UNL     1      -2.345   9.697  17.266  0.00  0.00    +0.000 C 
ATOM     19  C   UNL     1      -1.551  11.407  18.924  0.00  0.00    +0.000 A 
ATOM     20  C   UNL     1      -0.540  12.082  19.635  0.00  0.00    +0.000 A 
BRANCH  14  22
ATOM     21  C   UNL     1       2.495  13.347  19.273  0.00  0.00    +0.000 C 
ATOM     22  O   UNL     1       1.886  12.298  20.034  0.00  0.00    +0.000 OA
ENDBRANCH  14  22
ENDBRANCH  11  20
ENDBRANCH   1  11
BRANCH  10  23
ATOM     23  S   UNL     1      -6.679  13.601  23.274  0.00  0.00    +0.000 S 
ATOM     24  O   UNL     1      -6.043  12.427  23.845  0.00  0.00    +0.000 OA
ATOM     25  O   UNL     1      -7.915  14.110  23.821  0.00  0.00    +0.000 OA
BRANCH  23  26
ATOM     26  C   UNL     1      -6.986  13.206  21.553  0.00  0.00    +0.000 A 
ATOM     27  C   UNL     1      -7.494  14.160  20.667  0.00  0.00    +0.000 A 
ATOM     28  C   UNL     1      -7.783  13.794  19.345  0.00  0.00    +0.000 A 
ATOM     29  C   UNL     1      -7.588  12.478  18.922  0.00  0.00    +0.000 A 
ATOM     30  C   UNL     1      -6.987  11.558  19.776  0.00  0.00    +0.000 A 
ATOM     31  C   UNL     1      -6.626  11.944  21.067  0.00  0.00    +0.000 A 
ENDBRANCH  23  26
ENDBRANCH  10  23
TORSDOF 5
ENDMDL
MODEL 9
REMARK VINA RESULT:      -6.0      3.424      7.257
REMARK  Name = 
REMARK  7 active torsions:
REMARK  status: ('A' for Active; 'I' for Inactive)
REMARK    1  A    between atoms: C_1  and  O_2
REMARK    2  A    between atoms: O_2  and  C_3
REMARK    3  A    between atoms: C_6  and  C_7
REMARK    4  A    between atoms: C_9  and  S_10
REMARK    5  A    between atoms: S_10  and  N_13
REMARK    6  A    between atoms: N_22  and  S_23
REMARK    7  A    between atoms: S_23  and  C_26
REMARK                            x       y       z     vdW  Elec       q    Type
REMARK                         _______ _______ _______ _____ _____    ______ ____
ROOT
ATOM      1  N   UNL     1      -0.074  14.192  21.921  0.00  0.00    +0.000 NA
ATOM      2  C   UNL     1      -0.895  13.042  22.340  0.00  0.00    +0.000 C 
ATOM      3  C   UNL     1      -1.706  12.450  21.204  0.00  0.00    +0.000 C 
ATOM      4  C   UNL     1      -0.914  12.172  19.930  0.00  0.00    +0.000 C 
ATOM      5  C   UNL     1       0.203  13.193  19.640  0.00  0.00    +0.000 C 
ATOM      6  C   UNL     1       0.886  13.806  20.856  0.00  0.00    +0.000 C 
ATOM      7  O   UNL     1      -1.905  12.398  18.882  0.00  0.00    +0.000 OA
ATOM      8  C   UNL     1      -1.968  11.287  17.999  0.00  0.00    +0.000 C 
ATOM      9  C   UNL     1      -1.336  10.132  18.726  0.00  0.00    +0.000 C 
ATOM     10  N   UNL     1      -0.484  10.766  19.728  0.00  0.00    +0.000 NA
ENDROOT
BRANCH   1  11
ATOM     11  S   UNL     1      -0.825  15.712  21.760  0.00  0.00    +0.000 S 
ATOM     12  O   UNL     1      -1.511  15.700  20.498  0.00  0.00    +0.000 OA
ATOM     13  O   UNL     1       0.176  16.731  22.043  0.00  0.00    +0.000 OA
BRANCH  11  20
ATOM     14  C   UNL     1      -1.615  15.787  24.461  0.00  0.00    +0.000 A 
ATOM     15  C   UNL     1      -2.611  16.003  25.428  0.00  0.00    +0.000 A 
ATOM     16  C   UNL     1      -3.958  16.113  25.067  0.00  0.00    +0.000 A 
ATOM     17  C   UNL     1      -4.336  15.993  23.730  0.00  0.00    +0.000 A 
ATOM     18  C   UNL     1      -5.783  15.989  23.323  0.00  0.00    +0.000 C 
ATOM     19  C   UNL     1      -3.341  15.846  22.758  0.00  0.00    +0.000 A 
ATOM     20  C   UNL     1      -1.980  15.774  23.110  0.00  0.00    +0.000 A 
BRANCH  14  22
ATOM     21  C   UNL     1       0.098  16.884  25.642  0.00  0.00    +0.000 C 
ATOM     22  O   UNL     1      -0.345  15.706  24.958  0.00  0.00    +0.000 OA
ENDBRANCH  14  22
ENDBRANCH  11  20
ENDBRANCH   1  11
BRANCH  10  23
ATOM     23  S   UNL     1       0.371   9.780  20.780  0.00  0.00    +0.000 S 
ATOM     24  O   UNL     1       1.285  10.622  21.531  0.00  0.00    +0.000 OA
ATOM     25  O   UNL     1      -0.585   8.939  21.462  0.00  0.00    +0.000 OA
BRANCH  23  26
ATOM     26  C   UNL     1       1.399   8.708  19.779  0.00  0.00    +0.000 A 
ATOM     27  C   UNL     1       1.817   9.088  18.500  0.00  0.00    +0.000 A 
ATOM     28  C   UNL     1       2.565   8.194  17.721  0.00  0.00    +0.000 A 
ATOM     29  C   UNL     1       2.871   6.922  18.210  0.00  0.00    +0.000 A 
ATOM     30  C   UNL     1       2.543   6.587  19.521  0.00  0.00    +0.000 A 
ATOM     31  C   UNL     1       1.867   7.507  20.322  0.00  0.00    +0.000 A 
ENDBRANCH  23  26
ENDBRANCH  10  23
TORSDOF 5
ENDMDL
