MODEL 1
REMARK VINA RESULT:      -6.7      0.000      0.000
REMARK  Name = 
REMARK  5 active torsions:
REMARK  status: ('A' for Active; 'I' for Inactive)
REMARK    1  A    between atoms: C_1  and  N_2
REMARK    2  A    between atoms: N_2  and  C_3
REMARK    3  A    between atoms: C_3  and  C_4
REMARK    4  A    between atoms: C_4  and  C_5
REMARK    5  A    between atoms: C_6  and  O_7
REMARK                            x       y       z     vdW  Elec       q    Type
REMARK                         _______ _______ _______ _____ _____    ______ ____
ROOT
ATOM      1  C   UNL     1       4.748   4.967  16.824  0.00  0.00    +0.000 A 
ATOM      2  C   UNL     1       4.729   6.394  16.872  0.00  0.00    +0.000 A 
ATOM      3  C   UNL     1       3.695   7.067  17.519  0.00  0.00    +0.000 A 
ATOM      4  C   UNL     1       2.651   6.376  18.110  0.00  0.00    +0.000 A 
ATOM      5  C   UNL     1       2.614   4.980  18.068  0.00  0.00    +0.000 A 
ATOM      6  C   UNL     1       1.528   4.313  18.660  0.00  0.00    +0.000 A 
ATOM      7  C   UNL     1       1.459   2.924  18.638  0.00  0.00    +0.000 A 
ATOM      8  C   UNL     1       2.471   2.188  18.032  0.00  0.00    +0.000 A 
ATOM      9  C   UNL     1       3.560   2.833  17.439  0.00  0.00    +0.000 A 
ATOM     10  C   UNL     1       3.660   4.249  17.434  0.00  0.00    +0.000 A 
ENDROOT
BRANCH   2  11
ATOM     11  O   UNL     1       5.673   7.161  16.281  0.00  0.00    +0.000 OA
ATOM     12  H   UNL     1       6.051   7.964  16.657  0.00  0.00    +0.000 HD
ENDBRANCH   2  11
BRANCH   1  13
ATOM     13  C   UNL     1       5.905   4.265  16.109  0.00  0.00    +0.000 C 
BRANCH  13  14
ATOM     14  C   UNL     1       7.267   4.518  16.784  0.00  0.00    +0.000 C 
BRANCH  14  16
ATOM     15  C   UNL     1       7.698   5.493  18.955  0.00  0.00    +0.000 C 
ATOM     16  N   UNL     1       7.134   4.350  18.236  0.00  0.00    +0.000 NA
ATOM     17  H   UNL     1       6.119   4.279  18.480  0.00  0.00    +0.000 HD
ENDBRANCH  14  16
ENDBRANCH  13  14
ENDBRANCH   1  13
TORSDOF 4
ENDMDL
MODEL 2
REMARK VINA RESULT:      -6.6      1.173      1.590
REMARK  Name = 
REMARK  5 active torsions:
REMARK  status: ('A' for Active; 'I' for Inactive)
REMARK    1  A    between atoms: C_1  and  N_2
REMARK    2  A    between atoms: N_2  and  C_3
REMARK    3  A    between atoms: C_3  and  C_4
REMARK    4  A    between atoms: C_4  and  C_5
REMARK    5  A    between atoms: C_6  and  O_7
REMARK                            x       y       z     vdW  Elec       q    Type
REMARK                         _______ _______ _______ _____ _____    ______ ____
ROOT
ATOM      1  C   UNL     1       4.444   4.883  16.777  0.00  0.00    +0.000 A 
ATOM      2  C   UNL     1       4.531   6.305  16.871  0.00  0.00    +0.000 A 
ATOM      3  C   UNL     1       3.651   7.017  17.683  0.00  0.00    +0.000 A 
ATOM      4  C   UNL     1       2.657   6.371  18.399  0.00  0.00    +0.000 A 
ATOM      5  C   UNL     1       2.517   4.984  18.320  0.00  0.00    +0.000 A 
ATOM      6  C   UNL     1       1.483   4.365  19.043  0.00  0.00    +0.000 A 
ATOM      7  C   UNL     1       1.316   2.986  18.990  0.00  0.00    +0.000 A 
ATOM      8  C   UNL     1       2.176   2.210  18.220  0.00  0.00    +0.000 A 
ATOM      9  C   UNL     1       3.211   2.807  17.493  0.00  0.00    +0.000 A 
ATOM     10  C   UNL     1       3.407   4.213  17.517  0.00  0.00    +0.000 A 
ENDROOT
BRANCH   2  11
ATOM     11  O   UNL     1       5.431   7.033  16.172  0.00  0.00    +0.000 OA
ATOM     12  H   UNL     1       6.244   7.405  16.532  0.00  0.00    +0.000 HD
ENDBRANCH   2  11
BRANCH   1  13
ATOM     13  C   UNL     1       5.434   4.138  15.879  0.00  0.00    +0.000 C 
BRANCH  13  14
ATOM     14  C   UNL     1       6.903   4.376  16.281  0.00  0.00    +0.000 C 
BRANCH  14  16
ATOM     15  C   UNL     1       7.056   4.823  13.909  0.00  0.00    +0.000 C 
ATOM     16  N   UNL     1       7.577   5.156  15.235  0.00  0.00    +0.000 NA
ATOM     17  H   UNL     1       7.408   6.174  15.407  0.00  0.00    +0.000 HD
ENDBRANCH  14  16
ENDBRANCH  13  14
ENDBRANCH   1  13
TORSDOF 4
ENDMDL
MODEL 3
REMARK VINA RESULT:      -6.5      1.660      2.349
REMARK  Name = 
REMARK  5 active torsions:
REMARK  status: ('A' for Active; 'I' for Inactive)
REMARK    1  A    between atoms: C_1  and  N_2
REMARK    2  A    between atoms: N_2  and  C_3
REMARK    3  A    between atoms: C_3  and  C_4
REMARK    4  A    between atoms: C_4  and  C_5
REMARK    5  A    between atoms: C_6  and  O_7
REMARK                            x       y       z     vdW  Elec       q    Type
REMARK                         _______ _______ _______ _____ _____    ______ ____
ROOT
ATOM      1  C   UNL     1       4.688   4.912  16.733  0.00  0.00    +0.000 A 
ATOM      2  C   UNL     1       4.779   6.332  16.855  0.00  0.00    +0.000 A 
ATOM      3  C   UNL     1       3.832   7.042  17.590  0.00  0.00    +0.000 A 
ATOM      4  C   UNL     1       2.770   6.397  18.200  0.00  0.00    +0.000 A 
ATOM      5  C   UNL     1       2.625   5.012  18.089  0.00  0.00    +0.000 A 
ATOM      6  C   UNL     1       1.523   4.394  18.702  0.00  0.00    +0.000 A 
ATOM      7  C   UNL     1       1.348   3.017  18.614  0.00  0.00    +0.000 A 
ATOM      8  C   UNL     1       2.271   2.243  17.917  0.00  0.00    +0.000 A 
ATOM      9  C   UNL     1       3.374   2.839  17.300  0.00  0.00    +0.000 A 
ATOM     10  C   UNL     1       3.580   4.243  17.362  0.00  0.00    +0.000 A 
ENDROOT
BRANCH   2  11
ATOM     11  O   UNL     1       5.747   7.060  16.254  0.00  0.00    +0.000 OA
ATOM     12  H   UNL     1       6.478   6.696  15.741  0.00  0.00    +0.000 HD
ENDBRANCH   2  11
BRANCH   1  13
ATOM     13  C   UNL     1       5.752   4.168  15.922  0.00  0.00    +0.000 C 
BRANCH  13  14
ATOM     14  C   UNL     1       5.555   4.316  14.400  0.00  0.00    +0.000 C 
BRANCH  14  16
ATOM     15  C   UNL     1       6.198   3.412  12.252  0.00  0.00    +0.000 C 
ATOM     16  N   UNL     1       6.352   3.299  13.702  0.00  0.00    +0.000 NA
ATOM     17  H   UNL     1       7.362   3.437  13.937  0.00  0.00    +0.000 HD
ENDBRANCH  14  16
ENDBRANCH  13  14
ENDBRANCH   1  13
TORSDOF 4
ENDMDL
MODEL 4
REMARK VINA RESULT:      -6.5      2.751      4.490
REMARK  Name = 
REMARK  5 active torsions:
REMARK  status: ('A' for Active; 'I' for Inactive)
REMARK    1  A    between atoms: C_1  and  N_2
REMARK    2  A    between atoms: N_2  and  C_3
REMARK    3  A    between atoms: C_3  and  C_4
REMARK    4  A    between atoms: C_4  and  C_5
REMARK    5  A    between atoms: C_6  and  O_7
REMARK                            x       y       z     vdW  Elec       q    Type
REMARK                         _______ _______ _______ _____ _____    ______ ____
ROOT
ATOM      1  C   UNL     1       3.223   4.843  18.828  0.00  0.00    +0.000 A 
ATOM      2  C   UNL     1       2.656   6.021  19.403  0.00  0.00    +0.000 A 
ATOM      3  C   UNL     1       2.860   7.266  18.812  0.00  0.00    +0.000 A 
ATOM      4  C   UNL     1       3.633   7.398  17.671  0.00  0.00    +0.000 A 
ATOM      5  C   UNL     1       4.228   6.278  17.086  0.00  0.00    +0.000 A 
ATOM      6  C   UNL     1       5.023   6.453  15.941  0.00  0.00    +0.000 A 
ATOM      7  C   UNL     1       5.629   5.360  15.332  0.00  0.00    +0.000 A 
ATOM      8  C   UNL     1       5.446   4.084  15.853  0.00  0.00    +0.000 A 
ATOM      9  C   UNL     1       4.658   3.889  16.991  0.00  0.00    +0.000 A 
ATOM     10  C   UNL     1       4.031   4.982  17.645  0.00  0.00    +0.000 A 
ENDROOT
BRANCH   2  11
ATOM     11  O   UNL     1       1.931   6.005  20.544  0.00  0.00    +0.000 OA
ATOM     12  H   UNL     1       2.284   5.827  21.423  0.00  0.00    +0.000 HD
ENDBRANCH   2  11
BRANCH   1  13
ATOM     13  C   UNL     1       2.971   3.493  19.504  0.00  0.00    +0.000 C 
BRANCH  13  14
ATOM     14  C   UNL     1       1.566   2.931  19.211  0.00  0.00    +0.000 C 
BRANCH  14  16
ATOM     15  C   UNL     1       1.454   2.704  21.616  0.00  0.00    +0.000 C 
ATOM     16  N   UNL     1       0.722   3.071  20.403  0.00  0.00    +0.000 NA
ATOM     17  H   UNL     1       0.421   4.069  20.492  0.00  0.00    +0.000 HD
ENDBRANCH  14  16
ENDBRANCH  13  14
ENDBRANCH   1  13
TORSDOF 4
ENDMDL
MODEL 5
REMARK VINA RESULT:      -6.4      2.144      3.165
REMARK  Name = 
REMARK  5 active torsions:
REMARK  status: ('A' for Active; 'I' for Inactive)
REMARK    1  A    between atoms: C_1  and  N_2
REMARK    2  A    between atoms: N_2  and  C_3
REMARK    3  A    between atoms: C_3  and  C_4
REMARK    4  A    between atoms: C_4  and  C_5
REMARK    5  A    between atoms: C_6  and  O_7
REMARK                            x       y       z     vdW  Elec       q    Type
REMARK                         _______ _______ _______ _____ _____    ______ ____
ROOT
ATOM      1  C   UNL     1       5.910   5.350  16.510  0.00  0.00    +0.000 A 
ATOM      2  C   UNL     1       6.936   6.105  17.154  0.00  0.00    +0.000 A 
ATOM      3  C   UNL     1       7.133   6.003  18.530  0.00  0.00    +0.000 A 
ATOM      4  C   UNL     1       6.329   5.189  19.309  0.00  0.00    +0.000 A 
ATOM      5  C   UNL     1       5.296   4.450  18.727  0.00  0.00    +0.000 A 
ATOM      6  C   UNL     1       4.486   3.652  19.552  0.00  0.00    +0.000 A 
ATOM      7  C   UNL     1       3.450   2.901  19.007  0.00  0.00    +0.000 A 
ATOM      8  C   UNL     1       3.214   2.935  17.637  0.00  0.00    +0.000 A 
ATOM      9  C   UNL     1       4.009   3.723  16.799  0.00  0.00    +0.000 A 
ATOM     10  C   UNL     1       5.070   4.509  17.321  0.00  0.00    +0.000 A 
ENDROOT
BRANCH   2  11
ATOM     11  O   UNL     1       7.740   6.967  16.491  0.00  0.00    +0.000 OA
ATOM     12  H   UNL     1       8.038   6.860  15.581  0.00  0.00    +0.000 HD
ENDBRANCH   2  11
BRANCH   1  13
ATOM     13  C   UNL     1       5.730   5.486  14.996  0.00  0.00    +0.000 C 
BRANCH  13  14
ATOM     14  C   UNL     1       6.795   4.711  14.195  0.00  0.00    +0.000 C 
BRANCH  14  16
ATOM     15  C   UNL     1       6.013   3.358  12.350  0.00  0.00    +0.000 C 
ATOM     16  N   UNL     1       6.254   3.408  13.792  0.00  0.00    +0.000 NA
ATOM     17  H   UNL     1       6.946   2.662  14.035  0.00  0.00    +0.000 HD
ENDBRANCH  14  16
ENDBRANCH  13  14
ENDBRANCH   1  13
TORSDOF 4
ENDMDL
MODEL 6
REMARK VINA RESULT:      -6.3      2.274      4.053
REMARK  Name = 
REMARK  5 active torsions:
REMARK  status: ('A' for Active; 'I' for Inactive)
REMARK    1  A    between atoms: C_1  and  N_2
REMARK    2  A    between atoms: N_2  and  C_3
REMARK    3  A    between atoms: C_3  and  C_4
REMARK    4  A    between atoms: C_4  and  C_5
REMARK    5  A    between atoms: C_6  and  O_7
REMARK                            x       y       z     vdW  Elec       q    Type
REMARK                         _______ _______ _______ _____ _____    ______ ____
ROOT
ATOM      1  C   UNL     1       4.325   4.252  17.748  0.00  0.00    +0.000 A 
ATOM      2  C   UNL     1       5.207   4.305  16.627  0.00  0.00    +0.000 A 
ATOM      3  C   UNL     1       5.426   5.504  15.953  0.00  0.00    +0.000 A 
ATOM      4  C   UNL     1       4.779   6.667  16.336  0.00  0.00    +0.000 A 
ATOM      5  C   UNL     1       3.889   6.660  17.412  0.00  0.00    +0.000 A 
ATOM      6  C   UNL     1       3.235   7.855  17.758  0.00  0.00    +0.000 A 
ATOM      7  C   UNL     1       2.343   7.885  18.825  0.00  0.00    +0.000 A 
ATOM      8  C   UNL     1       2.098   6.728  19.558  0.00  0.00    +0.000 A 
ATOM      9  C   UNL     1       2.739   5.530  19.229  0.00  0.00    +0.000 A 
ATOM     10  C   UNL     1       3.649   5.460  18.142  0.00  0.00    +0.000 A 
ENDROOT
BRANCH   2  11
ATOM     11  O   UNL     1       5.845   3.215  16.142  0.00  0.00    +0.000 OA
ATOM     12  H   UNL     1       5.690   2.821  15.276  0.00  0.00    +0.000 HD
ENDBRANCH   2  11
BRANCH   1  13
ATOM     13  C   UNL     1       4.117   2.916  18.465  0.00  0.00    +0.000 C 
BRANCH  13  14
ATOM     14  C   UNL     1       3.007   2.060  17.824  0.00  0.00    +0.000 C 
BRANCH  14  16
ATOM     15  C   UNL     1       0.821   2.426  18.789  0.00  0.00    +0.000 C 
ATOM     16  N   UNL     1       2.053   1.640  18.857  0.00  0.00    +0.000 NA
ATOM     17  H   UNL     1       1.808   0.634  18.707  0.00  0.00    +0.000 HD
ENDBRANCH  14  16
ENDBRANCH  13  14
ENDBRANCH   1  13
TORSDOF 4
ENDMDL
MODEL 7
REMARK VINA RESULT:      -6.3      1.631      1.938
REMARK  Name = 
REMARK  5 active torsions:
REMARK  status: ('A' for Active; 'I' for Inactive)
REMARK    1  A    between atoms: C_1  and  N_2
REMARK    2  A    between atoms: N_2  and  C_3
REMARK    3  A    between atoms: C_3  and  C_4
REMARK    4  A    between atoms: C_4  and  C_5
REMARK    5  A    between atoms: C_6  and  O_7
REMARK                            x       y       z     vdW  Elec       q    Type
REMARK                         _______ _______ _______ _____ _____    ______ ____
ROOT
ATOM      1  C   UNL     1       4.356   5.118  17.904  0.00  0.00    +0.000 A 
ATOM      2  C   UNL     1       4.110   6.438  17.419  0.00  0.00    +0.000 A 
ATOM      3  C   UNL     1       3.169   7.257  18.039  0.00  0.00    +0.000 A 
ATOM      4  C   UNL     1       2.432   6.807  19.121  0.00  0.00    +0.000 A 
ATOM      5  C   UNL     1       2.620   5.515  19.616  0.00  0.00    +0.000 A 
ATOM      6  C   UNL     1       1.839   5.085  20.703  0.00  0.00    +0.000 A 
ATOM      7  C   UNL     1       2.000   3.806  21.222  0.00  0.00    +0.000 A 
ATOM      8  C   UNL     1       2.942   2.944  20.669  0.00  0.00    +0.000 A 
ATOM      9  C   UNL     1       3.728   3.353  19.588  0.00  0.00    +0.000 A 
ATOM     10  C   UNL     1       3.586   4.649  19.026  0.00  0.00    +0.000 A 
ENDROOT
BRANCH   2  11
ATOM     11  O   UNL     1       4.738   6.951  16.336  0.00  0.00    +0.000 OA
ATOM     12  H   UNL     1       5.637   6.738  16.064  0.00  0.00    +0.000 HD
ENDBRANCH   2  11
BRANCH   1  13
ATOM     13  C   UNL     1       5.402   4.252  17.199  0.00  0.00    +0.000 C 
BRANCH  13  14
ATOM     14  C   UNL     1       6.839   4.549  17.669  0.00  0.00    +0.000 C 
BRANCH  14  16
ATOM     15  C   UNL     1       6.992   4.545  15.256  0.00  0.00    +0.000 C 
ATOM     16  N   UNL     1       7.742   4.559  16.512  0.00  0.00    +0.000 NA
ATOM     17  H   UNL     1       8.321   5.431  16.538  0.00  0.00    +0.000 HD
ENDBRANCH  14  16
ENDBRANCH  13  14
ENDBRANCH   1  13
TORSDOF 4
ENDMDL
MODEL 8
REMARK VINA RESULT:      -6.3      2.404      4.001
REMARK  Name = 
REMARK  5 active torsions:
REMARK  status: ('A' for Active; 'I' for Inactive)
REMARK    1  A    between atoms: C_1  and  N_2
REMARK    2  A    between atoms: N_2  and  C_3
REMARK    3  A    between atoms: C_3  and  C_4
REMARK    4  A    between atoms: C_4  and  C_5
REMARK    5  A    between atoms: C_6  and  O_7
REMARK                            x       y       z     vdW  Elec       q    Type
REMARK                         _______ _______ _______ _____ _____    ______ ____
ROOT
ATOM      1  C   UNL     1       2.839   3.819  18.277  0.00  0.00    +0.000 A 
ATOM      2  C   UNL     1       2.470   2.603  18.930  0.00  0.00    +0.000 A 
ATOM      3  C   UNL     1       1.758   2.630  20.127  0.00  0.00    +0.000 A 
ATOM      4  C   UNL     1       1.410   3.829  20.725  0.00  0.00    +0.000 A 
ATOM      5  C   UNL     1       1.769   5.044  20.137  0.00  0.00    +0.000 A 
ATOM      6  C   UNL     1       1.418   6.240  20.784  0.00  0.00    +0.000 A 
ATOM      7  C   UNL     1       1.758   7.468  20.226  0.00  0.00    +0.000 A 
ATOM      8  C   UNL     1       2.446   7.515  19.018  0.00  0.00    +0.000 A 
ATOM      9  C   UNL     1       2.804   6.336  18.359  0.00  0.00    +0.000 A 
ATOM     10  C   UNL     1       2.482   5.065  18.903  0.00  0.00    +0.000 A 
ENDROOT
BRANCH   2  11
ATOM     11  O   UNL     1       2.808   1.383  18.455  0.00  0.00    +0.000 OA
ATOM     12  H   UNL     1       2.557   0.543  18.855  0.00  0.00    +0.000 HD
ENDBRANCH   2  11
BRANCH   1  13
ATOM     13  C   UNL     1       3.615   3.746  16.960  0.00  0.00    +0.000 C 
BRANCH  13  14
ATOM     14  C   UNL     1       5.132   3.946  17.148  0.00  0.00    +0.000 C 
BRANCH  14  16
ATOM     15  C   UNL     1       6.641   4.477  15.335  0.00  0.00    +0.000 C 
ATOM     16  N   UNL     1       5.844   3.429  15.973  0.00  0.00    +0.000 NA
ATOM     17  H   UNL     1       6.491   2.664  16.276  0.00  0.00    +0.000 HD
ENDBRANCH  14  16
ENDBRANCH  13  14
ENDBRANCH   1  13
TORSDOF 4
ENDMDL
MODEL 9
REMARK VINA RESULT:      -6.2      0.951      1.040
REMARK  Name = 
REMARK  5 active torsions:
REMARK  status: ('A' for Active; 'I' for Inactive)
REMARK    1  A    between atoms: C_1  and  N_2
REMARK    2  A    between atoms: N_2  and  C_3
REMARK    3  A    between atoms: C_3  and  C_4
REMARK    4  A    between atoms: C_4  and  C_5
REMARK    5  A    between atoms: C_6  and  O_7
REMARK                            x       y       z     vdW  Elec       q    Type
REMARK                         _______ _______ _______ _____ _____    ______ ____
ROOT
ATOM      1  C   UNL     1       3.950   4.795  17.348  0.00  0.00    +0.000 A 
ATOM      2  C   UNL     1       3.983   6.222  17.370  0.00  0.00    +0.000 A 
ATOM      3  C   UNL     1       3.179   6.936  18.255  0.00  0.00    +0.000 A 
ATOM      4  C   UNL     1       2.313   6.286  19.118  0.00  0.00    +0.000 A 
ATOM      5  C   UNL     1       2.228   4.892  19.117  0.00  0.00    +0.000 A 
ATOM      6  C   UNL     1       1.322   4.268  19.991  0.00  0.00    +0.000 A 
ATOM      7  C   UNL     1       1.212   2.882  20.018  0.00  0.00    +0.000 A 
ATOM      8  C   UNL     1       2.005   2.105  19.179  0.00  0.00    +0.000 A 
ATOM      9  C   UNL     1       2.912   2.708  18.302  0.00  0.00    +0.000 A 
ATOM     10  C   UNL     1       3.045   4.120  18.241  0.00  0.00    +0.000 A 
ENDROOT
BRANCH   2  11
ATOM     11  O   UNL     1       4.754   6.952  16.531  0.00  0.00    +0.000 OA
ATOM     12  H   UNL     1       5.153   6.624  15.718  0.00  0.00    +0.000 HD
ENDBRANCH   2  11
BRANCH   1  13
ATOM     13  C   UNL     1       4.853   4.048  16.364  0.00  0.00    +0.000 C 
BRANCH  13  14
ATOM     14  C   UNL     1       6.350   4.329  16.594  0.00  0.00    +0.000 C 
BRANCH  14  16
ATOM     15  C   UNL     1       7.484   5.279  18.507  0.00  0.00    +0.000 C 
ATOM     16  N   UNL     1       6.667   4.168  18.018  0.00  0.00    +0.000 NA
ATOM     17  H   UNL     1       5.776   4.151  18.566  0.00  0.00    +0.000 HD
ENDBRANCH  14  16
ENDBRANCH  13  14
ENDBRANCH   1  13
TORSDOF 4
ENDMDL
