MODEL 1
REMARK VINA RESULT:      -6.4      0.000      0.000
REMARK  Name = 
REMARK  9 active torsions:
REMARK  status: ('A' for Active; 'I' for Inactive)
REMARK    1  A    between atoms: C_1  and  O_2
REMARK    2  A    between atoms: O_2  and  C_3
REMARK    3  A    between atoms: C_3  and  C_4
REMARK    4  A    between atoms: C_4  and  C_5
REMARK    5  A    between atoms: C_5  and  N_6
REMARK    6  A    between atoms: C_7  and  C_9
REMARK    7  A    between atoms: C_14  and  N_15
REMARK    8  A    between atoms: N_15  and  S_16
REMARK    9  A    between atoms: S_16  and  C_17
REMARK                            x       y       z     vdW  Elec       q    Type
REMARK                         _______ _______ _______ _____ _____    ______ ____
ROOT
ATOM      1  C   UNL     1       4.872   5.003  18.403  0.00  0.00    +0.000 A 
ATOM      2  C   UNL     1       3.778   5.326  19.240  0.00  0.00    +0.000 A 
ATOM      3  C   UNL     1       2.505   4.789  19.036  0.00  0.00    +0.000 A 
ATOM      4  C   UNL     1       2.296   3.904  17.990  0.00  0.00    +0.000 A 
ATOM      5  C   UNL     1       3.361   3.562  17.158  0.00  0.00    +0.000 A 
ATOM      6  C   UNL     1       4.646   4.111  17.336  0.00  0.00    +0.000 A 
ENDROOT
BRANCH   1   8
ATOM      7  N   UNL     1       6.784   6.538  18.031  0.00  0.00    +0.000 N 
ATOM      8  C   UNL     1       6.184   5.603  18.836  0.00  0.00    +0.000 C 
ATOM      9  O   UNL     1       6.699   5.225  19.888  0.00  0.00    +0.000 OA
ATOM     10  H   UNL     1       6.275   6.881  17.226  0.00  0.00    +0.000 HD
BRANCH   7  11
ATOM     11  C   UNL     1       8.003   7.235  18.426  0.00  0.00    +0.000 C 
BRANCH  11  12
ATOM     12  C   UNL     1       8.255   8.465  17.557  0.00  0.00    +0.000 C 
BRANCH  12  13
ATOM     13  C   UNL     1       8.259   9.765  18.362  0.00  0.00    +0.000 C 
BRANCH  13  15
ATOM     14  C   UNL     1       9.350  10.840  20.158  0.00  0.00    +0.000 C 
ATOM     15  O   UNL     1       9.457   9.867  19.127  0.00  0.00    +0.000 OA
ENDBRANCH  13  15
ENDBRANCH  12  13
ENDBRANCH  11  12
ENDBRANCH   7  11
ENDBRANCH   1   8
BRANCH   6  16
ATOM     16  N   UNL     1       5.642   3.651  16.410  0.00  0.00    +0.000 N 
ATOM     17  H   UNL     1       5.490   2.713  16.033  0.00  0.00    +0.000 HD
BRANCH  16  18
ATOM     18  S   UNL     1       6.315   4.680  15.264  0.00  0.00    +0.000 S 
ATOM     19  C   UNL     1       6.178   3.865  13.674  0.00  0.00    +0.000 C 
ATOM     20  O   UNL     1       5.509   5.884  15.234  0.00  0.00    +0.000 OA
ATOM     21  O   UNL     1       7.718   4.738  15.603  0.00  0.00    +0.000 OA
ENDBRANCH  16  18
ENDBRANCH   6  16
TORSDOF 7
ENDMDL
MODEL 2
REMARK VINA RESULT:      -6.4      2.864      5.426
REMARK  Name = 
REMARK  9 active torsions:
REMARK  status: ('A' for Active; 'I' for Inactive)
REMARK    1  A    between atoms: C_1  and  O_2
REMARK    2  A    between atoms: O_2  and  C_3
REMARK    3  A    between atoms: C_3  and  C_4
REMARK    4  A    between atoms: C_4  and  C_5
REMARK    5  A    between atoms: C_5  and  N_6
REMARK    6  A    between atoms: C_7  and  C_9
REMARK    7  A    between atoms: C_14  and  N_15
REMARK    8  A    between atoms: N_15  and  S_16
REMARK    9  A    between atoms: S_16  and  C_17
REMARK                            x       y       z     vdW  Elec       q    Type
REMARK                         _______ _______ _______ _____ _____    ______ ____
ROOT
ATOM      1  C   UNL     1       5.420   4.298  18.117  0.00  0.00    +0.000 A 
ATOM      2  C   UNL     1       5.604   4.950  19.359  0.00  0.00    +0.000 A 
ATOM      3  C   UNL     1       6.783   5.631  19.672  0.00  0.00    +0.000 A 
ATOM      4  C   UNL     1       7.809   5.683  18.741  0.00  0.00    +0.000 A 
ATOM      5  C   UNL     1       7.648   5.058  17.507  0.00  0.00    +0.000 A 
ATOM      6  C   UNL     1       6.474   4.349  17.183  0.00  0.00    +0.000 A 
ENDROOT
BRANCH   1   8
ATOM      7  N   UNL     1       2.949   4.451  18.256  0.00  0.00    +0.000 N 
ATOM      8  C   UNL     1       4.050   3.702  17.925  0.00  0.00    +0.000 C 
ATOM      9  O   UNL     1       3.951   2.553  17.498  0.00  0.00    +0.000 OA
ATOM     10  H   UNL     1       3.082   5.420  18.514  0.00  0.00    +0.000 HD
BRANCH   7  11
ATOM     11  C   UNL     1       1.589   3.981  18.008  0.00  0.00    +0.000 C 
BRANCH  11  12
ATOM     12  C   UNL     1       0.952   3.413  19.274  0.00  0.00    +0.000 C 
BRANCH  12  13
ATOM     13  C   UNL     1       1.092   4.345  20.476  0.00  0.00    +0.000 C 
BRANCH  13  15
ATOM     14  C   UNL     1       2.394   2.707  21.569  0.00  0.00    +0.000 C 
ATOM     15  O   UNL     1       2.303   4.070  21.176  0.00  0.00    +0.000 OA
ENDBRANCH  13  15
ENDBRANCH  12  13
ENDBRANCH  11  12
ENDBRANCH   7  11
ENDBRANCH   1   8
BRANCH   6  16
ATOM     16  N   UNL     1       6.450   3.772  15.869  0.00  0.00    +0.000 N 
ATOM     17  H   UNL     1       5.888   2.923  15.773  0.00  0.00    +0.000 HD
BRANCH  16  18
ATOM     18  S   UNL     1       6.363   4.732  14.492  0.00  0.00    +0.000 S 
ATOM     19  C   UNL     1       5.934   3.658  13.122  0.00  0.00    +0.000 C 
ATOM     20  O   UNL     1       5.283   5.678  14.688  0.00  0.00    +0.000 OA
ATOM     21  O   UNL     1       7.717   5.188  14.278  0.00  0.00    +0.000 OA
ENDBRANCH  16  18
ENDBRANCH   6  16
TORSDOF 7
ENDMDL
MODEL 3
REMARK VINA RESULT:      -6.3      2.754      5.870
REMARK  Name = 
REMARK  9 active torsions:
REMARK  status: ('A' for Active; 'I' for Inactive)
REMARK    1  A    between atoms: C_1  and  O_2
REMARK    2  A    between atoms: O_2  and  C_3
REMARK    3  A    between atoms: C_3  and  C_4
REMARK    4  A    between atoms: C_4  and  C_5
REMARK    5  A    between atoms: C_5  and  N_6
REMARK    6  A    between atoms: C_7  and  C_9
REMARK    7  A    between atoms: C_14  and  N_15
REMARK    8  A    between atoms: N_15  and  S_16
REMARK    9  A    between atoms: S_16  and  C_17
REMARK                            x       y       z     vdW  Elec       q    Type
REMARK                         _______ _______ _______ _____ _____    ______ ____
ROOT
ATOM      1  C   UNL     1       5.173   3.925  16.666  0.00  0.00    +0.000 A 
ATOM      2  C   UNL     1       4.700   3.984  15.334  0.00  0.00    +0.000 A 
ATOM      3  C   UNL     1       5.511   4.407  14.279  0.00  0.00    +0.000 A 
ATOM      4  C   UNL     1       6.824   4.775  14.529  0.00  0.00    +0.000 A 
ATOM      5  C   UNL     1       7.316   4.715  15.832  0.00  0.00    +0.000 A 
ATOM      6  C   UNL     1       6.505   4.311  16.912  0.00  0.00    +0.000 A 
ENDROOT
BRANCH   1   8
ATOM      7  N   UNL     1       2.869   3.244  17.281  0.00  0.00    +0.000 N 
ATOM      8  C   UNL     1       4.186   3.354  17.651  0.00  0.00    +0.000 C 
ATOM      9  O   UNL     1       4.578   3.022  18.768  0.00  0.00    +0.000 OA
ATOM     10  H   UNL     1       2.616   3.444  16.322  0.00  0.00    +0.000 HD
BRANCH   7  11
ATOM     11  C   UNL     1       1.872   2.613  18.141  0.00  0.00    +0.000 C 
BRANCH  11  12
ATOM     12  C   UNL     1       1.165   3.637  19.026  0.00  0.00    +0.000 C 
BRANCH  12  13
ATOM     13  C   UNL     1       1.305   3.326  20.516  0.00  0.00    +0.000 C 
BRANCH  13  15
ATOM     14  C   UNL     1       2.171   5.517  20.362  0.00  0.00    +0.000 C 
ATOM     15  O   UNL     1       2.057   4.349  21.165  0.00  0.00    +0.000 OA
ENDBRANCH  13  15
ENDBRANCH  12  13
ENDBRANCH  11  12
ENDBRANCH   7  11
ENDBRANCH   1   8
BRANCH   6  16
ATOM     16  N   UNL     1       7.157   4.285  18.190  0.00  0.00    +0.000 N 
ATOM     17  H   UNL     1       8.079   3.843  18.203  0.00  0.00    +0.000 HD
BRANCH  16  18
ATOM     18  S   UNL     1       7.084   5.598  19.238  0.00  0.00    +0.000 S 
ATOM     19  C   UNL     1       7.923   6.964  18.437  0.00  0.00    +0.000 C 
ATOM     20  O   UNL     1       5.688   5.948  19.400  0.00  0.00    +0.000 OA
ATOM     21  O   UNL     1       7.884   5.203  20.375  0.00  0.00    +0.000 OA
ENDBRANCH  16  18
ENDBRANCH   6  16
TORSDOF 7
ENDMDL
MODEL 4
REMARK VINA RESULT:      -6.3      2.921      5.425
REMARK  Name = 
REMARK  9 active torsions:
REMARK  status: ('A' for Active; 'I' for Inactive)
REMARK    1  A    between atoms: C_1  and  O_2
REMARK    2  A    between atoms: O_2  and  C_3
REMARK    3  A    between atoms: C_3  and  C_4
REMARK    4  A    between atoms: C_4  and  C_5
REMARK    5  A    between atoms: C_5  and  N_6
REMARK    6  A    between atoms: C_7  and  C_9
REMARK    7  A    between atoms: C_14  and  N_15
REMARK    8  A    between atoms: N_15  and  S_16
REMARK    9  A    between atoms: S_16  and  C_17
REMARK                            x       y       z     vdW  Elec       q    Type
REMARK                         _______ _______ _______ _____ _____    ______ ____
ROOT
ATOM      1  C   UNL     1       5.348   4.368  18.073  0.00  0.00    +0.000 A 
ATOM      2  C   UNL     1       5.535   4.991  19.329  0.00  0.00    +0.000 A 
ATOM      3  C   UNL     1       6.761   5.541  19.707  0.00  0.00    +0.000 A 
ATOM      4  C   UNL     1       7.834   5.490  18.830  0.00  0.00    +0.000 A 
ATOM      5  C   UNL     1       7.671   4.891  17.583  0.00  0.00    +0.000 A 
ATOM      6  C   UNL     1       6.447   4.312  17.193  0.00  0.00    +0.000 A 
ENDROOT
BRANCH   1   8
ATOM      7  N   UNL     1       3.522   2.703  18.287  0.00  0.00    +0.000 N 
ATOM      8  C   UNL     1       3.934   3.920  17.805  0.00  0.00    +0.000 C 
ATOM      9  O   UNL     1       3.191   4.643  17.144  0.00  0.00    +0.000 OA
ATOM     10  H   UNL     1       4.142   2.190  18.901  0.00  0.00    +0.000 HD
BRANCH   7  11
ATOM     11  C   UNL     1       2.144   2.243  18.153  0.00  0.00    +0.000 C 
BRANCH  11  12
ATOM     12  C   UNL     1       1.258   2.789  19.270  0.00  0.00    +0.000 C 
BRANCH  12  13
ATOM     13  C   UNL     1       1.884   2.624  20.654  0.00  0.00    +0.000 C 
BRANCH  13  15
ATOM     14  C   UNL     1       1.804   4.984  20.687  0.00  0.00    +0.000 C 
ATOM     15  O   UNL     1       2.548   3.825  21.041  0.00  0.00    +0.000 OA
ENDBRANCH  13  15
ENDBRANCH  12  13
ENDBRANCH  11  12
ENDBRANCH   7  11
ENDBRANCH   1   8
BRANCH   6  16
ATOM     16  N   UNL     1       6.430   3.747  15.873  0.00  0.00    +0.000 N 
ATOM     17  H   UNL     1       5.859   2.906  15.764  0.00  0.00    +0.000 HD
BRANCH  16  18
ATOM     18  S   UNL     1       6.370   4.720  14.504  0.00  0.00    +0.000 S 
ATOM     19  C   UNL     1       6.033   3.650  13.106  0.00  0.00    +0.000 C 
ATOM     20  O   UNL     1       5.253   5.630  14.666  0.00  0.00    +0.000 OA
ATOM     21  O   UNL     1       7.716   5.222  14.353  0.00  0.00    +0.000 OA
ENDBRANCH  16  18
ENDBRANCH   6  16
TORSDOF 7
ENDMDL
MODEL 5
REMARK VINA RESULT:      -6.2      1.186      1.302
REMARK  Name = 
REMARK  9 active torsions:
REMARK  status: ('A' for Active; 'I' for Inactive)
REMARK    1  A    between atoms: C_1  and  O_2
REMARK    2  A    between atoms: O_2  and  C_3
REMARK    3  A    between atoms: C_3  and  C_4
REMARK    4  A    between atoms: C_4  and  C_5
REMARK    5  A    between atoms: C_5  and  N_6
REMARK    6  A    between atoms: C_7  and  C_9
REMARK    7  A    between atoms: C_14  and  N_15
REMARK    8  A    between atoms: N_15  and  S_16
REMARK    9  A    between atoms: S_16  and  C_17
REMARK                            x       y       z     vdW  Elec       q    Type
REMARK                         _______ _______ _______ _____ _____    ______ ____
ROOT
ATOM      1  C   UNL     1       5.369   5.120  18.580  0.00  0.00    +0.000 A 
ATOM      2  C   UNL     1       4.302   5.353  19.479  0.00  0.00    +0.000 A 
ATOM      3  C   UNL     1       3.063   4.724  19.336  0.00  0.00    +0.000 A 
ATOM      4  C   UNL     1       2.863   3.836  18.290  0.00  0.00    +0.000 A 
ATOM      5  C   UNL     1       3.903   3.583  17.398  0.00  0.00    +0.000 A 
ATOM      6  C   UNL     1       5.152   4.224  17.515  0.00  0.00    +0.000 A 
ENDROOT
BRANCH   1   8
ATOM      7  N   UNL     1       7.159   6.771  18.108  0.00  0.00    +0.000 N 
ATOM      8  C   UNL     1       6.655   5.812  18.950  0.00  0.00    +0.000 C 
ATOM      9  O   UNL     1       7.236   5.486  19.985  0.00  0.00    +0.000 OA
ATOM     10  H   UNL     1       6.597   7.066  17.319  0.00  0.00    +0.000 HD
BRANCH   7  11
ATOM     11  C   UNL     1       8.345   7.552  18.442  0.00  0.00    +0.000 C 
BRANCH  11  12
ATOM     12  C   UNL     1       8.194   9.012  18.020  0.00  0.00    +0.000 C 
BRANCH  12  13
ATOM     13  C   UNL     1       9.102   9.953  18.812  0.00  0.00    +0.000 C 
BRANCH  13  15
ATOM     14  C   UNL     1      10.616  11.753  18.619  0.00  0.00    +0.000 C 
ATOM     15  O   UNL     1       9.663  10.939  17.949  0.00  0.00    +0.000 OA
ENDBRANCH  13  15
ENDBRANCH  12  13
ENDBRANCH  11  12
ENDBRANCH   7  11
ENDBRANCH   1   8
BRANCH   6  16
ATOM     16  N   UNL     1       6.128   3.849  16.530  0.00  0.00    +0.000 N 
ATOM     17  H   UNL     1       6.180   2.848  16.325  0.00  0.00    +0.000 HD
BRANCH  16  18
ATOM     18  S   UNL     1       6.389   4.780  15.156  0.00  0.00    +0.000 S 
ATOM     19  C   UNL     1       5.246   6.159  15.224  0.00  0.00    +0.000 C 
ATOM     20  O   UNL     1       7.740   5.299  15.233  0.00  0.00    +0.000 OA
ATOM     21  O   UNL     1       5.984   3.934  14.058  0.00  0.00    +0.000 OA
ENDBRANCH  16  18
ENDBRANCH   6  16
TORSDOF 7
ENDMDL
MODEL 6
REMARK VINA RESULT:      -6.2      3.009      5.352
REMARK  Name = 
REMARK  9 active torsions:
REMARK  status: ('A' for Active; 'I' for Inactive)
REMARK    1  A    between atoms: C_1  and  O_2
REMARK    2  A    between atoms: O_2  and  C_3
REMARK    3  A    between atoms: C_3  and  C_4
REMARK    4  A    between atoms: C_4  and  C_5
REMARK    5  A    between atoms: C_5  and  N_6
REMARK    6  A    between atoms: C_7  and  C_9
REMARK    7  A    between atoms: C_14  and  N_15
REMARK    8  A    between atoms: N_15  and  S_16
REMARK    9  A    between atoms: S_16  and  C_17
REMARK                            x       y       z     vdW  Elec       q    Type
REMARK                         _______ _______ _______ _____ _____    ______ ____
ROOT
ATOM      1  C   UNL     1       5.321   4.231  18.101  0.00  0.00    +0.000 A 
ATOM      2  C   UNL     1       5.592   4.883  19.326  0.00  0.00    +0.000 A 
ATOM      3  C   UNL     1       6.795   5.553  19.559  0.00  0.00    +0.000 A 
ATOM      4  C   UNL     1       7.757   5.596  18.562  0.00  0.00    +0.000 A 
ATOM      5  C   UNL     1       7.509   4.971  17.342  0.00  0.00    +0.000 A 
ATOM      6  C   UNL     1       6.310   4.272  17.098  0.00  0.00    +0.000 A 
ENDROOT
BRANCH   1   8
ATOM      7  N   UNL     1       3.474   2.856  19.023  0.00  0.00    +0.000 N 
ATOM      8  C   UNL     1       3.936   3.647  18.000  0.00  0.00    +0.000 C 
ATOM      9  O   UNL     1       3.261   3.871  16.997  0.00  0.00    +0.000 OA
ATOM     10  H   UNL     1       4.031   2.778  19.865  0.00  0.00    +0.000 HD
BRANCH   7  11
ATOM     11  C   UNL     1       2.112   2.333  19.045  0.00  0.00    +0.000 C 
BRANCH  11  12
ATOM     12  C   UNL     1       1.394   2.690  20.345  0.00  0.00    +0.000 C 
BRANCH  12  13
ATOM     13  C   UNL     1       0.992   4.163  20.413  0.00  0.00    +0.000 C 
BRANCH  13  15
ATOM     14  C   UNL     1       2.189   6.165  20.053  0.00  0.00    +0.000 C 
ATOM     15  O   UNL     1       2.108   4.961  20.803  0.00  0.00    +0.000 OA
ENDBRANCH  13  15
ENDBRANCH  12  13
ENDBRANCH  11  12
ENDBRANCH   7  11
ENDBRANCH   1   8
BRANCH   6  16
ATOM     16  N   UNL     1       6.193   3.694  15.789  0.00  0.00    +0.000 N 
ATOM     17  H   UNL     1       5.677   2.812  15.744  0.00  0.00    +0.000 HD
BRANCH  16  18
ATOM     18  S   UNL     1       5.915   4.646  14.432  0.00  0.00    +0.000 S 
ATOM     19  C   UNL     1       7.507   4.962  13.671  0.00  0.00    +0.000 C 
ATOM     20  O   UNL     1       5.112   3.867  13.511  0.00  0.00    +0.000 OA
ATOM     21  O   UNL     1       5.429   5.900  14.959  0.00  0.00    +0.000 OA
ENDBRANCH  16  18
ENDBRANCH   6  16
TORSDOF 7
ENDMDL
MODEL 7
REMARK VINA RESULT:      -6.1      3.077      5.396
REMARK  Name = 
REMARK  9 active torsions:
REMARK  status: ('A' for Active; 'I' for Inactive)
REMARK    1  A    between atoms: C_1  and  O_2
REMARK    2  A    between atoms: O_2  and  C_3
REMARK    3  A    between atoms: C_3  and  C_4
REMARK    4  A    between atoms: C_4  and  C_5
REMARK    5  A    between atoms: C_5  and  N_6
REMARK    6  A    between atoms: C_7  and  C_9
REMARK    7  A    between atoms: C_14  and  N_15
REMARK    8  A    between atoms: N_15  and  S_16
REMARK    9  A    between atoms: S_16  and  C_17
REMARK                            x       y       z     vdW  Elec       q    Type
REMARK                         _______ _______ _______ _____ _____    ______ ____
ROOT
ATOM      1  C   UNL     1       5.437   4.208  18.151  0.00  0.00    +0.000 A 
ATOM      2  C   UNL     1       5.651   4.825  19.405  0.00  0.00    +0.000 A 
ATOM      3  C   UNL     1       6.825   5.524  19.696  0.00  0.00    +0.000 A 
ATOM      4  C   UNL     1       7.815   5.630  18.732  0.00  0.00    +0.000 A 
ATOM      5  C   UNL     1       7.622   5.040  17.484  0.00  0.00    +0.000 A 
ATOM      6  C   UNL     1       6.453   4.313  17.181  0.00  0.00    +0.000 A 
ENDROOT
BRANCH   1   8
ATOM      7  N   UNL     1       3.529   2.900  19.046  0.00  0.00    +0.000 N 
ATOM      8  C   UNL     1       4.074   3.585  17.989  0.00  0.00    +0.000 C 
ATOM      9  O   UNL     1       3.493   3.685  16.910  0.00  0.00    +0.000 OA
ATOM     10  H   UNL     1       4.006   2.926  19.938  0.00  0.00    +0.000 HD
BRANCH   7  11
ATOM     11  C   UNL     1       2.178   2.352  19.000  0.00  0.00    +0.000 C 
BRANCH  11  12
ATOM     12  C   UNL     1       1.398   2.671  20.274  0.00  0.00    +0.000 C 
BRANCH  12  13
ATOM     13  C   UNL     1       0.981   4.138  20.360  0.00  0.00    +0.000 C 
BRANCH  13  15
ATOM     14  C   UNL     1       2.215   6.124  20.031  0.00  0.00    +0.000 C 
ATOM     15  O   UNL     1       2.077   4.938  20.801  0.00  0.00    +0.000 OA
ENDBRANCH  13  15
ENDBRANCH  12  13
ENDBRANCH  11  12
ENDBRANCH   7  11
ENDBRANCH   1   8
BRANCH   6  16
ATOM     16  N   UNL     1       6.393   3.777  15.850  0.00  0.00    +0.000 N 
ATOM     17  H   UNL     1       5.912   2.879  15.761  0.00  0.00    +0.000 HD
BRANCH  16  18
ATOM     18  S   UNL     1       6.116   4.765  14.519  0.00  0.00    +0.000 S 
ATOM     19  C   UNL     1       5.219   6.203  15.103  0.00  0.00    +0.000 C 
ATOM     20  O   UNL     1       7.407   5.199  14.024  0.00  0.00    +0.000 OA
ATOM     21  O   UNL     1       5.219   4.004  13.680  0.00  0.00    +0.000 OA
ENDBRANCH  16  18
ENDBRANCH   6  16
TORSDOF 7
ENDMDL
MODEL 8
REMARK VINA RESULT:      -6.1      3.794      5.764
REMARK  Name = 
REMARK  9 active torsions:
REMARK  status: ('A' for Active; 'I' for Inactive)
REMARK    1  A    between atoms: C_1  and  O_2
REMARK    2  A    between atoms: O_2  and  C_3
REMARK    3  A    between atoms: C_3  and  C_4
REMARK    4  A    between atoms: C_4  and  C_5
REMARK    5  A    between atoms: C_5  and  N_6
REMARK    6  A    between atoms: C_7  and  C_9
REMARK    7  A    between atoms: C_14  and  N_15
REMARK    8  A    between atoms: N_15  and  S_16
REMARK    9  A    between atoms: S_16  and  C_17
REMARK                            x       y       z     vdW  Elec       q    Type
REMARK                         _______ _______ _______ _____ _____    ______ ____
ROOT
ATOM      1  C   UNL     1       3.788   5.974  18.002  0.00  0.00    +0.000 A 
ATOM      2  C   UNL     1       3.578   7.233  17.392  0.00  0.00    +0.000 A 
ATOM      3  C   UNL     1       2.749   8.203  17.959  0.00  0.00    +0.000 A 
ATOM      4  C   UNL     1       2.113   7.939  19.162  0.00  0.00    +0.000 A 
ATOM      5  C   UNL     1       2.312   6.710  19.788  0.00  0.00    +0.000 A 
ATOM      6  C   UNL     1       3.127   5.712  19.219  0.00  0.00    +0.000 A 
ENDROOT
BRANCH   1   8
ATOM      7  N   UNL     1       5.946   5.663  16.820  0.00  0.00    +0.000 N 
ATOM      8  C   UNL     1       4.788   5.098  17.294  0.00  0.00    +0.000 C 
ATOM      9  O   UNL     1       4.534   3.905  17.135  0.00  0.00    +0.000 OA
ATOM     10  H   UNL     1       6.147   6.626  17.057  0.00  0.00    +0.000 HD
BRANCH   7  11
ATOM     11  C   UNL     1       7.004   4.865  16.210  0.00  0.00    +0.000 C 
BRANCH  11  12
ATOM     12  C   UNL     1       6.944   4.923  14.685  0.00  0.00    +0.000 C 
BRANCH  12  13
ATOM     13  C   UNL     1       6.154   3.763  14.081  0.00  0.00    +0.000 C 
BRANCH  13  15
ATOM     14  C   UNL     1       5.348   3.178  11.940  0.00  0.00    +0.000 C 
ATOM     15  O   UNL     1       6.466   3.623  12.697  0.00  0.00    +0.000 OA
ENDBRANCH  13  15
ENDBRANCH  12  13
ENDBRANCH  11  12
ENDBRANCH   7  11
ENDBRANCH   1   8
BRANCH   6  16
ATOM     16  N   UNL     1       3.247   4.506  19.989  0.00  0.00    +0.000 N 
ATOM     17  H   UNL     1       3.449   4.639  20.983  0.00  0.00    +0.000 HD
BRANCH  16  18
ATOM     18  S   UNL     1       2.224   3.198  19.732  0.00  0.00    +0.000 S 
ATOM     19  C   UNL     1       1.344   2.903  21.266  0.00  0.00    +0.000 C 
ATOM     20  O   UNL     1       1.264   3.588  18.720  0.00  0.00    +0.000 OA
ATOM     21  O   UNL     1       3.110   2.077  19.518  0.00  0.00    +0.000 OA
ENDBRANCH  16  18
ENDBRANCH   6  16
TORSDOF 7
ENDMDL
MODEL 9
REMARK VINA RESULT:      -6.1      3.030      5.720
REMARK  Name = 
REMARK  9 active torsions:
REMARK  status: ('A' for Active; 'I' for Inactive)
REMARK    1  A    between atoms: C_1  and  O_2
REMARK    2  A    between atoms: O_2  and  C_3
REMARK    3  A    between atoms: C_3  and  C_4
REMARK    4  A    between atoms: C_4  and  C_5
REMARK    5  A    between atoms: C_5  and  N_6
REMARK    6  A    between atoms: C_7  and  C_9
REMARK    7  A    between atoms: C_14  and  N_15
REMARK    8  A    between atoms: N_15  and  S_16
REMARK    9  A    between atoms: S_16  and  C_17
REMARK                            x       y       z     vdW  Elec       q    Type
REMARK                         _______ _______ _______ _____ _____    ______ ____
ROOT
ATOM      1  C   UNL     1       5.437   4.433  18.159  0.00  0.00    +0.000 A 
ATOM      2  C   UNL     1       5.679   5.055  19.407  0.00  0.00    +0.000 A 
ATOM      3  C   UNL     1       6.932   5.567  19.748  0.00  0.00    +0.000 A 
ATOM      4  C   UNL     1       7.978   5.478  18.843  0.00  0.00    +0.000 A 
ATOM      5  C   UNL     1       7.762   4.879  17.603  0.00  0.00    +0.000 A 
ATOM      6  C   UNL     1       6.510   4.338  17.250  0.00  0.00    +0.000 A 
ENDROOT
BRANCH   1   8
ATOM      7  N   UNL     1       3.667   2.702  18.016  0.00  0.00    +0.000 N 
ATOM      8  C   UNL     1       4.003   4.030  17.933  0.00  0.00    +0.000 C 
ATOM      9  O   UNL     1       3.173   4.894  17.657  0.00  0.00    +0.000 OA
ATOM     10  H   UNL     1       4.367   2.044  18.336  0.00  0.00    +0.000 HD
BRANCH   7  11
ATOM     11  C   UNL     1       2.286   2.243  17.906  0.00  0.00    +0.000 C 
BRANCH  11  12
ATOM     12  C   UNL     1       1.648   2.046  19.279  0.00  0.00    +0.000 C 
BRANCH  12  13
ATOM     13  C   UNL     1       0.781   3.231  19.702  0.00  0.00    +0.000 C 
BRANCH  13  15
ATOM     14  C   UNL     1       2.151   3.107  21.621  0.00  0.00    +0.000 C 
ATOM     15  O   UNL     1       1.419   3.959  20.750  0.00  0.00    +0.000 OA
ENDBRANCH  13  15
ENDBRANCH  12  13
ENDBRANCH  11  12
ENDBRANCH   7  11
ENDBRANCH   1   8
BRANCH   6  16
ATOM     16  N   UNL     1       6.438   3.768  15.934  0.00  0.00    +0.000 N 
ATOM     17  H   UNL     1       5.873   2.919  15.855  0.00  0.00    +0.000 HD
BRANCH  16  18
ATOM     18  S   UNL     1       6.300   4.736  14.567  0.00  0.00    +0.000 S 
ATOM     19  C   UNL     1       5.276   6.139  15.011  0.00  0.00    +0.000 C 
ATOM     20  O   UNL     1       7.626   5.221  14.241  0.00  0.00    +0.000 OA
ATOM     21  O   UNL     1       5.553   3.934  13.625  0.00  0.00    +0.000 OA
ENDBRANCH  16  18
ENDBRANCH   6  16
TORSDOF 7
ENDMDL
