MODEL 1
REMARK VINA RESULT:      -7.8      0.000      0.000
REMARK  Name = 
REMARK  7 active torsions:
REMARK  status: ('A' for Active; 'I' for Inactive)
REMARK    1  A    between atoms: C_1  and  N_2
REMARK    2  A    between atoms: C_5  and  O_6
REMARK    3  A    between atoms: C_5  and  C_7
REMARK    4  A    between atoms: C_8  and  C_9
REMARK    5  A    between atoms: C_17  and  C_18
REMARK    6  A    between atoms: C_21  and  C_22
REMARK    7  A    between atoms: C_25  and  C_27
REMARK                            x       y       z     vdW  Elec       q    Type
REMARK                         _______ _______ _______ _____ _____    ______ ____
ROOT
ATOM      1  C   UNL     1       2.687   6.997  19.066  0.00  0.00    +0.000 A 
ATOM      2  C   UNL     1       2.319   6.078  20.037  0.00  0.00    +0.000 A 
ATOM      3  C   UNL     1       1.371   6.438  20.983  0.00  0.00    +0.000 A 
ATOM      4  C   UNL     1       0.815   7.735  21.001  0.00  0.00    +0.000 A 
ATOM      5  C   UNL     1       1.042   8.579  19.886  0.00  0.00    +0.000 A 
ATOM      6  C   UNL     1       1.984   8.193  18.921  0.00  0.00    +0.000 A 
ATOM      7  C   UNL     1       0.443   9.924  19.778  0.00  0.00    +0.000 A 
ATOM      8  N   UNL     1       0.172  10.523  18.626  0.00  0.00    +0.000 NA
ATOM      9  C   UNL     1      -0.349  11.774  18.927  0.00  0.00    +0.000 A 
ATOM     10  C   UNL     1      -0.437  11.923  20.303  0.00  0.00    +0.000 A 
ATOM     11  N   UNL     1       0.092  10.763  20.826  0.00  0.00    +0.000 N 
ATOM     12  C   UNL     1       0.100  10.449  22.240  0.00  0.00    +0.000 C 
ATOM     13  C   UNL     1      -0.896   9.278  22.491  0.00  0.00    +0.000 C 
ATOM     14  C   UNL     1       0.293   8.307  22.375  0.00  0.00    +0.000 C 
ATOM     15  C   UNL     1       1.191   9.510  22.792  0.00  0.00    +0.000 C 
ENDROOT
BRANCH  10  16
ATOM     16  C   UNL     1      -1.026  13.168  20.979  0.00  0.00    +0.000 C 
ATOM     17  C   UNL     1      -2.362  13.091  21.748  0.00  0.00    +0.000 C 
ATOM     18  N   UNL     1      -1.671  13.737  22.846  0.00  0.00    +0.000 N 
ATOM     19  C   UNL     1      -2.172  14.459  23.887  0.00  0.00    +0.000 C 
ATOM     20  O   UNL     1      -3.374  14.594  24.087  0.00  0.00    +0.000 OA
ATOM     21  C   UNL     1      -0.347  13.503  22.324  0.00  0.00    +0.000 C 
BRANCH  19  22
ATOM     22  C   UNL     1      -1.169  15.054  24.819  0.00  0.00    +0.000 C 
ATOM     23  C   UNL     1      -0.751  16.501  24.687  0.00  0.00    +0.000 C 
ATOM     24  C   UNL     1      -1.630  16.081  25.828  0.00  0.00    +0.000 C 
ENDBRANCH  19  22
ENDBRANCH  10  16
BRANCH   9  25
ATOM     25  C   UNL     1      -0.740  12.734  17.884  0.00  0.00    +0.000 C 
ATOM     26  N   UNL     1      -1.682  12.265  17.018  0.00  0.00    +0.000 N 
ATOM     27  O   UNL     1      -0.292  13.870  17.782  0.00  0.00    +0.000 OA
ATOM     28  H   UNL     1      -2.059  11.335  17.136  0.00  0.00    +0.000 HD
ATOM     29  H   UNL     1      -2.027  12.878  16.295  0.00  0.00    +0.000 HD
ENDBRANCH   9  25
BRANCH   1  31
ATOM     30  C   UNL     1       4.954   6.556  17.620  0.00  0.00    +0.000 C 
ATOM     31  C   UNL     1       3.850   6.750  18.285  0.00  0.00    +0.000 C 
BRANCH  30  36
ATOM     32  C   UNL     1       6.180   4.057  13.829  0.00  0.00    +0.000 C 
ATOM     33  N   UNL     1       6.376   4.732  15.087  0.00  0.00    +0.000 N 
ATOM     34  C   UNL     1       7.399   4.379  16.029  0.00  0.00    +0.000 C 
ATOM     35  C   UNL     1       6.929   5.037  17.315  0.00  0.00    +0.000 C 
ATOM     36  C   UNL     1       6.241   6.331  16.844  0.00  0.00    +0.000 C 
ATOM     37  C   UNL     1       5.827   5.976  15.383  0.00  0.00    +0.000 C 
ATOM     38  O   UNL     1       5.115   6.635  14.638  0.00  0.00    +0.000 OA
BRANCH  36  39
ATOM     39  O   UNL     1       7.127   7.420  16.999  0.00  0.00    +0.000 OA
ATOM     40  H   UNL     1       7.433   7.665  16.111  0.00  0.00    +0.000 HD
ENDBRANCH  36  39
ENDBRANCH  30  36
ENDBRANCH   1  31
TORSDOF 6
ENDMDL
MODEL 2
REMARK VINA RESULT:      -7.8      6.824      8.247
REMARK  Name = 
REMARK  7 active torsions:
REMARK  status: ('A' for Active; 'I' for Inactive)
REMARK    1  A    between atoms: C_1  and  N_2
REMARK    2  A    between atoms: C_5  and  O_6
REMARK    3  A    between atoms: C_5  and  C_7
REMARK    4  A    between atoms: C_8  and  C_9
REMARK    5  A    between atoms: C_17  and  C_18
REMARK    6  A    between atoms: C_21  and  C_22
REMARK    7  A    between atoms: C_25  and  C_27
REMARK                            x       y       z     vdW  Elec       q    Type
REMARK                         _______ _______ _______ _____ _____    ______ ____
ROOT
ATOM      1  C   UNL     1       9.112  10.099  18.683  0.00  0.00    +0.000 A 
ATOM      2  C   UNL     1       9.973  10.777  17.834  0.00  0.00    +0.000 A 
ATOM      3  C   UNL     1      10.406  12.047  18.186  0.00  0.00    +0.000 A 
ATOM      4  C   UNL     1       9.949  12.673  19.365  0.00  0.00    +0.000 A 
ATOM      5  C   UNL     1       9.247  11.888  20.314  0.00  0.00    +0.000 A 
ATOM      6  C   UNL     1       8.836  10.596  19.957  0.00  0.00    +0.000 A 
ATOM      7  C   UNL     1       8.793  12.433  21.609  0.00  0.00    +0.000 A 
ATOM      8  N   UNL     1       8.627  11.701  22.702  0.00  0.00    +0.000 NA
ATOM      9  C   UNL     1       8.166  12.551  23.698  0.00  0.00    +0.000 A 
ATOM     10  C   UNL     1       8.091  13.846  23.208  0.00  0.00    +0.000 A 
ATOM     11  N   UNL     1       8.460  13.753  21.883  0.00  0.00    +0.000 N 
ATOM     12  C   UNL     1       8.623  14.897  21.011  0.00  0.00    +0.000 C 
ATOM     13  C   UNL     1      10.140  15.065  20.696  0.00  0.00    +0.000 C 
ATOM     14  C   UNL     1       9.912  14.250  19.410  0.00  0.00    +0.000 C 
ATOM     15  C   UNL     1       8.428  14.715  19.493  0.00  0.00    +0.000 C 
ENDROOT
BRANCH  10  16
ATOM     16  C   UNL     1       7.673  15.048  24.064  0.00  0.00    +0.000 C 
ATOM     17  C   UNL     1       7.413  16.426  23.418  0.00  0.00    +0.000 C 
ATOM     18  N   UNL     1       6.151  16.428  24.130  0.00  0.00    +0.000 N 
ATOM     19  C   UNL     1       5.355  17.474  24.490  0.00  0.00    +0.000 C 
ATOM     20  O   UNL     1       5.584  18.631  24.157  0.00  0.00    +0.000 OA
ATOM     21  C   UNL     1       6.180  15.023  24.454  0.00  0.00    +0.000 C 
BRANCH  19  22
ATOM     22  C   UNL     1       4.139  17.132  25.286  0.00  0.00    +0.000 C 
ATOM     23  C   UNL     1       4.204  17.032  26.794  0.00  0.00    +0.000 C 
ATOM     24  C   UNL     1       3.513  18.200  26.154  0.00  0.00    +0.000 C 
ENDBRANCH  19  22
ENDBRANCH  10  16
BRANCH   9  25
ATOM     25  C   UNL     1       7.842  12.073  25.050  0.00  0.00    +0.000 C 
ATOM     26  N   UNL     1       8.720  12.480  26.011  0.00  0.00    +0.000 N 
ATOM     27  O   UNL     1       6.869  11.384  25.330  0.00  0.00    +0.000 OA
ATOM     28  H   UNL     1       9.501  13.072  25.764  0.00  0.00    +0.000 HD
ATOM     29  H   UNL     1       8.546  12.222  26.970  0.00  0.00    +0.000 HD
ENDBRANCH   9  25
BRANCH   1  31
ATOM     30  C   UNL     1       7.881   7.842  17.777  0.00  0.00    +0.000 C 
ATOM     31  C   UNL     1       8.438   8.941  18.205  0.00  0.00    +0.000 C 
BRANCH  30  36
ATOM     32  C   UNL     1       3.979   5.439  18.835  0.00  0.00    +0.000 C 
ATOM     33  N   UNL     1       5.323   5.631  18.350  0.00  0.00    +0.000 N 
ATOM     34  C   UNL     1       6.324   4.603  18.352  0.00  0.00    +0.000 C 
ATOM     35  C   UNL     1       7.620   5.380  18.185  0.00  0.00    +0.000 C 
ATOM     36  C   UNL     1       7.233   6.562  17.278  0.00  0.00    +0.000 C 
ATOM     37  C   UNL     1       5.703   6.701  17.546  0.00  0.00    +0.000 C 
ATOM     38  O   UNL     1       4.968   7.601  17.167  0.00  0.00    +0.000 OA
BRANCH  36  39
ATOM     39  O   UNL     1       7.615   6.281  15.949  0.00  0.00    +0.000 OA
ATOM     40  H   UNL     1       8.546   6.004  15.974  0.00  0.00    +0.000 HD
ENDBRANCH  36  39
ENDBRANCH  30  36
ENDBRANCH   1  31
TORSDOF 6
ENDMDL
MODEL 3
REMARK VINA RESULT:      -7.6      0.885      1.073
REMARK  Name = 
REMARK  7 active torsions:
REMARK  status: ('A' for Active; 'I' for Inactive)
REMARK    1  A    between atoms: C_1  and  N_2
REMARK    2  A    between atoms: C_5  and  O_6
REMARK    3  A    between atoms: C_5  and  C_7
REMARK    4  A    between atoms: C_8  and  C_9
REMARK    5  A    between atoms: C_17  and  C_18
REMARK    6  A    between atoms: C_21  and  C_22
REMARK    7  A    between atoms: C_25  and  C_27
REMARK                            x       y       z     vdW  Elec       q    Type
REMARK                         _______ _______ _______ _____ _____    ______ ____
ROOT
ATOM      1  C   UNL     1       2.731   7.048  19.017  0.00  0.00    +0.000 A 
ATOM      2  C   UNL     1       2.345   6.103  19.955  0.00  0.00    +0.000 A 
ATOM      3  C   UNL     1       1.411   6.452  20.919  0.00  0.00    +0.000 A 
ATOM      4  C   UNL     1       0.885   7.760  20.987  0.00  0.00    +0.000 A 
ATOM      5  C   UNL     1       1.128   8.638  19.901  0.00  0.00    +0.000 A 
ATOM      6  C   UNL     1       2.056   8.264  18.918  0.00  0.00    +0.000 A 
ATOM      7  C   UNL     1       0.560  10.000  19.844  0.00  0.00    +0.000 A 
ATOM      8  N   UNL     1       0.298  10.646  18.717  0.00  0.00    +0.000 NA
ATOM      9  C   UNL     1      -0.191  11.897  19.065  0.00  0.00    +0.000 A 
ATOM     10  C   UNL     1      -0.270  11.999  20.446  0.00  0.00    +0.000 A 
ATOM     11  N   UNL     1       0.234  10.808  20.925  0.00  0.00    +0.000 N 
ATOM     12  C   UNL     1       0.241  10.444  22.326  0.00  0.00    +0.000 C 
ATOM     13  C   UNL     1      -0.782   9.288  22.540  0.00  0.00    +0.000 C 
ATOM     14  C   UNL     1       0.383   8.294  22.383  0.00  0.00    +0.000 C 
ATOM     15  C   UNL     1       1.312   9.460  22.837  0.00  0.00    +0.000 C 
ENDROOT
BRANCH  10  16
ATOM     16  C   UNL     1      -0.826  13.232  21.169  0.00  0.00    +0.000 C 
ATOM     17  C   UNL     1      -1.061  13.212  22.695  0.00  0.00    +0.000 C 
ATOM     18  N   UNL     1      -0.306  14.449  22.742  0.00  0.00    +0.000 N 
ATOM     19  C   UNL     1      -0.308  15.436  23.682  0.00  0.00    +0.000 C 
ATOM     20  O   UNL     1      -0.937  15.356  24.731  0.00  0.00    +0.000 OA
ATOM     21  C   UNL     1       0.240  14.321  21.413  0.00  0.00    +0.000 C 
BRANCH  19  22
ATOM     22  C   UNL     1       0.546  16.625  23.390  0.00  0.00    +0.000 C 
ATOM     23  C   UNL     1      -0.033  17.846  22.711  0.00  0.00    +0.000 C 
ATOM     24  C   UNL     1       0.313  17.899  24.170  0.00  0.00    +0.000 C 
ENDBRANCH  19  22
ENDBRANCH  10  16
BRANCH   9  25
ATOM     25  C   UNL     1      -0.564  12.903  18.059  0.00  0.00    +0.000 C 
ATOM     26  N   UNL     1      -1.481  12.469  17.148  0.00  0.00    +0.000 N 
ATOM     27  O   UNL     1      -0.124  14.045  18.022  0.00  0.00    +0.000 OA
ATOM     28  H   UNL     1      -1.853  11.532  17.213  0.00  0.00    +0.000 HD
ATOM     29  H   UNL     1      -1.813  13.113  16.447  0.00  0.00    +0.000 HD
ENDBRANCH   9  25
BRANCH   1  31
ATOM     30  C   UNL     1       4.975   6.556  17.551  0.00  0.00    +0.000 C 
ATOM     31  C   UNL     1       3.884   6.802  18.221  0.00  0.00    +0.000 C 
BRANCH  30  36
ATOM     32  C   UNL     1       6.081   3.939  13.803  0.00  0.00    +0.000 C 
ATOM     33  N   UNL     1       6.311   4.632  15.045  0.00  0.00    +0.000 N 
ATOM     34  C   UNL     1       7.328   4.262  15.987  0.00  0.00    +0.000 C 
ATOM     35  C   UNL     1       6.892   4.962  17.263  0.00  0.00    +0.000 C 
ATOM     36  C   UNL     1       6.247   6.270  16.771  0.00  0.00    +0.000 C 
ATOM     37  C   UNL     1       5.809   5.901  15.320  0.00  0.00    +0.000 C 
ATOM     38  O   UNL     1       5.115   6.569  14.568  0.00  0.00    +0.000 OA
BRANCH  36  39
ATOM     39  O   UNL     1       7.172   7.329  16.898  0.00  0.00    +0.000 OA
ATOM     40  H   UNL     1       6.898   8.021  16.273  0.00  0.00    +0.000 HD
ENDBRANCH  36  39
ENDBRANCH  30  36
ENDBRANCH   1  31
TORSDOF 6
ENDMDL
MODEL 4
REMARK VINA RESULT:      -7.4      7.359      8.709
REMARK  Name = 
REMARK  7 active torsions:
REMARK  status: ('A' for Active; 'I' for Inactive)
REMARK    1  A    between atoms: C_1  and  N_2
REMARK    2  A    between atoms: C_5  and  O_6
REMARK    3  A    between atoms: C_5  and  C_7
REMARK    4  A    between atoms: C_8  and  C_9
REMARK    5  A    between atoms: C_17  and  C_18
REMARK    6  A    between atoms: C_21  and  C_22
REMARK    7  A    between atoms: C_25  and  C_27
REMARK                            x       y       z     vdW  Elec       q    Type
REMARK                         _______ _______ _______ _____ _____    ______ ____
ROOT
ATOM      1  C   UNL     1       9.122  10.053  18.665  0.00  0.00    +0.000 A 
ATOM      2  C   UNL     1      10.034  10.697  17.843  0.00  0.00    +0.000 A 
ATOM      3  C   UNL     1      10.486  11.960  18.195  0.00  0.00    +0.000 A 
ATOM      4  C   UNL     1       9.998  12.615  19.346  0.00  0.00    +0.000 A 
ATOM      5  C   UNL     1       9.239  11.862  20.276  0.00  0.00    +0.000 A 
ATOM      6  C   UNL     1       8.809  10.575  19.920  0.00  0.00    +0.000 A 
ATOM      7  C   UNL     1       8.747  12.437  21.544  0.00  0.00    +0.000 A 
ATOM      8  N   UNL     1       8.518  11.725  22.639  0.00  0.00    +0.000 NA
ATOM      9  C   UNL     1       8.039  12.600  23.604  0.00  0.00    +0.000 A 
ATOM     10  C   UNL     1       8.018  13.890  23.094  0.00  0.00    +0.000 A 
ATOM     11  N   UNL     1       8.438  13.768  21.787  0.00  0.00    +0.000 N 
ATOM     12  C   UNL     1       8.666  14.895  20.907  0.00  0.00    +0.000 C 
ATOM     13  C   UNL     1      10.198  15.020  20.652  0.00  0.00    +0.000 C 
ATOM     14  C   UNL     1      10.001  14.192  19.369  0.00  0.00    +0.000 C 
ATOM     15  C   UNL     1       8.527  14.696  19.385  0.00  0.00    +0.000 C 
ENDROOT
BRANCH  10  16
ATOM     16  C   UNL     1       7.598  15.114  23.917  0.00  0.00    +0.000 C 
ATOM     17  C   UNL     1       6.556  14.984  25.049  0.00  0.00    +0.000 C 
ATOM     18  N   UNL     1       7.510  15.676  25.892  0.00  0.00    +0.000 N 
ATOM     19  C   UNL     1       7.307  16.388  27.037  0.00  0.00    +0.000 C 
ATOM     20  O   UNL     1       6.214  16.468  27.586  0.00  0.00    +0.000 OA
ATOM     21  C   UNL     1       8.629  15.499  24.999  0.00  0.00    +0.000 C 
BRANCH  19  22
ATOM     22  C   UNL     1       8.512  17.040  27.629  0.00  0.00    +0.000 C 
ATOM     23  C   UNL     1       8.864  18.470  27.287  0.00  0.00    +0.000 C 
ATOM     24  C   UNL     1       8.318  18.143  28.646  0.00  0.00    +0.000 C 
ENDBRANCH  19  22
ENDBRANCH  10  16
BRANCH   9  25
ATOM     25  C   UNL     1       7.650  12.151  24.949  0.00  0.00    +0.000 C 
ATOM     26  N   UNL     1       6.460  11.486  24.993  0.00  0.00    +0.000 N 
ATOM     27  O   UNL     1       8.318  12.325  25.961  0.00  0.00    +0.000 OA
ATOM     28  H   UNL     1       5.938  11.328  24.143  0.00  0.00    +0.000 HD
ATOM     29  H   UNL     1       6.142  11.116  25.875  0.00  0.00    +0.000 HD
ENDBRANCH   9  25
BRANCH   1  31
ATOM     30  C   UNL     1       7.865   7.814  17.754  0.00  0.00    +0.000 C 
ATOM     31  C   UNL     1       8.439   8.906  18.175  0.00  0.00    +0.000 C 
BRANCH  30  36
ATOM     32  C   UNL     1       3.944   5.459  18.849  0.00  0.00    +0.000 C 
ATOM     33  N   UNL     1       5.286   5.634  18.352  0.00  0.00    +0.000 N 
ATOM     34  C   UNL     1       6.274   4.594  18.346  0.00  0.00    +0.000 C 
ATOM     35  C   UNL     1       7.577   5.355  18.166  0.00  0.00    +0.000 C 
ATOM     36  C   UNL     1       7.196   6.541  17.262  0.00  0.00    +0.000 C 
ATOM     37  C   UNL     1       5.670   6.699  17.544  0.00  0.00    +0.000 C 
ATOM     38  O   UNL     1       4.943   7.608  17.171  0.00  0.00    +0.000 OA
BRANCH  36  39
ATOM     39  O   UNL     1       7.563   6.256  15.929  0.00  0.00    +0.000 OA
ATOM     40  H   UNL     1       6.765   5.931  15.479  0.00  0.00    +0.000 HD
ENDBRANCH  36  39
ENDBRANCH  30  36
ENDBRANCH   1  31
TORSDOF 6
ENDMDL
MODEL 5
REMARK VINA RESULT:      -7.4      5.156      7.227
REMARK  Name = 
REMARK  7 active torsions:
REMARK  status: ('A' for Active; 'I' for Inactive)
REMARK    1  A    between atoms: C_1  and  N_2
REMARK    2  A    between atoms: C_5  and  O_6
REMARK    3  A    between atoms: C_5  and  C_7
REMARK    4  A    between atoms: C_8  and  C_9
REMARK    5  A    between atoms: C_17  and  C_18
REMARK    6  A    between atoms: C_21  and  C_22
REMARK    7  A    between atoms: C_25  and  C_27
REMARK                            x       y       z     vdW  Elec       q    Type
REMARK                         _______ _______ _______ _____ _____    ______ ____
ROOT
ATOM      1  C   UNL     1       4.590  15.601  19.805  0.00  0.00    +0.000 A 
ATOM      2  C   UNL     1       4.238  16.934  19.951  0.00  0.00    +0.000 A 
ATOM      3  C   UNL     1       2.930  17.256  20.280  0.00  0.00    +0.000 A 
ATOM      4  C   UNL     1       1.945  16.253  20.420  0.00  0.00    +0.000 A 
ATOM      5  C   UNL     1       2.367  14.902  20.477  0.00  0.00    +0.000 A 
ATOM      6  C   UNL     1       3.700  14.591  20.169  0.00  0.00    +0.000 A 
ATOM      7  C   UNL     1       1.422  13.788  20.696  0.00  0.00    +0.000 A 
ATOM      8  N   UNL     1       1.754  12.638  21.265  0.00  0.00    +0.000 NA
ATOM      9  C   UNL     1       0.619  11.839  21.267  0.00  0.00    +0.000 A 
ATOM     10  C   UNL     1      -0.446  12.540  20.721  0.00  0.00    +0.000 A 
ATOM     11  N   UNL     1       0.081  13.756  20.339  0.00  0.00    +0.000 N 
ATOM     12  C   UNL     1      -0.713  14.847  19.814  0.00  0.00    +0.000 C 
ATOM     13  C   UNL     1      -0.747  15.987  20.875  0.00  0.00    +0.000 C 
ATOM     14  C   UNL     1       0.441  16.637  20.142  0.00  0.00    +0.000 C 
ATOM     15  C   UNL     1      -0.046  15.872  18.876  0.00  0.00    +0.000 C 
ENDROOT
BRANCH  10  16
ATOM     16  C   UNL     1      -1.867  11.973  20.624  0.00  0.00    +0.000 C 
ATOM     17  C   UNL     1      -3.059  12.716  21.264  0.00  0.00    +0.000 C 
ATOM     18  N   UNL     1      -3.721  12.586  19.982  0.00  0.00    +0.000 N 
ATOM     19  C   UNL     1      -5.049  12.620  19.678  0.00  0.00    +0.000 C 
ATOM     20  O   UNL     1      -5.916  12.869  20.509  0.00  0.00    +0.000 OA
ATOM     21  C   UNL     1      -2.528  12.230  19.253  0.00  0.00    +0.000 C 
BRANCH  19  22
ATOM     22  C   UNL     1      -5.405  12.382  18.248  0.00  0.00    +0.000 C 
ATOM     23  C   UNL     1      -5.677  10.984  17.741  0.00  0.00    +0.000 C 
ATOM     24  C   UNL     1      -6.813  11.949  17.910  0.00  0.00    +0.000 C 
ENDBRANCH  19  22
ENDBRANCH  10  16
BRANCH   9  25
ATOM     25  C   UNL     1       0.623  10.469  21.800  0.00  0.00    +0.000 C 
ATOM     26  N   UNL     1       0.826   9.503  20.859  0.00  0.00    +0.000 N 
ATOM     27  O   UNL     1       0.478  10.182  22.982  0.00  0.00    +0.000 OA
ATOM     28  H   UNL     1       0.972   9.762  19.894  0.00  0.00    +0.000 HD
ATOM     29  H   UNL     1       0.877   8.540  21.153  0.00  0.00    +0.000 HD
ENDBRANCH   9  25
BRANCH   1  31
ATOM     30  C   UNL     1       6.984  14.937  18.686  0.00  0.00    +0.000 C 
ATOM     31  C   UNL     1       5.831  15.276  19.192  0.00  0.00    +0.000 C 
BRANCH  30  36
ATOM     32  C   UNL     1       9.361  10.910  18.181  0.00  0.00    +0.000 C 
ATOM     33  N   UNL     1       9.187  12.335  18.317  0.00  0.00    +0.000 N 
ATOM     34  C   UNL     1      10.181  13.208  18.873  0.00  0.00    +0.000 C 
ATOM     35  C   UNL     1       9.393  14.463  19.207  0.00  0.00    +0.000 C 
ATOM     36  C   UNL     1       8.328  14.543  18.098  0.00  0.00    +0.000 C 
ATOM     37  C   UNL     1       8.201  13.055  17.649  0.00  0.00    +0.000 C 
ATOM     38  O   UNL     1       7.369  12.583  16.889  0.00  0.00    +0.000 OA
BRANCH  36  39
ATOM     39  O   UNL     1       8.743  15.464  17.112  0.00  0.00    +0.000 OA
ATOM     40  H   UNL     1       8.038  16.127  17.029  0.00  0.00    +0.000 HD
ENDBRANCH  36  39
ENDBRANCH  30  36
ENDBRANCH   1  31
TORSDOF 6
ENDMDL
MODEL 6
REMARK VINA RESULT:      -7.4      3.067      3.898
REMARK  Name = 
REMARK  7 active torsions:
REMARK  status: ('A' for Active; 'I' for Inactive)
REMARK    1  A    between atoms: C_1  and  N_2
REMARK    2  A    between atoms: C_5  and  O_6
REMARK    3  A    between atoms: C_5  and  C_7
REMARK    4  A    between atoms: C_8  and  C_9
REMARK    5  A    between atoms: C_17  and  C_18
REMARK    6  A    between atoms: C_21  and  C_22
REMARK    7  A    between atoms: C_25  and  C_27
REMARK                            x       y       z     vdW  Elec       q    Type
REMARK                         _______ _______ _______ _____ _____    ______ ____
ROOT
ATOM      1  C   UNL     1       1.718   9.215  17.919  0.00  0.00    +0.000 A 
ATOM      2  C   UNL     1       0.353   8.987  17.823  0.00  0.00    +0.000 A 
ATOM      3  C   UNL     1      -0.526  10.006  18.158  0.00  0.00    +0.000 A 
ATOM      4  C   UNL     1      -0.056  11.248  18.637  0.00  0.00    +0.000 A 
ATOM      5  C   UNL     1       1.328  11.531  18.525  0.00  0.00    +0.000 A 
ATOM      6  C   UNL     1       2.206  10.499  18.160  0.00  0.00    +0.000 A 
ATOM      7  C   UNL     1       1.904  12.828  18.929  0.00  0.00    +0.000 A 
ATOM      8  N   UNL     1       3.004  13.347  18.399  0.00  0.00    +0.000 NA
ATOM      9  C   UNL     1       3.246  14.548  19.051  0.00  0.00    +0.000 A 
ATOM     10  C   UNL     1       2.239  14.788  19.975  0.00  0.00    +0.000 A 
ATOM     11  N   UNL     1       1.417  13.684  19.908  0.00  0.00    +0.000 N 
ATOM     12  C   UNL     1       0.172  13.563  20.637  0.00  0.00    +0.000 C 
ATOM     13  C   UNL     1      -1.004  13.629  19.617  0.00  0.00    +0.000 C 
ATOM     14  C   UNL     1      -0.996  12.089  19.584  0.00  0.00    +0.000 C 
ATOM     15  C   UNL     1      -0.349  12.158  21.000  0.00  0.00    +0.000 C 
ENDROOT
BRANCH  10  16
ATOM     16  C   UNL     1       2.166  16.060  20.829  0.00  0.00    +0.000 C 
ATOM     17  C   UNL     1       0.888  16.926  20.848  0.00  0.00    +0.000 C 
ATOM     18  N   UNL     1       0.962  16.855  22.293  0.00  0.00    +0.000 N 
ATOM     19  C   UNL     1       0.430  17.684  23.235  0.00  0.00    +0.000 C 
ATOM     20  O   UNL     1      -0.307  18.623  22.956  0.00  0.00    +0.000 OA
ATOM     21  C   UNL     1       1.913  15.771  22.324  0.00  0.00    +0.000 C 
BRANCH  19  22
ATOM     22  C   UNL     1       0.757  17.362  24.656  0.00  0.00    +0.000 C 
ATOM     23  C   UNL     1       1.923  18.025  25.352  0.00  0.00    +0.000 C 
ATOM     24  C   UNL     1       0.520  18.415  25.715  0.00  0.00    +0.000 C 
ENDBRANCH  19  22
ENDBRANCH  10  16
BRANCH   9  25
ATOM     25  C   UNL     1       4.410  15.390  18.740  0.00  0.00    +0.000 C 
ATOM     26  N   UNL     1       5.499  15.150  19.524  0.00  0.00    +0.000 N 
ATOM     27  O   UNL     1       4.441  16.232  17.850  0.00  0.00    +0.000 OA
ATOM     28  H   UNL     1       5.462  14.432  20.233  0.00  0.00    +0.000 HD
ATOM     29  H   UNL     1       6.349  15.664  19.347  0.00  0.00    +0.000 HD
ENDBRANCH   9  25
BRANCH   1  31
ATOM     30  C   UNL     1       3.405   7.076  17.879  0.00  0.00    +0.000 C 
ATOM     31  C   UNL     1       2.609   8.109  17.863  0.00  0.00    +0.000 C 
BRANCH  30  36
ATOM     32  C   UNL     1       5.924   4.746  14.661  0.00  0.00    +0.000 C 
ATOM     33  N   UNL     1       5.190   4.927  15.889  0.00  0.00    +0.000 N 
ATOM     34  C   UNL     1       4.516   3.864  16.577  0.00  0.00    +0.000 C 
ATOM     35  C   UNL     1       3.564   4.599  17.505  0.00  0.00    +0.000 C 
ATOM     36  C   UNL     1       4.333   5.873  17.897  0.00  0.00    +0.000 C 
ATOM     37  C   UNL     1       5.319   6.050  16.701  0.00  0.00    +0.000 C 
ATOM     38  O   UNL     1       6.043   7.009  16.479  0.00  0.00    +0.000 OA
BRANCH  36  39
ATOM     39  O   UNL     1       4.916   5.699  19.171  0.00  0.00    +0.000 OA
ATOM     40  H   UNL     1       5.791   5.301  19.031  0.00  0.00    +0.000 HD
ENDBRANCH  36  39
ENDBRANCH  30  36
ENDBRANCH   1  31
TORSDOF 6
ENDMDL
MODEL 7
REMARK VINA RESULT:      -7.3      0.974      1.129
REMARK  Name = 
REMARK  7 active torsions:
REMARK  status: ('A' for Active; 'I' for Inactive)
REMARK    1  A    between atoms: C_1  and  N_2
REMARK    2  A    between atoms: C_5  and  O_6
REMARK    3  A    between atoms: C_5  and  C_7
REMARK    4  A    between atoms: C_8  and  C_9
REMARK    5  A    between atoms: C_17  and  C_18
REMARK    6  A    between atoms: C_21  and  C_22
REMARK    7  A    between atoms: C_25  and  C_27
REMARK                            x       y       z     vdW  Elec       q    Type
REMARK                         _______ _______ _______ _____ _____    ______ ____
ROOT
ATOM      1  C   UNL     1       2.792   7.054  18.966  0.00  0.00    +0.000 A 
ATOM      2  C   UNL     1       2.263   6.081  19.801  0.00  0.00    +0.000 A 
ATOM      3  C   UNL     1       1.310   6.444  20.741  0.00  0.00    +0.000 A 
ATOM      4  C   UNL     1       0.907   7.789  20.890  0.00  0.00    +0.000 A 
ATOM      5  C   UNL     1       1.296   8.720  19.896  0.00  0.00    +0.000 A 
ATOM      6  C   UNL     1       2.242   8.335  18.934  0.00  0.00    +0.000 A 
ATOM      7  C   UNL     1       0.864  10.132  19.924  0.00  0.00    +0.000 A 
ATOM      8  N   UNL     1       0.731  10.887  18.842  0.00  0.00    +0.000 NA
ATOM      9  C   UNL     1       0.343  12.149  19.268  0.00  0.00    +0.000 A 
ATOM     10  C   UNL     1       0.191  12.150  20.647  0.00  0.00    +0.000 A 
ATOM     11  N   UNL     1       0.552  10.882  21.050  0.00  0.00    +0.000 N 
ATOM     12  C   UNL     1       0.440  10.410  22.414  0.00  0.00    +0.000 C 
ATOM     13  C   UNL     1      -0.698   9.348  22.477  0.00  0.00    +0.000 C 
ATOM     14  C   UNL     1       0.376   8.259  22.299  0.00  0.00    +0.000 C 
ATOM     15  C   UNL     1       1.381   9.288  22.897  0.00  0.00    +0.000 C 
ENDROOT
BRANCH  10  16
ATOM     16  C   UNL     1      -0.287  13.371  21.442  0.00  0.00    +0.000 C 
ATOM     17  C   UNL     1      -1.291  14.370  20.825  0.00  0.00    +0.000 C 
ATOM     18  N   UNL     1      -2.067  14.209  22.039  0.00  0.00    +0.000 N 
ATOM     19  C   UNL     1      -2.995  15.037  22.596  0.00  0.00    +0.000 C 
ATOM     20  O   UNL     1      -3.382  16.065  22.052  0.00  0.00    +0.000 OA
ATOM     21  C   UNL     1      -1.371  13.027  22.485  0.00  0.00    +0.000 C 
BRANCH  19  22
ATOM     22  C   UNL     1      -3.566  14.601  23.905  0.00  0.00    +0.000 C 
ATOM     23  C   UNL     1      -2.972  15.085  25.208  0.00  0.00    +0.000 C 
ATOM     24  C   UNL     1      -4.301  15.613  24.753  0.00  0.00    +0.000 C 
ENDBRANCH  19  22
ENDBRANCH  10  16
BRANCH   9  25
ATOM     25  C   UNL     1       0.127  13.263  18.333  0.00  0.00    +0.000 C 
ATOM     26  N   UNL     1      -0.936  13.092  17.497  0.00  0.00    +0.000 N 
ATOM     27  O   UNL     1       0.812  14.278  18.290  0.00  0.00    +0.000 OA
ATOM     28  H   UNL     1      -1.505  12.261  17.566  0.00  0.00    +0.000 HD
ATOM     29  H   UNL     1      -1.169  13.830  16.849  0.00  0.00    +0.000 HD
ENDBRANCH   9  25
BRANCH   1  31
ATOM     30  C   UNL     1       5.010   6.419  17.515  0.00  0.00    +0.000 C 
ATOM     31  C   UNL     1       3.962   6.758  18.213  0.00  0.00    +0.000 C 
BRANCH  30  36
ATOM     32  C   UNL     1       5.754   3.936  13.591  0.00  0.00    +0.000 C 
ATOM     33  N   UNL     1       6.076   4.510  14.873  0.00  0.00    +0.000 N 
ATOM     34  C   UNL     1       7.041   3.950  15.776  0.00  0.00    +0.000 C 
ATOM     35  C   UNL     1       6.703   4.614  17.100  0.00  0.00    +0.000 C 
ATOM     36  C   UNL     1       6.231   6.024  16.702  0.00  0.00    +0.000 C 
ATOM     37  C   UNL     1       5.744   5.812  15.236  0.00  0.00    +0.000 C 
ATOM     38  O   UNL     1       5.139   6.612  14.538  0.00  0.00    +0.000 OA
BRANCH  36  39
ATOM     39  O   UNL     1       7.286   6.944  16.887  0.00  0.00    +0.000 OA
ATOM     40  H   UNL     1       7.243   7.244  17.810  0.00  0.00    +0.000 HD
ENDBRANCH  36  39
ENDBRANCH  30  36
ENDBRANCH   1  31
TORSDOF 6
ENDMDL
MODEL 8
REMARK VINA RESULT:      -7.3      3.618      4.714
REMARK  Name = 
REMARK  7 active torsions:
REMARK  status: ('A' for Active; 'I' for Inactive)
REMARK    1  A    between atoms: C_1  and  N_2
REMARK    2  A    between atoms: C_5  and  O_6
REMARK    3  A    between atoms: C_5  and  C_7
REMARK    4  A    between atoms: C_8  and  C_9
REMARK    5  A    between atoms: C_17  and  C_18
REMARK    6  A    between atoms: C_21  and  C_22
REMARK    7  A    between atoms: C_25  and  C_27
REMARK                            x       y       z     vdW  Elec       q    Type
REMARK                         _______ _______ _______ _____ _____    ______ ____
ROOT
ATOM      1  C   UNL     1       1.270   9.341  18.016  0.00  0.00    +0.000 A 
ATOM      2  C   UNL     1      -0.111   9.336  17.891  0.00  0.00    +0.000 A 
ATOM      3  C   UNL     1      -0.821  10.485  18.207  0.00  0.00    +0.000 A 
ATOM      4  C   UNL     1      -0.167  11.636  18.697  0.00  0.00    +0.000 A 
ATOM      5  C   UNL     1       1.247  11.690  18.615  0.00  0.00    +0.000 A 
ATOM      6  C   UNL     1       1.954  10.530  18.269  0.00  0.00    +0.000 A 
ATOM      7  C   UNL     1       2.017  12.879  19.033  0.00  0.00    +0.000 A 
ATOM      8  N   UNL     1       3.197  13.211  18.528  0.00  0.00    +0.000 NA
ATOM      9  C   UNL     1       3.616  14.359  19.186  0.00  0.00    +0.000 A 
ATOM     10  C   UNL     1       2.642  14.762  20.087  0.00  0.00    +0.000 A 
ATOM     11  N   UNL     1       1.653  13.804  20.001  0.00  0.00    +0.000 N 
ATOM     12  C   UNL     1       0.389  13.889  20.703  0.00  0.00    +0.000 C 
ATOM     13  C   UNL     1      -0.738  14.142  19.658  0.00  0.00    +0.000 C 
ATOM     14  C   UNL     1      -0.978  12.621  19.624  0.00  0.00    +0.000 C 
ATOM     15  C   UNL     1      -0.360  12.589  21.053  0.00  0.00    +0.000 C 
ENDROOT
BRANCH  10  16
ATOM     16  C   UNL     1       2.757  16.031  20.940  0.00  0.00    +0.000 C 
ATOM     17  C   UNL     1       1.522  16.920  21.204  0.00  0.00    +0.000 C 
ATOM     18  N   UNL     1       1.870  16.841  22.608  0.00  0.00    +0.000 N 
ATOM     19  C   UNL     1       1.544  17.676  23.635  0.00  0.00    +0.000 C 
ATOM     20  O   UNL     1       0.785  18.629  23.503  0.00  0.00    +0.000 OA
ATOM     21  C   UNL     1       2.789  15.740  22.455  0.00  0.00    +0.000 C 
BRANCH  19  22
ATOM     22  C   UNL     1       2.130  17.342  24.967  0.00  0.00    +0.000 C 
ATOM     23  C   UNL     1       3.423  17.977  25.425  0.00  0.00    +0.000 C 
ATOM     24  C   UNL     1       2.125  18.396  26.050  0.00  0.00    +0.000 C 
ENDBRANCH  19  22
ENDBRANCH  10  16
BRANCH   9  25
ATOM     25  C   UNL     1       4.908  15.001  18.900  0.00  0.00    +0.000 C 
ATOM     26  N   UNL     1       5.037  15.450  17.620  0.00  0.00    +0.000 N 
ATOM     27  O   UNL     1       5.806  15.152  19.720  0.00  0.00    +0.000 OA
ATOM     28  H   UNL     1       4.275  15.341  16.967  0.00  0.00    +0.000 HD
ATOM     29  H   UNL     1       5.882  15.934  17.357  0.00  0.00    +0.000 HD
ENDBRANCH   9  25
BRANCH   1  31
ATOM     30  C   UNL     1       2.576   6.949  18.003  0.00  0.00    +0.000 C 
ATOM     31  C   UNL     1       1.971   8.104  17.980  0.00  0.00    +0.000 C 
BRANCH  30  36
ATOM     32  C   UNL     1       1.516   2.652  19.592  0.00  0.00    +0.000 C 
ATOM     33  N   UNL     1       2.373   3.744  19.205  0.00  0.00    +0.000 N 
ATOM     34  C   UNL     1       3.689   3.950  19.738  0.00  0.00    +0.000 C 
ATOM     35  C   UNL     1       3.984   5.398  19.386  0.00  0.00    +0.000 C 
ATOM     36  C   UNL     1       3.282   5.604  18.032  0.00  0.00    +0.000 C 
ATOM     37  C   UNL     1       2.166   4.515  18.065  0.00  0.00    +0.000 C 
ATOM     38  O   UNL     1       1.247   4.377  17.271  0.00  0.00    +0.000 OA
BRANCH  36  39
ATOM     39  O   UNL     1       4.228   5.503  16.989  0.00  0.00    +0.000 OA
ATOM     40  H   UNL     1       4.540   6.403  16.801  0.00  0.00    +0.000 HD
ENDBRANCH  36  39
ENDBRANCH  30  36
ENDBRANCH   1  31
TORSDOF 6
ENDMDL
MODEL 9
REMARK VINA RESULT:      -7.2      2.454     11.256
REMARK  Name = 
REMARK  7 active torsions:
REMARK  status: ('A' for Active; 'I' for Inactive)
REMARK    1  A    between atoms: C_1  and  N_2
REMARK    2  A    between atoms: C_5  and  O_6
REMARK    3  A    between atoms: C_5  and  C_7
REMARK    4  A    between atoms: C_8  and  C_9
REMARK    5  A    between atoms: C_17  and  C_18
REMARK    6  A    between atoms: C_21  and  C_22
REMARK    7  A    between atoms: C_25  and  C_27
REMARK                            x       y       z     vdW  Elec       q    Type
REMARK                         _______ _______ _______ _____ _____    ______ ____
ROOT
ATOM      1  C   UNL     1       1.446   7.480  20.532  0.00  0.00    +0.000 A 
ATOM      2  C   UNL     1       0.592   6.499  21.011  0.00  0.00    +0.000 A 
ATOM      3  C   UNL     1       0.802   5.180  20.635  0.00  0.00    +0.000 A 
ATOM      4  C   UNL     1       1.837   4.832  19.740  0.00  0.00    +0.000 A 
ATOM      5  C   UNL     1       2.818   5.808  19.436  0.00  0.00    +0.000 A 
ATOM      6  C   UNL     1       2.609   7.134  19.844  0.00  0.00    +0.000 A 
ATOM      7  C   UNL     1       3.979   5.519  18.571  0.00  0.00    +0.000 A 
ATOM      8  N   UNL     1       5.144   6.146  18.661  0.00  0.00    +0.000 NA
ATOM      9  C   UNL     1       5.966   5.627  17.671  0.00  0.00    +0.000 A 
ATOM     10  C   UNL     1       5.297   4.623  16.987  0.00  0.00    +0.000 A 
ATOM     11  N   UNL     1       4.036   4.586  17.544  0.00  0.00    +0.000 N 
ATOM     12  C   UNL     1       3.032   3.602  17.196  0.00  0.00    +0.000 C 
ATOM     13  C   UNL     1       2.835   2.648  18.412  0.00  0.00    +0.000 C 
ATOM     14  C   UNL     1       1.659   3.538  18.856  0.00  0.00    +0.000 C 
ATOM     15  C   UNL     1       1.543   3.963  17.362  0.00  0.00    +0.000 C 
ENDROOT
BRANCH  10  16
ATOM     16  C   UNL     1       5.937   3.797  15.865  0.00  0.00    +0.000 C 
ATOM     17  C   UNL     1       5.097   3.314  14.662  0.00  0.00    +0.000 C 
ATOM     18  N   UNL     1       6.133   3.880  13.821  0.00  0.00    +0.000 N 
ATOM     19  C   UNL     1       6.462   3.591  12.530  0.00  0.00    +0.000 C 
ATOM     20  O   UNL     1       5.818   2.811  11.837  0.00  0.00    +0.000 OA
ATOM     21  C   UNL     1       6.749   4.653  14.871  0.00  0.00    +0.000 C 
BRANCH  19  22
ATOM     22  C   UNL     1       7.641   4.317  11.973  0.00  0.00    +0.000 C 
ATOM     23  C   UNL     1       7.493   5.709  11.400  0.00  0.00    +0.000 C 
ATOM     24  C   UNL     1       8.179   5.516  12.721  0.00  0.00    +0.000 C 
ENDBRANCH  19  22
ENDBRANCH  10  16
BRANCH   9  25
ATOM     25  C   UNL     1       7.337   6.112  17.455  0.00  0.00    +0.000 C 
ATOM     26  N   UNL     1       8.296   5.376  18.086  0.00  0.00    +0.000 N 
ATOM     27  O   UNL     1       7.632   7.078  16.761  0.00  0.00    +0.000 OA
ATOM     28  H   UNL     1       8.035   4.566  18.630  0.00  0.00    +0.000 HD
ATOM     29  H   UNL     1       9.265   5.625  17.957  0.00  0.00    +0.000 HD
ENDBRANCH   9  25
BRANCH   1  31
ATOM     30  C   UNL     1       0.773  10.102  20.853  0.00  0.00    +0.000 C 
ATOM     31  C   UNL     1       1.074   8.847  20.668  0.00  0.00    +0.000 C 
BRANCH  30  36
ATOM     32  C   UNL     1      -2.999  12.437  22.414  0.00  0.00    +0.000 C 
ATOM     33  N   UNL     1      -1.778  12.242  21.672  0.00  0.00    +0.000 N 
ATOM     34  C   UNL     1      -1.457  12.953  20.468  0.00  0.00    +0.000 C 
ATOM     35  C   UNL     1      -0.349  12.112  19.855  0.00  0.00    +0.000 C 
ATOM     36  C   UNL     1       0.421  11.564  21.069  0.00  0.00    +0.000 C 
ATOM     37  C   UNL     1      -0.658  11.603  22.194  0.00  0.00    +0.000 C 
ATOM     38  O   UNL     1      -0.569  11.126  23.316  0.00  0.00    +0.000 OA
BRANCH  36  39
ATOM     39  O   UNL     1       1.580  12.341  21.282  0.00  0.00    +0.000 OA
ATOM     40  H   UNL     1       1.957  12.534  20.408  0.00  0.00    +0.000 HD
ENDBRANCH  36  39
ENDBRANCH  30  36
ENDBRANCH   1  31
TORSDOF 6
ENDMDL
