MODEL 1
REMARK VINA RESULT:      -7.7      0.000      0.000
REMARK  Name = 
REMARK  11 active torsions:
REMARK  status: ('A' for Active; 'I' for Inactive)
REMARK    1  A    between atoms: C_1  and  C_2
REMARK    2  A    between atoms: C_2  and  C_3
REMARK    3  A    between atoms: C_2  and  N_4
REMARK    4  A    between atoms: N_4  and  C_21
REMARK    5  A    between atoms: C_5  and  C_7
REMARK    6  A    between atoms: C_7  and  N_8
REMARK    7  A    between atoms: C_12  and  C_13
REMARK    8  A    between atoms: C_13  and  C_14
REMARK    9  A    between atoms: C_14  and  C_15
REMARK   10  A    between atoms: C_21  and  C_22
REMARK   11  A    between atoms: C_21  and  C_23
REMARK                            x       y       z     vdW  Elec       q    Type
REMARK                         _______ _______ _______ _____ _____    ______ ____
ROOT
ATOM      1  N   UNL     1       6.267   5.655  17.822  0.00  0.00    +0.000 N 
ATOM      2  N   UNL     1       5.987   4.899  16.739  0.00  0.00    +0.000 NA
ATOM      3  N   UNL     1       6.733   5.377  15.758  0.00  0.00    +0.000 NA
ATOM      4  N   UNL     1       7.528   6.393  16.202  0.00  0.00    +0.000 NA
ATOM      5  C   UNL     1       7.256   6.567  17.491  0.00  0.00    +0.000 A 
ENDROOT
BRANCH   1   6
ATOM      6  C   UNL     1       5.736   5.218  19.099  0.00  0.00    +0.000 C 
BRANCH   6   8
ATOM      7  N   UNL     1       3.540   4.002  19.009  0.00  0.00    +0.000 N 
ATOM      8  C   UNL     1       4.221   5.236  19.202  0.00  0.00    +0.000 C 
ATOM      9  O   UNL     1       3.639   6.294  19.438  0.00  0.00    +0.000 OA
BRANCH   7  11
ATOM     10  C   UNL     1       1.313   4.486  20.243  0.00  0.00    +0.000 C 
ATOM     11  C   UNL     1       2.036   3.940  19.004  0.00  0.00    +0.000 C 
ATOM     12  C   UNL     1       1.404   4.578  17.760  0.00  0.00    +0.000 C 
ENDBRANCH   7  11
BRANCH   7  13
ATOM     13  C   UNL     1       4.268   2.699  19.095  0.00  0.00    +0.000 C 
ATOM     14  C   UNL     1       4.356   2.230  20.553  0.00  0.00    +0.000 C 
ATOM     15  C   UNL     1       3.747   1.586  18.186  0.00  0.00    +0.000 C 
ENDBRANCH   7  13
ENDBRANCH   6   8
ENDBRANCH   1   6
BRANCH   5  16
ATOM     16  C   UNL     1       7.985   7.594  18.298  0.00  0.00    +0.000 C 
BRANCH  16  17
ATOM     17  C   UNL     1       8.036   9.052  17.844  0.00  0.00    +0.000 C 
BRANCH  17  18
ATOM     18  C   UNL     1       8.974  10.003  18.555  0.00  0.00    +0.000 A 
ATOM     19  C   UNL     1       9.078  10.080  19.948  0.00  0.00    +0.000 A 
ATOM     20  C   UNL     1       9.764  11.140  20.545  0.00  0.00    +0.000 A 
ATOM     21  C   UNL     1      10.394  12.101  19.758  0.00  0.00    +0.000 A 
ATOM     22  C   UNL     1      10.392  11.972  18.373  0.00  0.00    +0.000 A 
ATOM     23  C   UNL     1       9.703  10.917  17.776  0.00  0.00    +0.000 A 
ENDBRANCH  17  18
ENDBRANCH  16  17
ENDBRANCH   5  16
TORSDOF 7
ENDMDL
MODEL 2
REMARK VINA RESULT:      -7.6      0.294      1.045
REMARK  Name = 
REMARK  11 active torsions:
REMARK  status: ('A' for Active; 'I' for Inactive)
REMARK    1  A    between atoms: C_1  and  C_2
REMARK    2  A    between atoms: C_2  and  C_3
REMARK    3  A    between atoms: C_2  and  N_4
REMARK    4  A    between atoms: N_4  and  C_21
REMARK    5  A    between atoms: C_5  and  C_7
REMARK    6  A    between atoms: C_7  and  N_8
REMARK    7  A    between atoms: C_12  and  C_13
REMARK    8  A    between atoms: C_13  and  C_14
REMARK    9  A    between atoms: C_14  and  C_15
REMARK   10  A    between atoms: C_21  and  C_22
REMARK   11  A    between atoms: C_21  and  C_23
REMARK                            x       y       z     vdW  Elec       q    Type
REMARK                         _______ _______ _______ _____ _____    ______ ____
ROOT
ATOM      1  N   UNL     1       6.485   5.645  17.775  0.00  0.00    +0.000 N 
ATOM      2  N   UNL     1       6.314   4.858  16.691  0.00  0.00    +0.000 NA
ATOM      3  N   UNL     1       7.051   5.392  15.734  0.00  0.00    +0.000 NA
ATOM      4  N   UNL     1       7.736   6.477  16.195  0.00  0.00    +0.000 NA
ATOM      5  C   UNL     1       7.401   6.637  17.471  0.00  0.00    +0.000 A 
ENDROOT
BRANCH   1   6
ATOM      6  C   UNL     1       5.947   5.172  19.037  0.00  0.00    +0.000 C 
BRANCH   6   8
ATOM      7  N   UNL     1       3.686   4.078  18.995  0.00  0.00    +0.000 N 
ATOM      8  C   UNL     1       4.437   5.274  19.166  0.00  0.00    +0.000 C 
ATOM      9  O   UNL     1       3.919   6.364  19.405  0.00  0.00    +0.000 OA
BRANCH   7  11
ATOM     10  C   UNL     1       1.512   4.715  20.253  0.00  0.00    +0.000 C 
ATOM     11  C   UNL     1       2.180   4.099  19.017  0.00  0.00    +0.000 C 
ATOM     12  C   UNL     1       1.562   4.739  17.767  0.00  0.00    +0.000 C 
ENDBRANCH   7  11
BRANCH   7  13
ATOM     13  C   UNL     1       4.343   2.738  19.077  0.00  0.00    +0.000 C 
ATOM     14  C   UNL     1       4.404   2.260  20.534  0.00  0.00    +0.000 C 
ATOM     15  C   UNL     1       3.764   1.657  18.164  0.00  0.00    +0.000 C 
ENDBRANCH   7  13
ENDBRANCH   6   8
ENDBRANCH   1   6
BRANCH   5  16
ATOM     16  C   UNL     1       8.007   7.731  18.293  0.00  0.00    +0.000 C 
BRANCH  16  17
ATOM     17  C   UNL     1       7.990   9.177  17.802  0.00  0.00    +0.000 C 
BRANCH  17  18
ATOM     18  C   UNL     1       8.954  10.167  18.419  0.00  0.00    +0.000 A 
ATOM     19  C   UNL     1       9.842  10.943  17.666  0.00  0.00    +0.000 A 
ATOM     20  C   UNL     1      10.873  11.644  18.296  0.00  0.00    +0.000 A 
ATOM     21  C   UNL     1      10.994  11.618  19.684  0.00  0.00    +0.000 A 
ATOM     22  C   UNL     1      10.049  10.942  20.449  0.00  0.00    +0.000 A 
ATOM     23  C   UNL     1       9.024  10.237  19.820  0.00  0.00    +0.000 A 
ENDBRANCH  17  18
ENDBRANCH  16  17
ENDBRANCH   5  16
TORSDOF 7
ENDMDL
MODEL 3
REMARK VINA RESULT:      -7.6      3.927      5.721
REMARK  Name = 
REMARK  11 active torsions:
REMARK  status: ('A' for Active; 'I' for Inactive)
REMARK    1  A    between atoms: C_1  and  C_2
REMARK    2  A    between atoms: C_2  and  C_3
REMARK    3  A    between atoms: C_2  and  N_4
REMARK    4  A    between atoms: N_4  and  C_21
REMARK    5  A    between atoms: C_5  and  C_7
REMARK    6  A    between atoms: C_7  and  N_8
REMARK    7  A    between atoms: C_12  and  C_13
REMARK    8  A    between atoms: C_13  and  C_14
REMARK    9  A    between atoms: C_14  and  C_15
REMARK   10  A    between atoms: C_21  and  C_22
REMARK   11  A    between atoms: C_21  and  C_23
REMARK                            x       y       z     vdW  Elec       q    Type
REMARK                         _______ _______ _______ _____ _____    ______ ____
ROOT
ATOM      1  N   UNL     1       6.007   5.213  18.980  0.00  0.00    +0.000 N 
ATOM      2  N   UNL     1       7.107   5.239  19.763  0.00  0.00    +0.000 NA
ATOM      3  N   UNL     1       8.133   5.391  18.945  0.00  0.00    +0.000 NA
ATOM      4  N   UNL     1       7.711   5.517  17.654  0.00  0.00    +0.000 NA
ATOM      5  C   UNL     1       6.386   5.421  17.665  0.00  0.00    +0.000 A 
ENDROOT
BRANCH   1   6
ATOM      6  C   UNL     1       4.715   5.260  19.639  0.00  0.00    +0.000 C 
BRANCH   6   8
ATOM      7  N   UNL     1       2.617   3.905  19.900  0.00  0.00    +0.000 N 
ATOM      8  C   UNL     1       4.037   3.913  19.814  0.00  0.00    +0.000 C 
ATOM      9  O   UNL     1       4.719   2.891  19.879  0.00  0.00    +0.000 OA
BRANCH   7  11
ATOM     10  C   UNL     1       1.278   2.441  21.569  0.00  0.00    +0.000 C 
ATOM     11  C   UNL     1       1.864   2.627  20.163  0.00  0.00    +0.000 C 
ATOM     12  C   UNL     1       0.754   2.354  19.140  0.00  0.00    +0.000 C 
ENDBRANCH   7  11
BRANCH   7  13
ATOM     13  C   UNL     1       1.812   5.082  19.453  0.00  0.00    +0.000 C 
ATOM     14  C   UNL     1       1.777   6.155  20.548  0.00  0.00    +0.000 C 
ATOM     15  C   UNL     1       2.206   5.681  18.103  0.00  0.00    +0.000 C 
ENDBRANCH   7  13
ENDBRANCH   6   8
ENDBRANCH   1   6
BRANCH   5  16
ATOM     16  C   UNL     1       5.596   5.551  16.401  0.00  0.00    +0.000 C 
BRANCH  16  17
ATOM     17  C   UNL     1       5.386   4.347  15.484  0.00  0.00    +0.000 C 
BRANCH  17  18
ATOM     18  C   UNL     1       6.186   4.260  14.202  0.00  0.00    +0.000 A 
ATOM     19  C   UNL     1       7.286   5.079  13.927  0.00  0.00    +0.000 A 
ATOM     20  C   UNL     1       7.822   5.128  12.639  0.00  0.00    +0.000 A 
ATOM     21  C   UNL     1       7.299   4.324  11.629  0.00  0.00    +0.000 A 
ATOM     22  C   UNL     1       6.279   3.423  11.919  0.00  0.00    +0.000 A 
ATOM     23  C   UNL     1       5.740   3.378  13.204  0.00  0.00    +0.000 A 
ENDBRANCH  17  18
ENDBRANCH  16  17
ENDBRANCH   5  16
TORSDOF 7
ENDMDL
MODEL 4
REMARK VINA RESULT:      -7.5      1.278      2.230
REMARK  Name = 
REMARK  11 active torsions:
REMARK  status: ('A' for Active; 'I' for Inactive)
REMARK    1  A    between atoms: C_1  and  C_2
REMARK    2  A    between atoms: C_2  and  C_3
REMARK    3  A    between atoms: C_2  and  N_4
REMARK    4  A    between atoms: N_4  and  C_21
REMARK    5  A    between atoms: C_5  and  C_7
REMARK    6  A    between atoms: C_7  and  N_8
REMARK    7  A    between atoms: C_12  and  C_13
REMARK    8  A    between atoms: C_13  and  C_14
REMARK    9  A    between atoms: C_14  and  C_15
REMARK   10  A    between atoms: C_21  and  C_22
REMARK   11  A    between atoms: C_21  and  C_23
REMARK                            x       y       z     vdW  Elec       q    Type
REMARK                         _______ _______ _______ _____ _____    ______ ____
ROOT
ATOM      1  N   UNL     1       6.271   5.634  18.012  0.00  0.00    +0.000 N 
ATOM      2  N   UNL     1       5.870   4.762  17.062  0.00  0.00    +0.000 NA
ATOM      3  N   UNL     1       6.528   5.091  15.964  0.00  0.00    +0.000 NA
ATOM      4  N   UNL     1       7.384   6.125  16.201  0.00  0.00    +0.000 NA
ATOM      5  C   UNL     1       7.243   6.464  17.479  0.00  0.00    +0.000 A 
ENDROOT
BRANCH   1   6
ATOM      6  C   UNL     1       5.857   5.372  19.377  0.00  0.00    +0.000 C 
BRANCH   6   8
ATOM      7  N   UNL     1       3.474   4.647  19.696  0.00  0.00    +0.000 N 
ATOM      8  C   UNL     1       4.834   4.262  19.534  0.00  0.00    +0.000 C 
ATOM      9  O   UNL     1       5.203   3.088  19.522  0.00  0.00    +0.000 OA
BRANCH   7  11
ATOM     10  C   UNL     1       2.285   2.474  18.933  0.00  0.00    +0.000 C 
ATOM     11  C   UNL     1       2.403   3.619  19.948  0.00  0.00    +0.000 C 
ATOM     12  C   UNL     1       2.462   3.009  21.354  0.00  0.00    +0.000 C 
ENDBRANCH   7  11
BRANCH   7  13
ATOM     13  C   UNL     1       3.016   6.024  19.340  0.00  0.00    +0.000 C 
ATOM     14  C   UNL     1       2.423   6.041  17.925  0.00  0.00    +0.000 C 
ATOM     15  C   UNL     1       2.076   6.691  20.343  0.00  0.00    +0.000 C 
ENDBRANCH   7  13
ENDBRANCH   6   8
ENDBRANCH   1   6
BRANCH   5  16
ATOM     16  C   UNL     1       8.071   7.555  18.081  0.00  0.00    +0.000 C 
BRANCH  16  17
ATOM     17  C   UNL     1       7.780   9.021  17.763  0.00  0.00    +0.000 C 
BRANCH  17  18
ATOM     18  C   UNL     1       8.659  10.088  18.380  0.00  0.00    +0.000 A 
ATOM     19  C   UNL     1       9.273   9.948  19.628  0.00  0.00    +0.000 A 
ATOM     20  C   UNL     1       9.857  11.052  20.253  0.00  0.00    +0.000 A 
ATOM     21  C   UNL     1       9.878  12.291  19.615  0.00  0.00    +0.000 A 
ATOM     22  C   UNL     1       9.371  12.414  18.325  0.00  0.00    +0.000 A 
ATOM     23  C   UNL     1       8.783  11.313  17.704  0.00  0.00    +0.000 A 
ENDBRANCH  17  18
ENDBRANCH  16  17
ENDBRANCH   5  16
TORSDOF 7
ENDMDL
MODEL 5
REMARK VINA RESULT:      -7.4      3.955      5.529
REMARK  Name = 
REMARK  11 active torsions:
REMARK  status: ('A' for Active; 'I' for Inactive)
REMARK    1  A    between atoms: C_1  and  C_2
REMARK    2  A    between atoms: C_2  and  C_3
REMARK    3  A    between atoms: C_2  and  N_4
REMARK    4  A    between atoms: N_4  and  C_21
REMARK    5  A    between atoms: C_5  and  C_7
REMARK    6  A    between atoms: C_7  and  N_8
REMARK    7  A    between atoms: C_12  and  C_13
REMARK    8  A    between atoms: C_13  and  C_14
REMARK    9  A    between atoms: C_14  and  C_15
REMARK   10  A    between atoms: C_21  and  C_22
REMARK   11  A    between atoms: C_21  and  C_23
REMARK                            x       y       z     vdW  Elec       q    Type
REMARK                         _______ _______ _______ _____ _____    ______ ____
ROOT
ATOM      1  N   UNL     1       5.963   5.060  18.711  0.00  0.00    +0.000 N 
ATOM      2  N   UNL     1       6.247   5.394  19.989  0.00  0.00    +0.000 NA
ATOM      3  N   UNL     1       7.558   5.282  20.111  0.00  0.00    +0.000 NA
ATOM      4  N   UNL     1       8.130   4.934  18.924  0.00  0.00    +0.000 NA
ATOM      5  C   UNL     1       7.146   4.805  18.040  0.00  0.00    +0.000 A 
ENDROOT
BRANCH   1   6
ATOM      6  C   UNL     1       4.610   5.293  18.244  0.00  0.00    +0.000 C 
BRANCH   6   8
ATOM      7  N   UNL     1       3.189   3.614  19.455  0.00  0.00    +0.000 N 
ATOM      8  C   UNL     1       3.521   4.982  19.255  0.00  0.00    +0.000 C 
ATOM      9  O   UNL     1       2.965   5.903  19.854  0.00  0.00    +0.000 OA
BRANCH   7  11
ATOM     10  C   UNL     1       2.217   3.563  21.858  0.00  0.00    +0.000 C 
ATOM     11  C   UNL     1       2.062   3.216  20.371  0.00  0.00    +0.000 C 
ATOM     12  C   UNL     1       0.690   3.718  19.902  0.00  0.00    +0.000 C 
ENDBRANCH   7  11
BRANCH   7  13
ATOM     13  C   UNL     1       4.110   2.525  19.008  0.00  0.00    +0.000 C 
ATOM     14  C   UNL     1       4.766   1.848  20.218  0.00  0.00    +0.000 C 
ATOM     15  C   UNL     1       3.504   1.493  18.057  0.00  0.00    +0.000 C 
ENDBRANCH   7  13
ENDBRANCH   6   8
ENDBRANCH   1   6
BRANCH   5  16
ATOM     16  C   UNL     1       7.436   4.458  16.613  0.00  0.00    +0.000 C 
BRANCH  16  17
ATOM     17  C   UNL     1       7.024   5.398  15.482  0.00  0.00    +0.000 C 
BRANCH  17  18
ATOM     18  C   UNL     1       6.652   4.805  14.140  0.00  0.00    +0.000 A 
ATOM     19  C   UNL     1       5.530   3.993  13.945  0.00  0.00    +0.000 A 
ATOM     20  C   UNL     1       5.379   3.275  12.758  0.00  0.00    +0.000 A 
ATOM     21  C   UNL     1       6.318   3.399  11.736  0.00  0.00    +0.000 A 
ATOM     22  C   UNL     1       7.377   4.290  11.875  0.00  0.00    +0.000 A 
ATOM     23  C   UNL     1       7.531   5.004  13.063  0.00  0.00    +0.000 A 
ENDBRANCH  17  18
ENDBRANCH  16  17
ENDBRANCH   5  16
TORSDOF 7
ENDMDL
MODEL 6
REMARK VINA RESULT:      -7.3      3.572      5.543
REMARK  Name = 
REMARK  11 active torsions:
REMARK  status: ('A' for Active; 'I' for Inactive)
REMARK    1  A    between atoms: C_1  and  C_2
REMARK    2  A    between atoms: C_2  and  C_3
REMARK    3  A    between atoms: C_2  and  N_4
REMARK    4  A    between atoms: N_4  and  C_21
REMARK    5  A    between atoms: C_5  and  C_7
REMARK    6  A    between atoms: C_7  and  N_8
REMARK    7  A    between atoms: C_12  and  C_13
REMARK    8  A    between atoms: C_13  and  C_14
REMARK    9  A    between atoms: C_14  and  C_15
REMARK   10  A    between atoms: C_21  and  C_22
REMARK   11  A    between atoms: C_21  and  C_23
REMARK                            x       y       z     vdW  Elec       q    Type
REMARK                         _______ _______ _______ _____ _____    ______ ____
ROOT
ATOM      1  N   UNL     1       5.992   5.475  18.909  0.00  0.00    +0.000 N 
ATOM      2  N   UNL     1       6.895   5.213  19.879  0.00  0.00    +0.000 NA
ATOM      3  N   UNL     1       8.072   5.545  19.380  0.00  0.00    +0.000 NA
ATOM      4  N   UNL     1       7.941   6.065  18.126  0.00  0.00    +0.000 NA
ATOM      5  C   UNL     1       6.646   6.039  17.827  0.00  0.00    +0.000 A 
ENDROOT
BRANCH   1   6
ATOM      6  C   UNL     1       4.588   5.394  19.263  0.00  0.00    +0.000 C 
BRANCH   6   8
ATOM      7  N   UNL     1       3.028   3.468  19.668  0.00  0.00    +0.000 N 
ATOM      8  C   UNL     1       3.869   4.159  18.752  0.00  0.00    +0.000 C 
ATOM      9  O   UNL     1       4.035   3.796  17.587  0.00  0.00    +0.000 OA
BRANCH   7  11
ATOM     10  C   UNL     1       0.997   2.304  18.554  0.00  0.00    +0.000 C 
ATOM     11  C   UNL     1       2.346   2.184  19.276  0.00  0.00    +0.000 C 
ATOM     12  C   UNL     1       3.243   1.241  18.463  0.00  0.00    +0.000 C 
ENDBRANCH   7  11
BRANCH   7  13
ATOM     13  C   UNL     1       2.561   4.122  20.928  0.00  0.00    +0.000 C 
ATOM     14  C   UNL     1       1.515   5.200  20.616  0.00  0.00    +0.000 C 
ATOM     15  C   UNL     1       2.071   3.176  22.024  0.00  0.00    +0.000 C 
ENDBRANCH   7  13
ENDBRANCH   6   8
ENDBRANCH   1   6
BRANCH   5  16
ATOM     16  C   UNL     1       6.148   6.575  16.521  0.00  0.00    +0.000 C 
BRANCH  16  17
ATOM     17  C   UNL     1       5.362   5.684  15.561  0.00  0.00    +0.000 C 
BRANCH  17  18
ATOM     18  C   UNL     1       6.099   5.006  14.427  0.00  0.00    +0.000 A 
ATOM     19  C   UNL     1       7.336   5.446  13.945  0.00  0.00    +0.000 A 
ATOM     20  C   UNL     1       7.843   4.944  12.745  0.00  0.00    +0.000 A 
ATOM     21  C   UNL     1       7.146   3.964  12.043  0.00  0.00    +0.000 A 
ATOM     22  C   UNL     1       5.971   3.438  12.571  0.00  0.00    +0.000 A 
ATOM     23  C   UNL     1       5.462   3.943  13.766  0.00  0.00    +0.000 A 
ENDBRANCH  17  18
ENDBRANCH  16  17
ENDBRANCH   5  16
TORSDOF 7
ENDMDL
MODEL 7
REMARK VINA RESULT:      -7.3      3.860      6.406
REMARK  Name = 
REMARK  11 active torsions:
REMARK  status: ('A' for Active; 'I' for Inactive)
REMARK    1  A    between atoms: C_1  and  C_2
REMARK    2  A    between atoms: C_2  and  C_3
REMARK    3  A    between atoms: C_2  and  N_4
REMARK    4  A    between atoms: N_4  and  C_21
REMARK    5  A    between atoms: C_5  and  C_7
REMARK    6  A    between atoms: C_7  and  N_8
REMARK    7  A    between atoms: C_12  and  C_13
REMARK    8  A    between atoms: C_13  and  C_14
REMARK    9  A    between atoms: C_14  and  C_15
REMARK   10  A    between atoms: C_21  and  C_22
REMARK   11  A    between atoms: C_21  and  C_23
REMARK                            x       y       z     vdW  Elec       q    Type
REMARK                         _______ _______ _______ _____ _____    ______ ____
ROOT
ATOM      1  N   UNL     1       2.599   2.982  19.070  0.00  0.00    +0.000 N 
ATOM      2  N   UNL     1       1.790   2.010  18.594  0.00  0.00    +0.000 NA
ATOM      3  N   UNL     1       0.568   2.332  18.981  0.00  0.00    +0.000 NA
ATOM      4  N   UNL     1       0.566   3.519  19.652  0.00  0.00    +0.000 NA
ATOM      5  C   UNL     1       1.826   3.941  19.702  0.00  0.00    +0.000 A 
ENDROOT
BRANCH   1   6
ATOM      6  C   UNL     1       3.976   2.988  18.616  0.00  0.00    +0.000 C 
BRANCH   6   8
ATOM      7  N   UNL     1       5.357   4.628  17.307  0.00  0.00    +0.000 N 
ATOM      8  C   UNL     1       4.225   3.766  17.336  0.00  0.00    +0.000 C 
ATOM      9  O   UNL     1       3.455   3.636  16.385  0.00  0.00    +0.000 OA
BRANCH   7  11
ATOM     10  C   UNL     1       5.574   4.839  14.733  0.00  0.00    +0.000 C 
ATOM     11  C   UNL     1       5.632   5.505  16.114  0.00  0.00    +0.000 C 
ATOM     12  C   UNL     1       4.763   6.769  16.075  0.00  0.00    +0.000 C 
ENDBRANCH   7  11
BRANCH   7  13
ATOM     13  C   UNL     1       6.457   4.487  18.308  0.00  0.00    +0.000 C 
ATOM     14  C   UNL     1       7.820   4.456  17.605  0.00  0.00    +0.000 C 
ATOM     15  C   UNL     1       6.447   5.501  19.452  0.00  0.00    +0.000 C 
ENDBRANCH   7  13
ENDBRANCH   6   8
ENDBRANCH   1   6
BRANCH   5  16
ATOM     16  C   UNL     1       2.174   5.245  20.348  0.00  0.00    +0.000 C 
BRANCH  16  17
ATOM     17  C   UNL     1       2.845   6.358  19.546  0.00  0.00    +0.000 C 
BRANCH  17  18
ATOM     18  C   UNL     1       2.150   7.698  19.437  0.00  0.00    +0.000 A 
ATOM     19  C   UNL     1       1.495   8.312  20.509  0.00  0.00    +0.000 A 
ATOM     20  C   UNL     1       0.663   9.412  20.290  0.00  0.00    +0.000 A 
ATOM     21  C   UNL     1       0.521   9.940  19.009  0.00  0.00    +0.000 A 
ATOM     22  C   UNL     1       1.257   9.408  17.955  0.00  0.00    +0.000 A 
ATOM     23  C   UNL     1       2.082   8.306  18.172  0.00  0.00    +0.000 A 
ENDBRANCH  17  18
ENDBRANCH  16  17
ENDBRANCH   5  16
TORSDOF 7
ENDMDL
MODEL 8
REMARK VINA RESULT:      -7.3      3.908      5.143
REMARK  Name = 
REMARK  11 active torsions:
REMARK  status: ('A' for Active; 'I' for Inactive)
REMARK    1  A    between atoms: C_1  and  C_2
REMARK    2  A    between atoms: C_2  and  C_3
REMARK    3  A    between atoms: C_2  and  N_4
REMARK    4  A    between atoms: N_4  and  C_21
REMARK    5  A    between atoms: C_5  and  C_7
REMARK    6  A    between atoms: C_7  and  N_8
REMARK    7  A    between atoms: C_12  and  C_13
REMARK    8  A    between atoms: C_13  and  C_14
REMARK    9  A    between atoms: C_14  and  C_15
REMARK   10  A    between atoms: C_21  and  C_22
REMARK   11  A    between atoms: C_21  and  C_23
REMARK                            x       y       z     vdW  Elec       q    Type
REMARK                         _______ _______ _______ _____ _____    ______ ____
ROOT
ATOM      1  N   UNL     1       5.534   5.046  16.887  0.00  0.00    +0.000 N 
ATOM      2  N   UNL     1       6.856   4.868  16.677  0.00  0.00    +0.000 NA
ATOM      3  N   UNL     1       7.360   6.075  16.487  0.00  0.00    +0.000 NA
ATOM      4  N   UNL     1       6.397   7.032  16.624  0.00  0.00    +0.000 NA
ATOM      5  C   UNL     1       5.257   6.402  16.887  0.00  0.00    +0.000 A 
ENDROOT
BRANCH   1   6
ATOM      6  C   UNL     1       4.767   3.896  17.327  0.00  0.00    +0.000 C 
BRANCH   6   8
ATOM      7  N   UNL     1       3.169   3.623  19.246  0.00  0.00    +0.000 N 
ATOM      8  C   UNL     1       4.511   3.831  18.823  0.00  0.00    +0.000 C 
ATOM      9  O   UNL     1       5.450   3.964  19.607  0.00  0.00    +0.000 OA
BRANCH   7  11
ATOM     10  C   UNL     1       2.203   4.928  21.266  0.00  0.00    +0.000 C 
ATOM     11  C   UNL     1       2.808   3.633  20.708  0.00  0.00    +0.000 C 
ATOM     12  C   UNL     1       1.904   2.464  21.120  0.00  0.00    +0.000 C 
ENDBRANCH   7  11
BRANCH   7  13
ATOM     13  C   UNL     1       2.136   3.103  18.300  0.00  0.00    +0.000 C 
ATOM     14  C   UNL     1       1.455   4.262  17.561  0.00  0.00    +0.000 C 
ATOM     15  C   UNL     1       2.611   2.027  17.324  0.00  0.00    +0.000 C 
ENDBRANCH   7  13
ENDBRANCH   6   8
ENDBRANCH   1   6
BRANCH   5  16
ATOM     16  C   UNL     1       3.994   7.169  17.129  0.00  0.00    +0.000 C 
BRANCH  16  17
ATOM     17  C   UNL     1       3.295   7.112  18.486  0.00  0.00    +0.000 C 
BRANCH  17  18
ATOM     18  C   UNL     1       2.152   8.067  18.757  0.00  0.00    +0.000 A 
ATOM     19  C   UNL     1       1.589   8.888  17.774  0.00  0.00    +0.000 A 
ATOM     20  C   UNL     1       0.720   9.920  18.132  0.00  0.00    +0.000 A 
ATOM     21  C   UNL     1       0.365  10.109  19.466  0.00  0.00    +0.000 A 
ATOM     22  C   UNL     1       0.829   9.227  20.437  0.00  0.00    +0.000 A 
ATOM     23  C   UNL     1       1.702   8.200  20.081  0.00  0.00    +0.000 A 
ENDBRANCH  17  18
ENDBRANCH  16  17
ENDBRANCH   5  16
TORSDOF 7
ENDMDL
MODEL 9
REMARK VINA RESULT:      -7.3      1.385      2.525
REMARK  Name = 
REMARK  11 active torsions:
REMARK  status: ('A' for Active; 'I' for Inactive)
REMARK    1  A    between atoms: C_1  and  C_2
REMARK    2  A    between atoms: C_2  and  C_3
REMARK    3  A    between atoms: C_2  and  N_4
REMARK    4  A    between atoms: N_4  and  C_21
REMARK    5  A    between atoms: C_5  and  C_7
REMARK    6  A    between atoms: C_7  and  N_8
REMARK    7  A    between atoms: C_12  and  C_13
REMARK    8  A    between atoms: C_13  and  C_14
REMARK    9  A    between atoms: C_14  and  C_15
REMARK   10  A    between atoms: C_21  and  C_22
REMARK   11  A    between atoms: C_21  and  C_23
REMARK                            x       y       z     vdW  Elec       q    Type
REMARK                         _______ _______ _______ _____ _____    ______ ____
ROOT
ATOM      1  N   UNL     1       6.381   5.560  17.867  0.00  0.00    +0.000 N 
ATOM      2  N   UNL     1       6.538   4.397  17.198  0.00  0.00    +0.000 NA
ATOM      3  N   UNL     1       7.271   4.683  16.137  0.00  0.00    +0.000 NA
ATOM      4  N   UNL     1       7.635   5.998  16.137  0.00  0.00    +0.000 NA
ATOM      5  C   UNL     1       7.096   6.552  17.218  0.00  0.00    +0.000 A 
ENDROOT
BRANCH   1   6
ATOM      6  C   UNL     1       5.784   5.496  19.187  0.00  0.00    +0.000 C 
BRANCH   6   8
ATOM      7  N   UNL     1       3.296   5.283  19.459  0.00  0.00    +0.000 N 
ATOM      8  C   UNL     1       4.545   4.624  19.289  0.00  0.00    +0.000 C 
ATOM      9  O   UNL     1       4.656   3.400  19.227  0.00  0.00    +0.000 OA
BRANCH   7  11
ATOM     10  C   UNL     1       1.600   3.565  18.517  0.00  0.00    +0.000 C 
ATOM     11  C   UNL     1       2.027   4.498  19.658  0.00  0.00    +0.000 C 
ATOM     12  C   UNL     1       2.005   3.697  20.967  0.00  0.00    +0.000 C 
ENDBRANCH   7  11
BRANCH   7  13
ATOM     13  C   UNL     1       3.148   6.740  19.161  0.00  0.00    +0.000 C 
ATOM     14  C   UNL     1       2.966   6.963  17.654  0.00  0.00    +0.000 C 
ATOM     15  C   UNL     1       2.074   7.476  19.963  0.00  0.00    +0.000 C 
ENDBRANCH   7  13
ENDBRANCH   6   8
ENDBRANCH   1   6
BRANCH   5  16
ATOM     16  C   UNL     1       7.330   7.994  17.540  0.00  0.00    +0.000 C 
BRANCH  16  17
ATOM     17  C   UNL     1       8.408   8.406  18.541  0.00  0.00    +0.000 C 
BRANCH  17  18
ATOM     18  C   UNL     1       8.745   9.874  18.687  0.00  0.00    +0.000 A 
ATOM     19  C   UNL     1       8.405  10.837  17.731  0.00  0.00    +0.000 A 
ATOM     20  C   UNL     1       8.957  12.118  17.796  0.00  0.00    +0.000 A 
ATOM     21  C   UNL     1       9.810  12.464  18.841  0.00  0.00    +0.000 A 
ATOM     22  C   UNL     1      10.064  11.549  19.858  0.00  0.00    +0.000 A 
ATOM     23  C   UNL     1       9.518  10.268  19.791  0.00  0.00    +0.000 A 
ENDBRANCH  17  18
ENDBRANCH  16  17
ENDBRANCH   5  16
TORSDOF 7
ENDMDL
