MODEL 1
REMARK VINA RESULT:      -7.6      0.000      0.000
REMARK  Name = 
REMARK  7 active torsions:
REMARK  status: ('A' for Active; 'I' for Inactive)
REMARK    1  A    between atoms: C_2  and  O_3
REMARK    2  A    between atoms: C_2  and  C_4
REMARK    3  A    between atoms: C_4  and  C_5
REMARK    4  A    between atoms: C_13  and  C_14
REMARK    5  A    between atoms: N_16  and  C_17
REMARK    6  A    between atoms: C_23  and  O_24
REMARK    7  A    between atoms: O_24  and  C_25
REMARK                            x       y       z     vdW  Elec       q    Type
REMARK                         _______ _______ _______ _____ _____    ______ ____
ROOT
ATOM      1  C   UNL     1       5.652   3.893  17.233  0.00  0.00    +0.000 C 
ATOM      2  C   UNL     1       6.999   4.476  16.775  0.00  0.00    +0.000 C 
ATOM      3  C   UNL     1       7.094   5.970  17.068  0.00  0.00    +0.000 C 
ATOM      4  C   UNL     1       5.933   6.747  16.446  0.00  0.00    +0.000 C 
ATOM      5  N   UNL     1       4.650   6.143  16.793  0.00  0.00    +0.000 N 
ATOM      6  C   UNL     1       3.679   6.838  17.490  0.00  0.00    +0.000 A 
ATOM      7  C   UNL     1       3.495   8.203  17.401  0.00  0.00    +0.000 A 
ATOM      8  C   UNL     1       2.562   8.861  18.238  0.00  0.00    +0.000 A 
ATOM      9  C   UNL     1       1.835   8.175  19.228  0.00  0.00    +0.000 A 
ATOM     10  C   UNL     1       2.040   6.783  19.209  0.00  0.00    +0.000 A 
ATOM     11  N   UNL     1       2.902   6.159  18.336  0.00  0.00    +0.000 NA
ATOM     12  C   UNL     1       4.501   4.695  16.587  0.00  0.00    +0.000 C 
ENDROOT
BRANCH   9  13
ATOM     13  C   UNL     1       1.060   8.974  20.303  0.00  0.00    +0.000 C 
ATOM     14  O   UNL     1       1.288   8.807  21.493  0.00  0.00    +0.000 OA
ATOM     15  N   UNL     1       0.130   9.945  19.888  0.00  0.00    +0.000 N 
ATOM     16  H   UNL     1       0.182  10.179  18.914  0.00  0.00    +0.000 HD
BRANCH  15  17
ATOM     17  C   UNL     1      -0.330  11.128  20.678  0.00  0.00    +0.000 C 
ATOM     18  C   UNL     1       0.818  12.150  20.824  0.00  0.00    +0.000 C 
ATOM     19  C   UNL     1       1.024  12.988  19.567  0.00  0.00    +0.000 C 
ATOM     20  C   UNL     1      -0.194  13.834  19.245  0.00  0.00    +0.000 C 
ATOM     21  C   UNL     1      -1.522  13.082  19.323  0.00  0.00    +0.000 C 
ATOM     22  C   UNL     1      -1.617  11.891  20.293  0.00  0.00    +0.000 C 
ENDBRANCH  15  17
ENDBRANCH   9  13
BRANCH   1  23
ATOM     23  C   UNL     1       5.499   3.846  18.764  0.00  0.00    +0.000 C 
BRANCH  23  25
ATOM     24  O   UNL     1       4.914   2.121  20.397  0.00  0.00    +0.000 OA
ATOM     25  C   UNL     1       4.812   2.577  19.249  0.00  0.00    +0.000 C 
BRANCH  25  26
ATOM     26  O   UNL     1       4.081   1.981  18.290  0.00  0.00    +0.000 OA
ATOM     27  H   UNL     1       3.925   2.540  17.512  0.00  0.00    +0.000 HD
ENDBRANCH  25  26
ENDBRANCH  23  25
ENDBRANCH   1  23
BRANCH  10  28
ATOM     28  O   UNL     1       1.701   5.838  20.088  0.00  0.00    +0.000 OA
BRANCH  28  29
ATOM     29  C   UNL     1       2.213   4.523  20.139  0.00  0.00    +0.000 C 
ATOM     30  C   UNL     1       2.205   4.009  21.586  0.00  0.00    +0.000 C 
ATOM     31  C   UNL     1       1.485   2.668  21.595  0.00  0.00    +0.000 C 
ATOM     32  C   UNL     1       0.806   2.501  20.247  0.00  0.00    +0.000 C 
ATOM     33  C   UNL     1       1.141   3.716  19.414  0.00  0.00    +0.000 C 
ENDBRANCH  28  29
ENDBRANCH  10  28
TORSDOF 7
ENDMDL
MODEL 2
REMARK VINA RESULT:      -7.1      0.715      1.186
REMARK  Name = 
REMARK  7 active torsions:
REMARK  status: ('A' for Active; 'I' for Inactive)
REMARK    1  A    between atoms: C_2  and  O_3
REMARK    2  A    between atoms: C_2  and  C_4
REMARK    3  A    between atoms: C_4  and  C_5
REMARK    4  A    between atoms: C_13  and  C_14
REMARK    5  A    between atoms: N_16  and  C_17
REMARK    6  A    between atoms: C_23  and  O_24
REMARK    7  A    between atoms: O_24  and  C_25
REMARK                            x       y       z     vdW  Elec       q    Type
REMARK                         _______ _______ _______ _____ _____    ______ ____
ROOT
ATOM      1  C   UNL     1       5.430   3.975  17.189  0.00  0.00    +0.000 C 
ATOM      2  C   UNL     1       6.798   4.539  16.771  0.00  0.00    +0.000 C 
ATOM      3  C   UNL     1       6.934   6.014  17.141  0.00  0.00    +0.000 C 
ATOM      4  C   UNL     1       5.802   6.855  16.550  0.00  0.00    +0.000 C 
ATOM      5  N   UNL     1       4.498   6.272  16.856  0.00  0.00    +0.000 N 
ATOM      6  C   UNL     1       3.542   6.960  17.580  0.00  0.00    +0.000 A 
ATOM      7  C   UNL     1       3.400   8.332  17.559  0.00  0.00    +0.000 A 
ATOM      8  C   UNL     1       2.478   8.975  18.420  0.00  0.00    +0.000 A 
ATOM      9  C   UNL     1       1.722   8.262  19.369  0.00  0.00    +0.000 A 
ATOM     10  C   UNL     1       1.887   6.868  19.281  0.00  0.00    +0.000 A 
ATOM     11  N   UNL     1       2.738   6.263  18.385  0.00  0.00    +0.000 NA
ATOM     12  C   UNL     1       4.309   4.842  16.576  0.00  0.00    +0.000 C 
ENDROOT
BRANCH   9  13
ATOM     13  C   UNL     1       0.961   9.029  20.477  0.00  0.00    +0.000 C 
ATOM     14  O   UNL     1       0.605   8.461  21.500  0.00  0.00    +0.000 OA
ATOM     15  N   UNL     1       0.740  10.409  20.318  0.00  0.00    +0.000 N 
ATOM     16  H   UNL     1       1.268  10.831  19.576  0.00  0.00    +0.000 HD
BRANCH  15  17
ATOM     17  C   UNL     1       0.504  11.402  21.410  0.00  0.00    +0.000 C 
ATOM     18  C   UNL     1       0.410  12.827  20.823  0.00  0.00    +0.000 C 
ATOM     19  C   UNL     1      -0.945  13.112  20.184  0.00  0.00    +0.000 C 
ATOM     20  C   UNL     1      -2.073  13.047  21.197  0.00  0.00    +0.000 C 
ATOM     21  C   UNL     1      -2.024  11.829  22.116  0.00  0.00    +0.000 C 
ATOM     22  C   UNL     1      -0.647  11.215  22.423  0.00  0.00    +0.000 C 
ENDBRANCH  15  17
ENDBRANCH   9  13
BRANCH   1  23
ATOM     23  C   UNL     1       5.262   3.855  18.715  0.00  0.00    +0.000 C 
BRANCH  23  25
ATOM     24  O   UNL     1       3.674   2.004  18.531  0.00  0.00    +0.000 OA
ATOM     25  C   UNL     1       4.612   2.546  19.135  0.00  0.00    +0.000 C 
BRANCH  25  26
ATOM     26  O   UNL     1       5.154   2.029  20.252  0.00  0.00    +0.000 OA
ATOM     27  H   UNL     1       4.594   1.369  20.690  0.00  0.00    +0.000 HD
ENDBRANCH  25  26
ENDBRANCH  23  25
ENDBRANCH   1  23
BRANCH  10  28
ATOM     28  O   UNL     1       1.513   5.890  20.109  0.00  0.00    +0.000 OA
BRANCH  28  29
ATOM     29  C   UNL     1       2.070   4.595  20.177  0.00  0.00    +0.000 C 
ATOM     30  C   UNL     1       2.551   4.301  21.605  0.00  0.00    +0.000 C 
ATOM     31  C   UNL     1       1.932   2.980  22.038  0.00  0.00    +0.000 C 
ATOM     32  C   UNL     1       0.862   2.618  21.023  0.00  0.00    +0.000 C 
ATOM     33  C   UNL     1       0.858   3.694  19.963  0.00  0.00    +0.000 C 
ENDBRANCH  28  29
ENDBRANCH  10  28
TORSDOF 7
ENDMDL
MODEL 3
REMARK VINA RESULT:      -6.9      1.555      1.824
REMARK  Name = 
REMARK  7 active torsions:
REMARK  status: ('A' for Active; 'I' for Inactive)
REMARK    1  A    between atoms: C_2  and  O_3
REMARK    2  A    between atoms: C_2  and  C_4
REMARK    3  A    between atoms: C_4  and  C_5
REMARK    4  A    between atoms: C_13  and  C_14
REMARK    5  A    between atoms: N_16  and  C_17
REMARK    6  A    between atoms: C_23  and  O_24
REMARK    7  A    between atoms: O_24  and  C_25
REMARK                            x       y       z     vdW  Elec       q    Type
REMARK                         _______ _______ _______ _____ _____    ______ ____
ROOT
ATOM      1  C   UNL     1       5.901   4.139  16.928  0.00  0.00    +0.000 C 
ATOM      2  C   UNL     1       6.798   4.895  15.934  0.00  0.00    +0.000 C 
ATOM      3  C   UNL     1       6.550   6.401  15.986  0.00  0.00    +0.000 C 
ATOM      4  C   UNL     1       5.079   6.743  15.750  0.00  0.00    +0.000 C 
ATOM      5  N   UNL     1       4.209   5.956  16.620  0.00  0.00    +0.000 N 
ATOM      6  C   UNL     1       3.362   6.549  17.538  0.00  0.00    +0.000 A 
ATOM      7  C   UNL     1       2.776   7.786  17.357  0.00  0.00    +0.000 A 
ATOM      8  C   UNL     1       2.019   8.383  18.393  0.00  0.00    +0.000 A 
ATOM      9  C   UNL     1       1.883   7.783  19.659  0.00  0.00    +0.000 A 
ATOM     10  C   UNL     1       2.461   6.503  19.735  0.00  0.00    +0.000 A 
ATOM     11  N   UNL     1       3.133   5.914  18.688  0.00  0.00    +0.000 NA
ATOM     12  C   UNL     1       4.424   4.502  16.663  0.00  0.00    +0.000 C 
ENDROOT
BRANCH   9  13
ATOM     13  C   UNL     1       1.306   8.601  20.838  0.00  0.00    +0.000 C 
ATOM     14  O   UNL     1       1.571   8.306  21.995  0.00  0.00    +0.000 OA
ATOM     15  N   UNL     1       0.518   9.733  20.558  0.00  0.00    +0.000 N 
ATOM     16  H   UNL     1       0.552  10.035  19.602  0.00  0.00    +0.000 HD
BRANCH  15  17
ATOM     17  C   UNL     1       0.295  10.904  21.460  0.00  0.00    +0.000 C 
ATOM     18  C   UNL     1       0.996  12.156  20.890  0.00  0.00    +0.000 C 
ATOM     19  C   UNL     1       0.215  12.802  19.750  0.00  0.00    +0.000 C 
ATOM     20  C   UNL     1      -1.141  13.306  20.210  0.00  0.00    +0.000 C 
ATOM     21  C   UNL     1      -1.926  12.313  21.065  0.00  0.00    +0.000 C 
ATOM     22  C   UNL     1      -1.127  11.305  21.909  0.00  0.00    +0.000 C 
ENDBRANCH  15  17
ENDBRANCH   9  13
BRANCH   1  23
ATOM     23  C   UNL     1       6.276   4.392  18.399  0.00  0.00    +0.000 C 
BRANCH  23  25
ATOM     24  O   UNL     1       8.071   5.877  19.141  0.00  0.00    +0.000 OA
ATOM     25  C   UNL     1       7.721   4.833  18.572  0.00  0.00    +0.000 C 
BRANCH  25  26
ATOM     26  O   UNL     1       8.598   3.972  18.025  0.00  0.00    +0.000 OA
ATOM     27  H   UNL     1       8.513   3.064  18.356  0.00  0.00    +0.000 HD
ENDBRANCH  25  26
ENDBRANCH  23  25
ENDBRANCH   1  23
BRANCH  10  28
ATOM     28  O   UNL     1       2.714   5.719  20.786  0.00  0.00    +0.000 OA
BRANCH  28  29
ATOM     29  C   UNL     1       2.077   4.496  21.088  0.00  0.00    +0.000 C 
ATOM     30  C   UNL     1       0.807   4.338  20.240  0.00  0.00    +0.000 C 
ATOM     31  C   UNL     1       0.883   2.986  19.545  0.00  0.00    +0.000 C 
ATOM     32  C   UNL     1       2.294   2.455  19.722  0.00  0.00    +0.000 C 
ATOM     33  C   UNL     1       3.059   3.462  20.549  0.00  0.00    +0.000 C 
ENDBRANCH  28  29
ENDBRANCH  10  28
TORSDOF 7
ENDMDL
MODEL 4
REMARK VINA RESULT:      -6.8      5.513      8.687
REMARK  Name = 
REMARK  7 active torsions:
REMARK  status: ('A' for Active; 'I' for Inactive)
REMARK    1  A    between atoms: C_2  and  O_3
REMARK    2  A    between atoms: C_2  and  C_4
REMARK    3  A    between atoms: C_4  and  C_5
REMARK    4  A    between atoms: C_13  and  C_14
REMARK    5  A    between atoms: N_16  and  C_17
REMARK    6  A    between atoms: C_23  and  O_24
REMARK    7  A    between atoms: O_24  and  C_25
REMARK                            x       y       z     vdW  Elec       q    Type
REMARK                         _______ _______ _______ _____ _____    ______ ____
ROOT
ATOM      1  C   UNL     1       1.176  10.102  20.951  0.00  0.00    +0.000 C 
ATOM      2  C   UNL     1       1.208   9.295  22.259  0.00  0.00    +0.000 C 
ATOM      3  C   UNL     1      -0.167   9.239  22.920  0.00  0.00    +0.000 C 
ATOM      4  C   UNL     1      -0.737  10.637  23.163  0.00  0.00    +0.000 C 
ATOM      5  N   UNL     1      -0.681  11.448  21.950  0.00  0.00    +0.000 N 
ATOM      6  C   UNL     1      -1.821  11.967  21.364  0.00  0.00    +0.000 A 
ATOM      7  C   UNL     1      -2.950  12.333  22.068  0.00  0.00    +0.000 A 
ATOM      8  C   UNL     1      -4.123  12.742  21.388  0.00  0.00    +0.000 A 
ATOM      9  C   UNL     1      -4.212  12.733  19.984  0.00  0.00    +0.000 A 
ATOM     10  C   UNL     1      -3.001  12.403  19.349  0.00  0.00    +0.000 A 
ATOM     11  N   UNL     1      -1.853  12.077  20.035  0.00  0.00    +0.000 NA
ATOM     12  C   UNL     1       0.599  11.507  21.229  0.00  0.00    +0.000 C 
ENDROOT
BRANCH   9  13
ATOM     13  C   UNL     1      -5.591  12.898  19.302  0.00  0.00    +0.000 C 
ATOM     14  O   UNL     1      -6.412  11.991  19.320  0.00  0.00    +0.000 OA
ATOM     15  N   UNL     1      -5.913  14.134  18.713  0.00  0.00    +0.000 N 
ATOM     16  H   UNL     1      -5.289  14.882  18.952  0.00  0.00    +0.000 HD
BRANCH  15  17
ATOM     17  C   UNL     1      -7.287  14.669  18.467  0.00  0.00    +0.000 C 
ATOM     18  C   UNL     1      -7.916  15.150  19.793  0.00  0.00    +0.000 C 
ATOM     19  C   UNL     1      -7.394  16.514  20.232  0.00  0.00    +0.000 C 
ATOM     20  C   UNL     1      -7.743  17.602  19.233  0.00  0.00    +0.000 C 
ATOM     21  C   UNL     1      -7.469  17.231  17.777  0.00  0.00    +0.000 C 
ATOM     22  C   UNL     1      -7.543  15.744  17.388  0.00  0.00    +0.000 C 
ENDBRANCH  15  17
ENDBRANCH   9  13
BRANCH   1  23
ATOM     23  C   UNL     1       0.398   9.400  19.823  0.00  0.00    +0.000 C 
BRANCH  23  25
ATOM     24  O   UNL     1       1.854   9.349  17.859  0.00  0.00    +0.000 OA
ATOM     25  C   UNL     1       0.863   9.820  18.437  0.00  0.00    +0.000 C 
BRANCH  25  26
ATOM     26  O   UNL     1       0.089  10.777  17.894  0.00  0.00    +0.000 OA
ATOM     27  H   UNL     1       0.492  11.659  17.905  0.00  0.00    +0.000 HD
ENDBRANCH  25  26
ENDBRANCH  23  25
ENDBRANCH   1  23
BRANCH  10  28
ATOM     28  O   UNL     1      -2.736  12.098  18.077  0.00  0.00    +0.000 OA
BRANCH  28  29
ATOM     29  C   UNL     1      -3.533  11.304  17.225  0.00  0.00    +0.000 C 
ATOM     30  C   UNL     1      -3.093  11.488  15.766  0.00  0.00    +0.000 C 
ATOM     31  C   UNL     1      -2.842  10.105  15.182  0.00  0.00    +0.000 C 
ATOM     32  C   UNL     1      -2.838   9.113  16.332  0.00  0.00    +0.000 C 
ATOM     33  C   UNL     1      -3.120   9.885  17.600  0.00  0.00    +0.000 C 
ENDBRANCH  28  29
ENDBRANCH  10  28
TORSDOF 7
ENDMDL
MODEL 5
REMARK VINA RESULT:      -6.5      5.170      8.664
REMARK  Name = 
REMARK  7 active torsions:
REMARK  status: ('A' for Active; 'I' for Inactive)
REMARK    1  A    between atoms: C_2  and  O_3
REMARK    2  A    between atoms: C_2  and  C_4
REMARK    3  A    between atoms: C_4  and  C_5
REMARK    4  A    between atoms: C_13  and  C_14
REMARK    5  A    between atoms: N_16  and  C_17
REMARK    6  A    between atoms: C_23  and  O_24
REMARK    7  A    between atoms: O_24  and  C_25
REMARK                            x       y       z     vdW  Elec       q    Type
REMARK                         _______ _______ _______ _____ _____    ______ ____
ROOT
ATOM      1  C   UNL     1       1.060  10.478  20.986  0.00  0.00    +0.000 C 
ATOM      2  C   UNL     1       1.190   9.604  22.244  0.00  0.00    +0.000 C 
ATOM      3  C   UNL     1      -0.159   9.397  22.928  0.00  0.00    +0.000 C 
ATOM      4  C   UNL     1      -0.834  10.727  23.265  0.00  0.00    +0.000 C 
ATOM      5  N   UNL     1      -0.874  11.608  22.101  0.00  0.00    +0.000 N 
ATOM      6  C   UNL     1      -2.066  12.065  21.571  0.00  0.00    +0.000 A 
ATOM      7  C   UNL     1      -3.203  12.296  22.318  0.00  0.00    +0.000 A 
ATOM      8  C   UNL     1      -4.422  12.645  21.688  0.00  0.00    +0.000 A 
ATOM      9  C   UNL     1      -4.546  12.709  20.287  0.00  0.00    +0.000 A 
ATOM     10  C   UNL     1      -3.328  12.517  19.609  0.00  0.00    +0.000 A 
ATOM     11  N   UNL     1      -2.141  12.248  20.251  0.00  0.00    +0.000 NA
ATOM     12  C   UNL     1       0.378  11.813  21.359  0.00  0.00    +0.000 C 
ENDROOT
BRANCH   9  13
ATOM     13  C   UNL     1      -5.950  12.800  19.645  0.00  0.00    +0.000 C 
ATOM     14  O   UNL     1      -6.922  12.295  20.190  0.00  0.00    +0.000 OA
ATOM     15  N   UNL     1      -6.105  13.528  18.451  0.00  0.00    +0.000 N 
ATOM     16  H   UNL     1      -5.317  14.099  18.209  0.00  0.00    +0.000 HD
BRANCH  15  17
ATOM     17  C   UNL     1      -7.367  14.154  17.951  0.00  0.00    +0.000 C 
ATOM     18  C   UNL     1      -7.732  15.381  18.815  0.00  0.00    +0.000 C 
ATOM     19  C   UNL     1      -6.905  16.614  18.465  0.00  0.00    +0.000 C 
ATOM     20  C   UNL     1      -7.149  17.072  17.039  0.00  0.00    +0.000 C 
ATOM     21  C   UNL     1      -7.123  15.949  16.004  0.00  0.00    +0.000 C 
ATOM     22  C   UNL     1      -7.531  14.539  16.464  0.00  0.00    +0.000 C 
ENDBRANCH  15  17
ENDBRANCH   9  13
BRANCH   1  23
ATOM     23  C   UNL     1       0.312   9.780  19.835  0.00  0.00    +0.000 C 
BRANCH  23  25
ATOM     24  O   UNL     1       1.482   9.797  17.687  0.00  0.00    +0.000 OA
ATOM     25  C   UNL     1       1.250   9.236  18.768  0.00  0.00    +0.000 C 
BRANCH  25  26
ATOM     26  O   UNL     1       1.805   8.060  19.112  0.00  0.00    +0.000 OA
ATOM     27  H   UNL     1       1.420   7.664  19.910  0.00  0.00    +0.000 HD
ENDBRANCH  25  26
ENDBRANCH  23  25
ENDBRANCH   1  23
BRANCH  10  28
ATOM     28  O   UNL     1      -3.072  12.307  18.316  0.00  0.00    +0.000 OA
BRANCH  28  29
ATOM     29  C   UNL     1      -2.459  11.163  17.761  0.00  0.00    +0.000 C 
ATOM     30  C   UNL     1      -3.450   9.990  17.744  0.00  0.00    +0.000 C 
ATOM     31  C   UNL     1      -3.487   9.438  16.326  0.00  0.00    +0.000 C 
ATOM     32  C   UNL     1      -2.770  10.430  15.427  0.00  0.00    +0.000 C 
ATOM     33  C   UNL     1      -2.270  11.557  16.300  0.00  0.00    +0.000 C 
ENDBRANCH  28  29
ENDBRANCH  10  28
TORSDOF 7
ENDMDL
MODEL 6
REMARK VINA RESULT:      -6.5      6.507      9.716
REMARK  Name = 
REMARK  7 active torsions:
REMARK  status: ('A' for Active; 'I' for Inactive)
REMARK    1  A    between atoms: C_2  and  O_3
REMARK    2  A    between atoms: C_2  and  C_4
REMARK    3  A    between atoms: C_4  and  C_5
REMARK    4  A    between atoms: C_13  and  C_14
REMARK    5  A    between atoms: N_16  and  C_17
REMARK    6  A    between atoms: C_23  and  O_24
REMARK    7  A    between atoms: O_24  and  C_25
REMARK                            x       y       z     vdW  Elec       q    Type
REMARK                         _______ _______ _______ _____ _____    ______ ____
ROOT
ATOM      1  C   UNL     1      -2.448   9.712  17.653  0.00  0.00    +0.000 C 
ATOM      2  C   UNL     1      -2.255   9.885  16.137  0.00  0.00    +0.000 C 
ATOM      3  C   UNL     1      -2.897  11.174  15.632  0.00  0.00    +0.000 C 
ATOM      4  C   UNL     1      -4.380  11.252  15.998  0.00  0.00    +0.000 C 
ATOM      5  N   UNL     1      -4.586  10.990  17.420  0.00  0.00    +0.000 N 
ATOM      6  C   UNL     1      -5.161  11.926  18.260  0.00  0.00    +0.000 A 
ATOM      7  C   UNL     1      -6.108  12.844  17.855  0.00  0.00    +0.000 A 
ATOM      8  C   UNL     1      -6.561  13.851  18.741  0.00  0.00    +0.000 A 
ATOM      9  C   UNL     1      -6.029  14.000  20.035  0.00  0.00    +0.000 A 
ATOM     10  C   UNL     1      -5.115  12.989  20.383  0.00  0.00    +0.000 A 
ATOM     11  N   UNL     1      -4.744  11.979  19.525  0.00  0.00    +0.000 NA
ATOM     12  C   UNL     1      -3.953   9.793  17.990  0.00  0.00    +0.000 C 
ENDROOT
BRANCH   9  13
ATOM     13  C   UNL     1      -6.335  15.280  20.848  0.00  0.00    +0.000 C 
ATOM     14  O   UNL     1      -7.489  15.635  21.047  0.00  0.00    +0.000 OA
ATOM     15  N   UNL     1      -5.265  15.999  21.413  0.00  0.00    +0.000 N 
ATOM     16  H   UNL     1      -4.388  15.511  21.403  0.00  0.00    +0.000 HD
BRANCH  15  17
ATOM     17  C   UNL     1      -5.334  16.912  22.594  0.00  0.00    +0.000 C 
ATOM     18  C   UNL     1      -5.513  16.092  23.891  0.00  0.00    +0.000 C 
ATOM     19  C   UNL     1      -4.212  15.461  24.373  0.00  0.00    +0.000 C 
ATOM     20  C   UNL     1      -3.174  16.508  24.730  0.00  0.00    +0.000 C 
ATOM     21  C   UNL     1      -3.020  17.621  23.696  0.00  0.00    +0.000 C 
ATOM     22  C   UNL     1      -4.247  17.981  22.840  0.00  0.00    +0.000 C 
ENDBRANCH  15  17
ENDBRANCH   9  13
BRANCH   1  23
ATOM     23  C   UNL     1      -1.641  10.724  18.487  0.00  0.00    +0.000 C 
BRANCH  23  25
ATOM     24  O   UNL     1      -0.007   9.719  20.004  0.00  0.00    +0.000 OA
ATOM     25  C   UNL     1      -0.273  10.196  18.891  0.00  0.00    +0.000 C 
BRANCH  25  26
ATOM     26  O   UNL     1       0.640  10.310  17.910  0.00  0.00    +0.000 OA
ATOM     27  H   UNL     1       1.558  10.244  18.220  0.00  0.00    +0.000 HD
ENDBRANCH  25  26
ENDBRANCH  23  25
ENDBRANCH   1  23
BRANCH  10  28
ATOM     28  O   UNL     1      -4.267  12.893  21.410  0.00  0.00    +0.000 OA
BRANCH  28  29
ATOM     29  C   UNL     1      -2.859  12.833  21.328  0.00  0.00    +0.000 C 
ATOM     30  C   UNL     1      -2.279  14.245  21.163  0.00  0.00    +0.000 C 
ATOM     31  C   UNL     1      -1.218  14.435  22.237  0.00  0.00    +0.000 C 
ATOM     32  C   UNL     1      -1.349  13.288  23.223  0.00  0.00    +0.000 C 
ATOM     33  C   UNL     1      -2.459  12.389  22.731  0.00  0.00    +0.000 C 
ENDBRANCH  28  29
ENDBRANCH  10  28
TORSDOF 7
ENDMDL
MODEL 7
REMARK VINA RESULT:      -6.5      4.104     10.405
REMARK  Name = 
REMARK  7 active torsions:
REMARK  status: ('A' for Active; 'I' for Inactive)
REMARK    1  A    between atoms: C_2  and  O_3
REMARK    2  A    between atoms: C_2  and  C_4
REMARK    3  A    between atoms: C_4  and  C_5
REMARK    4  A    between atoms: C_13  and  C_14
REMARK    5  A    between atoms: N_16  and  C_17
REMARK    6  A    between atoms: C_23  and  O_24
REMARK    7  A    between atoms: O_24  and  C_25
REMARK                            x       y       z     vdW  Elec       q    Type
REMARK                         _______ _______ _______ _____ _____    ______ ____
ROOT
ATOM      1  C   UNL     1      -6.479  12.835  20.098  0.00  0.00    +0.000 C 
ATOM      2  C   UNL     1      -7.538  11.724  20.188  0.00  0.00    +0.000 C 
ATOM      3  C   UNL     1      -6.937  10.350  19.903  0.00  0.00    +0.000 C 
ATOM      4  C   UNL     1      -6.229  10.310  18.548  0.00  0.00    +0.000 C 
ATOM      5  N   UNL     1      -5.292  11.421  18.411  0.00  0.00    +0.000 N 
ATOM      6  C   UNL     1      -3.938  11.216  18.214  0.00  0.00    +0.000 A 
ATOM      7  C   UNL     1      -3.414  10.132  17.540  0.00  0.00    +0.000 A 
ATOM      8  C   UNL     1      -2.015   9.925  17.485  0.00  0.00    +0.000 A 
ATOM      9  C   UNL     1      -1.109  10.766  18.158  0.00  0.00    +0.000 A 
ATOM     10  C   UNL     1      -1.724  11.875  18.767  0.00  0.00    +0.000 A 
ATOM     11  N   UNL     1      -3.083  12.090  18.747  0.00  0.00    +0.000 NA
ATOM     12  C   UNL     1      -5.785  12.771  18.721  0.00  0.00    +0.000 C 
ENDROOT
BRANCH   9  13
ATOM     13  C   UNL     1       0.368  10.335  18.314  0.00  0.00    +0.000 C 
ATOM     14  O   UNL     1       1.274  11.149  18.203  0.00  0.00    +0.000 OA
ATOM     15  N   UNL     1       0.653   8.999  18.650  0.00  0.00    +0.000 N 
ATOM     16  H   UNL     1      -0.143   8.469  18.953  0.00  0.00    +0.000 HD
BRANCH  15  17
ATOM     17  C   UNL     1       1.891   8.497  19.322  0.00  0.00    +0.000 C 
ATOM     18  C   UNL     1       1.602   8.181  20.805  0.00  0.00    +0.000 C 
ATOM     19  C   UNL     1       0.882   6.851  20.995  0.00  0.00    +0.000 C 
ATOM     20  C   UNL     1       1.722   5.680  20.518  0.00  0.00    +0.000 C 
ATOM     21  C   UNL     1       2.371   5.887  19.151  0.00  0.00    +0.000 C 
ATOM     22  C   UNL     1       2.703   7.327  18.724  0.00  0.00    +0.000 C 
ENDBRANCH  15  17
ENDBRANCH   9  13
BRANCH   1  23
ATOM     23  C   UNL     1      -5.446  12.785  21.239  0.00  0.00    +0.000 C 
BRANCH  23  25
ATOM     24  O   UNL     1      -6.748  14.445  22.476  0.00  0.00    +0.000 OA
ATOM     25  C   UNL     1      -5.667  13.870  22.282  0.00  0.00    +0.000 C 
BRANCH  25  26
ATOM     26  O   UNL     1      -4.553  14.159  22.978  0.00  0.00    +0.000 OA
ATOM     27  H   UNL     1      -3.910  14.692  22.483  0.00  0.00    +0.000 HD
ENDBRANCH  25  26
ENDBRANCH  23  25
ENDBRANCH   1  23
BRANCH  10  28
ATOM     28  O   UNL     1      -1.252  12.764  19.644  0.00  0.00    +0.000 OA
BRANCH  28  29
ATOM     29  C   UNL     1      -1.887  13.183  20.833  0.00  0.00    +0.000 C 
ATOM     30  C   UNL     1      -1.760  12.098  21.911  0.00  0.00    +0.000 C 
ATOM     31  C   UNL     1      -1.187  12.753  23.160  0.00  0.00    +0.000 C 
ATOM     32  C   UNL     1      -0.694  14.135  22.770  0.00  0.00    +0.000 C 
ATOM     33  C   UNL     1      -0.999  14.330  21.303  0.00  0.00    +0.000 C 
ENDBRANCH  28  29
ENDBRANCH  10  28
TORSDOF 7
ENDMDL
MODEL 8
REMARK VINA RESULT:      -6.5      7.028      9.489
REMARK  Name = 
REMARK  7 active torsions:
REMARK  status: ('A' for Active; 'I' for Inactive)
REMARK    1  A    between atoms: C_2  and  O_3
REMARK    2  A    between atoms: C_2  and  C_4
REMARK    3  A    between atoms: C_4  and  C_5
REMARK    4  A    between atoms: C_13  and  C_14
REMARK    5  A    between atoms: N_16  and  C_17
REMARK    6  A    between atoms: C_23  and  O_24
REMARK    7  A    between atoms: O_24  and  C_25
REMARK                            x       y       z     vdW  Elec       q    Type
REMARK                         _______ _______ _______ _____ _____    ______ ____
ROOT
ATOM      1  C   UNL     1       2.217  14.508  20.510  0.00  0.00    +0.000 C 
ATOM      2  C   UNL     1       3.327  14.541  19.447  0.00  0.00    +0.000 C 
ATOM      3  C   UNL     1       2.865  13.921  18.131  0.00  0.00    +0.000 C 
ATOM      4  C   UNL     1       2.349  12.495  18.325  0.00  0.00    +0.000 C 
ATOM      5  N   UNL     1       1.365  12.433  19.402  0.00  0.00    +0.000 N 
ATOM      6  C   UNL     1       0.067  12.008  19.184  0.00  0.00    +0.000 A 
ATOM      7  C   UNL     1      -0.287  11.076  18.231  0.00  0.00    +0.000 A 
ATOM      8  C   UNL     1      -1.650  10.781  17.981  0.00  0.00    +0.000 A 
ATOM      9  C   UNL     1      -2.692  11.461  18.639  0.00  0.00    +0.000 A 
ATOM     10  C   UNL     1      -2.241  12.349  19.632  0.00  0.00    +0.000 A 
ATOM     11  N   UNL     1      -0.909  12.565  19.903  0.00  0.00    +0.000 NA
ATOM     12  C   UNL     1       1.720  13.056  20.686  0.00  0.00    +0.000 C 
ENDROOT
BRANCH   9  13
ATOM     13  C   UNL     1      -4.144  11.319  18.125  0.00  0.00    +0.000 C 
ATOM     14  O   UNL     1      -4.512  10.298  17.562  0.00  0.00    +0.000 OA
ATOM     15  N   UNL     1      -5.057  12.361  18.373  0.00  0.00    +0.000 N 
ATOM     16  H   UNL     1      -4.739  13.041  19.039  0.00  0.00    +0.000 HD
BRANCH  15  17
ATOM     17  C   UNL     1      -6.546  12.242  18.429  0.00  0.00    +0.000 C 
ATOM     18  C   UNL     1      -6.956  11.168  19.460  0.00  0.00    +0.000 C 
ATOM     19  C   UNL     1      -6.876  11.671  20.897  0.00  0.00    +0.000 C 
ATOM     20  C   UNL     1      -7.836  12.819  21.149  0.00  0.00    +0.000 C 
ATOM     21  C   UNL     1      -7.818  13.902  20.072  0.00  0.00    +0.000 C 
ATOM     22  C   UNL     1      -7.437  13.486  18.641  0.00  0.00    +0.000 C 
ENDBRANCH  15  17
ENDBRANCH   9  13
BRANCH   1  23
ATOM     23  C   UNL     1       1.047  15.458  20.198  0.00  0.00    +0.000 C 
BRANCH  23  25
ATOM     24  O   UNL     1       0.638  16.485  22.379  0.00  0.00    +0.000 OA
ATOM     25  C   UNL     1       0.224  15.804  21.429  0.00  0.00    +0.000 C 
BRANCH  25  26
ATOM     26  O   UNL     1      -1.014  15.279  21.394  0.00  0.00    +0.000 OA
ATOM     27  H   UNL     1      -1.246  14.770  22.187  0.00  0.00    +0.000 HD
ENDBRANCH  25  26
ENDBRANCH  23  25
ENDBRANCH   1  23
BRANCH  10  28
ATOM     28  O   UNL     1      -2.885  13.298  20.315  0.00  0.00    +0.000 OA
BRANCH  28  29
ATOM     29  C   UNL     1      -3.830  13.091  21.343  0.00  0.00    +0.000 C 
ATOM     30  C   UNL     1      -3.113  12.766  22.662  0.00  0.00    +0.000 C 
ATOM     31  C   UNL     1      -3.645  13.720  23.722  0.00  0.00    +0.000 C 
ATOM     32  C   UNL     1      -4.445  14.798  23.013  0.00  0.00    +0.000 C 
ATOM     33  C   UNL     1      -4.428  14.480  21.536  0.00  0.00    +0.000 C 
ENDBRANCH  28  29
ENDBRANCH  10  28
TORSDOF 7
ENDMDL
MODEL 9
REMARK VINA RESULT:      -6.3      6.096      9.546
REMARK  Name = 
REMARK  7 active torsions:
REMARK  status: ('A' for Active; 'I' for Inactive)
REMARK    1  A    between atoms: C_2  and  O_3
REMARK    2  A    between atoms: C_2  and  C_4
REMARK    3  A    between atoms: C_4  and  C_5
REMARK    4  A    between atoms: C_13  and  C_14
REMARK    5  A    between atoms: N_16  and  C_17
REMARK    6  A    between atoms: C_23  and  O_24
REMARK    7  A    between atoms: O_24  and  C_25
REMARK                            x       y       z     vdW  Elec       q    Type
REMARK                         _______ _______ _______ _____ _____    ______ ____
ROOT
ATOM      1  C   UNL     1      -5.679  11.334  17.879  0.00  0.00    +0.000 C 
ATOM      2  C   UNL     1      -6.903  12.194  17.520  0.00  0.00    +0.000 C 
ATOM      3  C   UNL     1      -6.705  13.651  17.928  0.00  0.00    +0.000 C 
ATOM      4  C   UNL     1      -6.370  13.786  19.414  0.00  0.00    +0.000 C 
ATOM      5  N   UNL     1      -5.274  12.898  19.789  0.00  0.00    +0.000 N 
ATOM      6  C   UNL     1      -4.087  13.382  20.309  0.00  0.00    +0.000 A 
ATOM      7  C   UNL     1      -3.991  14.523  21.077  0.00  0.00    +0.000 A 
ATOM      8  C   UNL     1      -2.727  15.024  21.471  0.00  0.00    +0.000 A 
ATOM      9  C   UNL     1      -1.524  14.427  21.050  0.00  0.00    +0.000 A 
ATOM     10  C   UNL     1      -1.715  13.239  20.321  0.00  0.00    +0.000 A 
ATOM     11  N   UNL     1      -2.958  12.735  20.011  0.00  0.00    +0.000 NA
ATOM     12  C   UNL     1      -5.369  11.488  19.384  0.00  0.00    +0.000 C 
ENDROOT
BRANCH   9  13
ATOM     13  C   UNL     1      -0.184  15.173  21.254  0.00  0.00    +0.000 C 
ATOM     14  O   UNL     1       0.171  15.529  22.370  0.00  0.00    +0.000 OA
ATOM     15  N   UNL     1       0.653  15.382  20.143  0.00  0.00    +0.000 N 
ATOM     16  H   UNL     1       0.399  14.855  19.328  0.00  0.00    +0.000 HD
BRANCH  15  17
ATOM     17  C   UNL     1       2.131  15.601  20.174  0.00  0.00    +0.000 C 
ATOM     18  C   UNL     1       2.868  14.329  19.702  0.00  0.00    +0.000 C 
ATOM     19  C   UNL     1       2.858  14.172  18.185  0.00  0.00    +0.000 C 
ATOM     20  C   UNL     1       3.589  15.309  17.494  0.00  0.00    +0.000 C 
ATOM     21  C   UNL     1       3.225  16.699  18.013  0.00  0.00    +0.000 C 
ATOM     22  C   UNL     1       2.771  16.822  19.478  0.00  0.00    +0.000 C 
ENDBRANCH  15  17
ENDBRANCH   9  13
BRANCH   1  23
ATOM     23  C   UNL     1      -4.439  11.655  17.025  0.00  0.00    +0.000 C 
BRANCH  23  25
ATOM     24  O   UNL     1      -3.363   9.637  16.159  0.00  0.00    +0.000 OA
ATOM     25  C   UNL     1      -3.420  10.526  17.021  0.00  0.00    +0.000 C 
BRANCH  25  26
ATOM     26  O   UNL     1      -2.578  10.579  18.069  0.00  0.00    +0.000 OA
ATOM     27  H   UNL     1      -2.975  10.289  18.905  0.00  0.00    +0.000 HD
ENDBRANCH  25  26
ENDBRANCH  23  25
ENDBRANCH   1  23
BRANCH  10  28
ATOM     28  O   UNL     1      -0.862  12.511  19.597  0.00  0.00    +0.000 OA
BRANCH  28  29
ATOM     29  C   UNL     1       0.236  11.775  20.092  0.00  0.00    +0.000 C 
ATOM     30  C   UNL     1      -0.256  10.619  20.975  0.00  0.00    +0.000 C 
ATOM     31  C   UNL     1       0.389   9.340  20.461  0.00  0.00    +0.000 C 
ATOM     32  C   UNL     1       1.023   9.652  19.117  0.00  0.00    +0.000 C 
ATOM     33  C   UNL     1       0.796  11.118  18.835  0.00  0.00    +0.000 C 
ENDBRANCH  28  29
ENDBRANCH  10  28
TORSDOF 7
ENDMDL
