MODEL 1
REMARK VINA RESULT:      -8.1      0.000      0.000
REMARK  Name = 
REMARK  4 active torsions:
REMARK  status: ('A' for Active; 'I' for Inactive)
REMARK    1  A    between atoms: C_1  and  C_2
REMARK    2  A    between atoms: C_2  and  C_3
REMARK    3  A    between atoms: C_6  and  C_7
REMARK    4  A    between atoms: C_16  and  C_17
REMARK                            x       y       z     vdW  Elec       q    Type
REMARK                         _______ _______ _______ _____ _____    ______ ____
ROOT
ATOM      1  C   UNL     1       0.361  10.607  20.693  0.00  0.00    +0.000 C 
ATOM      2  C   UNL     1       0.244  10.519  19.174  0.00  0.00    +0.000 C 
ATOM      3  C   UNL     1      -1.151  10.157  18.702  0.00  0.00    +0.000 C 
ATOM      4  C   UNL     1      -1.705  11.524  18.488  0.00  0.00    +0.000 C 
ATOM      5  N   UNL     1      -0.795  12.443  18.397  0.00  0.00    +0.000 NA
ATOM      6  O   UNL     1       0.467  11.818  18.595  0.00  0.00    +0.000 OA
ENDROOT
BRANCH   4   7
ATOM      7  C   UNL     1      -3.167  11.794  18.357  0.00  0.00    +0.000 A 
ATOM      8  C   UNL     1      -3.834  11.518  17.145  0.00  0.00    +0.000 A 
ATOM      9 CL   UNL     1      -3.026  11.014  15.697  0.00  0.00    +0.000 Cl
ATOM     10  C   UNL     1      -5.221  11.703  17.023  0.00  0.00    +0.000 A 
ATOM     11  C   UNL     1      -5.967  12.182  18.093  0.00  0.00    +0.000 A 
ATOM     12  C   UNL     1      -5.323  12.488  19.284  0.00  0.00    +0.000 A 
ATOM     13  C   UNL     1      -3.940  12.297  19.425  0.00  0.00    +0.000 A 
ATOM     14 CL   UNL     1      -3.325  12.686  20.993  0.00  0.00    +0.000 Cl
ENDBRANCH   4   7
BRANCH   2  15
ATOM     15  C   UNL     1       1.250   9.562  18.633  0.00  0.00    +0.000 A 
ATOM     16  N   UNL     1       2.035   9.712  17.581  0.00  0.00    +0.000 NA
ATOM     17  N   UNL     1       2.788   8.565  17.487  0.00  0.00    +0.000 NA
ATOM     18  C   UNL     1       2.407   7.781  18.475  0.00  0.00    +0.000 A 
ATOM     19  O   UNL     1       1.416   8.344  19.241  0.00  0.00    +0.000 OA
BRANCH  18  20
ATOM     20  C   UNL     1       2.885   6.454  18.849  0.00  0.00    +0.000 A 
ATOM     21  C   UNL     1       3.868   5.825  18.065  0.00  0.00    +0.000 A 
ATOM     22  C   UNL     1       4.356   4.560  18.406  0.00  0.00    +0.000 A 
ATOM     23  C   UNL     1       3.864   3.914  19.536  0.00  0.00    +0.000 A 
ATOM     24 CL   UNL     1       4.470   2.361  19.966  0.00  0.00    +0.000 Cl
ATOM     25  C   UNL     1       2.886   4.516  20.322  0.00  0.00    +0.000 A 
ATOM     26  C   UNL     1       2.399   5.782  19.981  0.00  0.00    +0.000 A 
ENDBRANCH  18  20
ENDBRANCH   2  15
TORSDOF 3
ENDMDL
MODEL 2
REMARK VINA RESULT:      -8.1      0.191      2.045
REMARK  Name = 
REMARK  4 active torsions:
REMARK  status: ('A' for Active; 'I' for Inactive)
REMARK    1  A    between atoms: C_1  and  C_2
REMARK    2  A    between atoms: C_2  and  C_3
REMARK    3  A    between atoms: C_6  and  C_7
REMARK    4  A    between atoms: C_16  and  C_17
REMARK                            x       y       z     vdW  Elec       q    Type
REMARK                         _______ _______ _______ _____ _____    ______ ____
ROOT
ATOM      1  C   UNL     1       0.451  10.589  20.693  0.00  0.00    +0.000 C 
ATOM      2  C   UNL     1       0.288  10.520  19.177  0.00  0.00    +0.000 C 
ATOM      3  C   UNL     1      -1.120  10.159  18.743  0.00  0.00    +0.000 C 
ATOM      4  C   UNL     1      -1.684  11.528  18.564  0.00  0.00    +0.000 C 
ATOM      5  N   UNL     1      -0.780  12.450  18.456  0.00  0.00    +0.000 NA
ATOM      6  O   UNL     1       0.490  11.827  18.607  0.00  0.00    +0.000 OA
ENDROOT
BRANCH   4   7
ATOM      7  C   UNL     1      -3.151  11.795  18.481  0.00  0.00    +0.000 A 
ATOM      8  C   UNL     1      -3.833  12.353  19.582  0.00  0.00    +0.000 A 
ATOM      9 CL   UNL     1      -3.103  12.621  21.131  0.00  0.00    +0.000 Cl
ATOM     10  C   UNL     1      -5.199  12.672  19.501  0.00  0.00    +0.000 A 
ATOM     11  C   UNL     1      -5.914  12.427  18.335  0.00  0.00    +0.000 A 
ATOM     12  C   UNL     1      -5.266  11.850  17.252  0.00  0.00    +0.000 A 
ATOM     13  C   UNL     1      -3.899  11.537  17.314  0.00  0.00    +0.000 A 
ATOM     14 CL   UNL     1      -3.256  10.871  15.854  0.00  0.00    +0.000 Cl
ENDBRANCH   4   7
BRANCH   2  15
ATOM     15  C   UNL     1       1.280   9.573  18.593  0.00  0.00    +0.000 A 
ATOM     16  N   UNL     1       2.044   9.746  17.529  0.00  0.00    +0.000 NA
ATOM     17  N   UNL     1       2.791   8.599  17.393  0.00  0.00    +0.000 NA
ATOM     18  C   UNL     1       2.427   7.793  18.370  0.00  0.00    +0.000 A 
ATOM     19  O   UNL     1       1.454   8.341  19.168  0.00  0.00    +0.000 OA
BRANCH  18  20
ATOM     20  C   UNL     1       2.908   6.457  18.703  0.00  0.00    +0.000 A 
ATOM     21  C   UNL     1       2.526   5.865  19.920  0.00  0.00    +0.000 A 
ATOM     22  C   UNL     1       2.960   4.580  20.259  0.00  0.00    +0.000 A 
ATOM     23  C   UNL     1       3.779   3.875  19.383  0.00  0.00    +0.000 A 
ATOM     24 CL   UNL     1       4.306   2.289  19.792  0.00  0.00    +0.000 Cl
ATOM     25  C   UNL     1       4.174   4.445  18.176  0.00  0.00    +0.000 A 
ATOM     26  C   UNL     1       3.739   5.731  17.836  0.00  0.00    +0.000 A 
ENDBRANCH  18  20
ENDBRANCH   2  15
TORSDOF 3
ENDMDL
MODEL 3
REMARK VINA RESULT:      -8.0      7.006      9.516
REMARK  Name = 
REMARK  4 active torsions:
REMARK  status: ('A' for Active; 'I' for Inactive)
REMARK    1  A    between atoms: C_1  and  C_2
REMARK    2  A    between atoms: C_2  and  C_3
REMARK    3  A    between atoms: C_6  and  C_7
REMARK    4  A    between atoms: C_16  and  C_17
REMARK                            x       y       z     vdW  Elec       q    Type
REMARK                         _______ _______ _______ _____ _____    ______ ____
ROOT
ATOM      1  C   UNL     1       7.866   4.473  17.803  0.00  0.00    +0.000 C 
ATOM      2  C   UNL     1       6.948   5.584  18.303  0.00  0.00    +0.000 C 
ATOM      3  C   UNL     1       5.508   5.415  17.859  0.00  0.00    +0.000 C 
ATOM      4  C   UNL     1       4.967   4.679  19.038  0.00  0.00    +0.000 C 
ATOM      5  N   UNL     1       5.713   4.777  20.094  0.00  0.00    +0.000 NA
ATOM      6  O   UNL     1       6.864   5.534  19.739  0.00  0.00    +0.000 OA
ENDROOT
BRANCH   4   7
ATOM      7  C   UNL     1       3.673   3.936  19.005  0.00  0.00    +0.000 A 
ATOM      8  C   UNL     1       2.511   4.558  18.504  0.00  0.00    +0.000 A 
ATOM      9 CL   UNL     1       2.434   6.229  18.049  0.00  0.00    +0.000 Cl
ATOM     10  C   UNL     1       1.299   3.855  18.404  0.00  0.00    +0.000 A 
ATOM     11  C   UNL     1       1.214   2.530  18.816  0.00  0.00    +0.000 A 
ATOM     12  C   UNL     1       2.341   1.911  19.339  0.00  0.00    +0.000 A 
ATOM     13  C   UNL     1       3.562   2.598  19.434  0.00  0.00    +0.000 A 
ATOM     14 CL   UNL     1       4.862   1.649  20.065  0.00  0.00    +0.000 Cl
ENDBRANCH   4   7
BRANCH   2  15
ATOM     15  C   UNL     1       7.475   6.916  17.891  0.00  0.00    +0.000 A 
ATOM     16  N   UNL     1       7.511   7.439  16.679  0.00  0.00    +0.000 NA
ATOM     17  N   UNL     1       8.082   8.684  16.806  0.00  0.00    +0.000 NA
ATOM     18  C   UNL     1       8.373   8.837  18.082  0.00  0.00    +0.000 A 
ATOM     19  O   UNL     1       8.029   7.742  18.835  0.00  0.00    +0.000 OA
BRANCH  18  20
ATOM     20  C   UNL     1       8.980   9.972  18.769  0.00  0.00    +0.000 A 
ATOM     21  C   UNL     1       9.568  11.004  18.017  0.00  0.00    +0.000 A 
ATOM     22  C   UNL     1      10.145  12.112  18.646  0.00  0.00    +0.000 A 
ATOM     23  C   UNL     1      10.139  12.195  20.035  0.00  0.00    +0.000 A 
ATOM     24 CL   UNL     1      10.838  13.561  20.814  0.00  0.00    +0.000 Cl
ATOM     25  C   UNL     1       9.568  11.180  20.799  0.00  0.00    +0.000 A 
ATOM     26  C   UNL     1       8.990  10.073  20.168  0.00  0.00    +0.000 A 
ENDBRANCH  18  20
ENDBRANCH   2  15
TORSDOF 3
ENDMDL
MODEL 4
REMARK VINA RESULT:      -7.8      0.594      1.133
REMARK  Name = 
REMARK  4 active torsions:
REMARK  status: ('A' for Active; 'I' for Inactive)
REMARK    1  A    between atoms: C_1  and  C_2
REMARK    2  A    between atoms: C_2  and  C_3
REMARK    3  A    between atoms: C_6  and  C_7
REMARK    4  A    between atoms: C_16  and  C_17
REMARK                            x       y       z     vdW  Elec       q    Type
REMARK                         _______ _______ _______ _____ _____    ______ ____
ROOT
ATOM      1  C   UNL     1       0.841  11.321  20.588  0.00  0.00    +0.000 C 
ATOM      2  C   UNL     1       0.391  10.917  19.187  0.00  0.00    +0.000 C 
ATOM      3  C   UNL     1      -1.051  10.449  19.134  0.00  0.00    +0.000 C 
ATOM      4  C   UNL     1      -1.718  11.736  18.785  0.00  0.00    +0.000 C 
ATOM      5  N   UNL     1      -0.907  12.625  18.303  0.00  0.00    +0.000 NA
ATOM      6  O   UNL     1       0.402  12.068  18.323  0.00  0.00    +0.000 OA
ENDROOT
BRANCH   4   7
ATOM      7  C   UNL     1      -3.185  11.957  18.946  0.00  0.00    +0.000 A 
ATOM      8  C   UNL     1      -4.081  11.530  17.943  0.00  0.00    +0.000 A 
ATOM      9 CL   UNL     1      -3.577  10.884  16.415  0.00  0.00    +0.000 Cl
ATOM     10  C   UNL     1      -5.470  11.670  18.105  0.00  0.00    +0.000 A 
ATOM     11  C   UNL     1      -5.992  12.250  19.254  0.00  0.00    +0.000 A 
ATOM     12  C   UNL     1      -5.125  12.703  20.238  0.00  0.00    +0.000 A 
ATOM     13  C   UNL     1      -3.735  12.560  20.096  0.00  0.00    +0.000 A 
ATOM     14 CL   UNL     1      -2.820  13.137  21.444  0.00  0.00    +0.000 Cl
ENDBRANCH   4   7
BRANCH   2  15
ATOM     15  C   UNL     1       1.304   9.879  18.629  0.00  0.00    +0.000 A 
ATOM     16  N   UNL     1       2.085   9.965  17.568  0.00  0.00    +0.000 NA
ATOM     17  N   UNL     1       2.736   8.757  17.462  0.00  0.00    +0.000 NA
ATOM     18  C   UNL     1       2.300   8.005  18.452  0.00  0.00    +0.000 A 
ATOM     19  O   UNL     1       1.372   8.649  19.232  0.00  0.00    +0.000 OA
BRANCH  18  20
ATOM     20  C   UNL     1       2.667   6.641  18.816  0.00  0.00    +0.000 A 
ATOM     21  C   UNL     1       2.248   6.116  20.051  0.00  0.00    +0.000 A 
ATOM     22  C   UNL     1       2.572   4.807  20.421  0.00  0.00    +0.000 A 
ATOM     23  C   UNL     1       3.319   4.012  19.558  0.00  0.00    +0.000 A 
ATOM     24 CL   UNL     1       3.711   2.397  20.004  0.00  0.00    +0.000 Cl
ATOM     25  C   UNL     1       3.750   4.515  18.333  0.00  0.00    +0.000 A 
ATOM     26  C   UNL     1       3.424   5.824  17.963  0.00  0.00    +0.000 A 
ENDBRANCH  18  20
ENDBRANCH   2  15
TORSDOF 3
ENDMDL
MODEL 5
REMARK VINA RESULT:      -7.8      1.778      2.163
REMARK  Name = 
REMARK  4 active torsions:
REMARK  status: ('A' for Active; 'I' for Inactive)
REMARK    1  A    between atoms: C_1  and  C_2
REMARK    2  A    between atoms: C_2  and  C_3
REMARK    3  A    between atoms: C_6  and  C_7
REMARK    4  A    between atoms: C_16  and  C_17
REMARK                            x       y       z     vdW  Elec       q    Type
REMARK                         _______ _______ _______ _____ _____    ______ ____
ROOT
ATOM      1  C   UNL     1       0.891  10.798  21.117  0.00  0.00    +0.000 C 
ATOM      2  C   UNL     1       0.573  10.023  19.841  0.00  0.00    +0.000 C 
ATOM      3  C   UNL     1      -0.912   9.791  19.638  0.00  0.00    +0.000 C 
ATOM      4  C   UNL     1      -1.236  10.973  18.789  0.00  0.00    +0.000 C 
ATOM      5  N   UNL     1      -0.195  11.515  18.238  0.00  0.00    +0.000 NA
ATOM      6  O   UNL     1       0.950  10.804  18.692  0.00  0.00    +0.000 OA
ENDROOT
BRANCH   4   7
ATOM      7  C   UNL     1      -2.632  11.457  18.573  0.00  0.00    +0.000 A 
ATOM      8  C   UNL     1      -3.305  11.162  17.369  0.00  0.00    +0.000 A 
ATOM      9 CL   UNL     1      -2.556  10.385  16.013  0.00  0.00    +0.000 Cl
ATOM     10  C   UNL     1      -4.641  11.551  17.173  0.00  0.00    +0.000 A 
ATOM     11  C   UNL     1      -5.325  12.254  18.158  0.00  0.00    +0.000 A 
ATOM     12  C   UNL     1      -4.668  12.578  19.337  0.00  0.00    +0.000 A 
ATOM     13  C   UNL     1      -3.337  12.186  19.552  0.00  0.00    +0.000 A 
ATOM     14 CL   UNL     1      -2.705  12.638  21.096  0.00  0.00    +0.000 Cl
ENDBRANCH   4   7
BRANCH   2  15
ATOM     15  C   UNL     1       1.318   8.732  19.821  0.00  0.00    +0.000 A 
ATOM     16  N   UNL     1       1.398   7.822  20.774  0.00  0.00    +0.000 NA
ATOM     17  N   UNL     1       2.192   6.811  20.284  0.00  0.00    +0.000 NA
ATOM     18  C   UNL     1       2.559   7.173  19.072  0.00  0.00    +0.000 A 
ATOM     19  O   UNL     1       2.051   8.396  18.712  0.00  0.00    +0.000 OA
BRANCH  18  20
ATOM     20  C   UNL     1       3.391   6.469  18.102  0.00  0.00    +0.000 A 
ATOM     21  C   UNL     1       3.359   5.064  18.051  0.00  0.00    +0.000 A 
ATOM     22  C   UNL     1       4.135   4.362  17.123  0.00  0.00    +0.000 A 
ATOM     23  C   UNL     1       4.949   5.061  16.238  0.00  0.00    +0.000 A 
ATOM     24 CL   UNL     1       5.897   4.202  15.086  0.00  0.00    +0.000 Cl
ATOM     25  C   UNL     1       5.000   6.452  16.275  0.00  0.00    +0.000 A 
ATOM     26  C   UNL     1       4.223   7.153  17.204  0.00  0.00    +0.000 A 
ENDBRANCH  18  20
ENDBRANCH   2  15
TORSDOF 3
ENDMDL
MODEL 6
REMARK VINA RESULT:      -7.7      3.490      4.267
REMARK  Name = 
REMARK  4 active torsions:
REMARK  status: ('A' for Active; 'I' for Inactive)
REMARK    1  A    between atoms: C_1  and  C_2
REMARK    2  A    between atoms: C_2  and  C_3
REMARK    3  A    between atoms: C_6  and  C_7
REMARK    4  A    between atoms: C_16  and  C_17
REMARK                            x       y       z     vdW  Elec       q    Type
REMARK                         _______ _______ _______ _____ _____    ______ ____
ROOT
ATOM      1  C   UNL     1      -0.537   8.266  21.605  0.00  0.00    +0.000 C 
ATOM      2  C   UNL     1       0.776   8.661  20.935  0.00  0.00    +0.000 C 
ATOM      3  C   UNL     1       0.594   9.657  19.805  0.00  0.00    +0.000 C 
ATOM      4  C   UNL     1       0.801  10.928  20.557  0.00  0.00    +0.000 C 
ATOM      5  N   UNL     1       1.395  10.763  21.697  0.00  0.00    +0.000 NA
ATOM      6  O   UNL     1       1.607   9.368  21.874  0.00  0.00    +0.000 OA
ENDROOT
BRANCH   4   7
ATOM      7  C   UNL     1       0.391  12.260  20.023  0.00  0.00    +0.000 A 
ATOM      8  C   UNL     1      -0.737  12.921  20.555  0.00  0.00    +0.000 A 
ATOM      9 CL   UNL     1      -1.810  12.209  21.715  0.00  0.00    +0.000 Cl
ATOM     10  C   UNL     1      -1.100  14.204  20.111  0.00  0.00    +0.000 A 
ATOM     11  C   UNL     1      -0.363  14.845  19.123  0.00  0.00    +0.000 A 
ATOM     12  C   UNL     1       0.732  14.198  18.569  0.00  0.00    +0.000 A 
ATOM     13  C   UNL     1       1.114  12.921  19.009  0.00  0.00    +0.000 A 
ATOM     14 CL   UNL     1       2.529  12.297  18.237  0.00  0.00    +0.000 Cl
ENDBRANCH   4   7
BRANCH   2  15
ATOM     15  C   UNL     1       1.499   7.448  20.458  0.00  0.00    +0.000 A 
ATOM     16  N   UNL     1       1.531   6.249  21.010  0.00  0.00    +0.000 NA
ATOM     17  N   UNL     1       2.325   5.467  20.203  0.00  0.00    +0.000 NA
ATOM     18  C   UNL     1       2.740   6.240  19.220  0.00  0.00    +0.000 A 
ATOM     19  O   UNL     1       2.266   7.524  19.324  0.00  0.00    +0.000 OA
BRANCH  18  20
ATOM     20  C   UNL     1       3.594   5.920  18.081  0.00  0.00    +0.000 A 
ATOM     21  C   UNL     1       4.220   6.958  17.370  0.00  0.00    +0.000 A 
ATOM     22  C   UNL     1       5.056   6.682  16.283  0.00  0.00    +0.000 A 
ATOM     23  C   UNL     1       5.271   5.362  15.899  0.00  0.00    +0.000 A 
ATOM     24 CL   UNL     1       6.307   5.016  14.569  0.00  0.00    +0.000 Cl
ATOM     25  C   UNL     1       4.656   4.319  16.585  0.00  0.00    +0.000 A 
ATOM     26  C   UNL     1       3.820   4.597  17.673  0.00  0.00    +0.000 A 
ENDBRANCH  18  20
ENDBRANCH   2  15
TORSDOF 3
ENDMDL
MODEL 7
REMARK VINA RESULT:      -7.7      3.205      3.673
REMARK  Name = 
REMARK  4 active torsions:
REMARK  status: ('A' for Active; 'I' for Inactive)
REMARK    1  A    between atoms: C_1  and  C_2
REMARK    2  A    between atoms: C_2  and  C_3
REMARK    3  A    between atoms: C_6  and  C_7
REMARK    4  A    between atoms: C_16  and  C_17
REMARK                            x       y       z     vdW  Elec       q    Type
REMARK                         _______ _______ _______ _____ _____    ______ ____
ROOT
ATOM      1  C   UNL     1       1.878  10.971  18.073  0.00  0.00    +0.000 C 
ATOM      2  C   UNL     1       1.102  10.083  19.042  0.00  0.00    +0.000 C 
ATOM      3  C   UNL     1       0.940  10.699  20.418  0.00  0.00    +0.000 C 
ATOM      4  C   UNL     1      -0.384  11.361  20.242  0.00  0.00    +0.000 C 
ATOM      5  N   UNL     1      -1.059  10.906  19.234  0.00  0.00    +0.000 NA
ATOM      6  O   UNL     1      -0.254   9.932  18.581  0.00  0.00    +0.000 OA
ENDROOT
BRANCH   4   7
ATOM      7  C   UNL     1      -0.889  12.420  21.164  0.00  0.00    +0.000 A 
ATOM      8  C   UNL     1      -1.025  13.749  20.712  0.00  0.00    +0.000 A 
ATOM      9 CL   UNL     1      -0.486  14.296  19.158  0.00  0.00    +0.000 Cl
ATOM     10  C   UNL     1      -1.560  14.746  21.545  0.00  0.00    +0.000 A 
ATOM     11  C   UNL     1      -1.953  14.448  22.843  0.00  0.00    +0.000 A 
ATOM     12  C   UNL     1      -1.799  13.151  23.315  0.00  0.00    +0.000 A 
ATOM     13  C   UNL     1      -1.276  12.142  22.491  0.00  0.00    +0.000 A 
ATOM     14 CL   UNL     1      -1.205  10.583  23.236  0.00  0.00    +0.000 Cl
ENDBRANCH   4   7
BRANCH   2  15
ATOM     15  C   UNL     1       1.739   8.739  19.136  0.00  0.00    +0.000 A 
ATOM     16  N   UNL     1       1.728   7.900  20.156  0.00  0.00    +0.000 NA
ATOM     17  N   UNL     1       2.446   6.795  19.763  0.00  0.00    +0.000 NA
ATOM     18  C   UNL     1       2.864   7.034  18.536  0.00  0.00    +0.000 A 
ATOM     19  O   UNL     1       2.465   8.262  18.074  0.00  0.00    +0.000 OA
BRANCH  18  20
ATOM     20  C   UNL     1       3.655   6.194  17.643  0.00  0.00    +0.000 A 
ATOM     21  C   UNL     1       4.599   6.788  16.788  0.00  0.00    +0.000 A 
ATOM     22  C   UNL     1       5.382   6.008  15.931  0.00  0.00    +0.000 A 
ATOM     23  C   UNL     1       5.225   4.626  15.922  0.00  0.00    +0.000 A 
ATOM     24 CL   UNL     1       6.194   3.661  14.877  0.00  0.00    +0.000 Cl
ATOM     25  C   UNL     1       4.290   4.018  16.756  0.00  0.00    +0.000 A 
ATOM     26  C   UNL     1       3.508   4.799  17.614  0.00  0.00    +0.000 A 
ENDBRANCH  18  20
ENDBRANCH   2  15
TORSDOF 3
ENDMDL
MODEL 8
REMARK VINA RESULT:      -7.6      3.502      4.034
REMARK  Name = 
REMARK  4 active torsions:
REMARK  status: ('A' for Active; 'I' for Inactive)
REMARK    1  A    between atoms: C_1  and  C_2
REMARK    2  A    between atoms: C_2  and  C_3
REMARK    3  A    between atoms: C_6  and  C_7
REMARK    4  A    between atoms: C_16  and  C_17
REMARK                            x       y       z     vdW  Elec       q    Type
REMARK                         _______ _______ _______ _____ _____    ______ ____
ROOT
ATOM      1  C   UNL     1      -0.516   8.222  21.623  0.00  0.00    +0.000 C 
ATOM      2  C   UNL     1       0.791   8.629  20.948  0.00  0.00    +0.000 C 
ATOM      3  C   UNL     1       0.599   9.638  19.832  0.00  0.00    +0.000 C 
ATOM      4  C   UNL     1       0.808  10.900  20.598  0.00  0.00    +0.000 C 
ATOM      5  N   UNL     1       1.412  10.723  21.731  0.00  0.00    +0.000 NA
ATOM      6  O   UNL     1       1.628   9.326  21.889  0.00  0.00    +0.000 OA
ENDROOT
BRANCH   4   7
ATOM      7  C   UNL     1       0.391  12.238  20.084  0.00  0.00    +0.000 A 
ATOM      8  C   UNL     1       1.066  12.819  18.990  0.00  0.00    +0.000 A 
ATOM      9 CL   UNL     1       2.491  12.143  18.269  0.00  0.00    +0.000 Cl
ATOM     10  C   UNL     1       0.647  14.047  18.450  0.00  0.00    +0.000 A 
ATOM     11  C   UNL     1      -0.434  14.727  18.996  0.00  0.00    +0.000 A 
ATOM     12  C   UNL     1      -1.092  14.184  20.092  0.00  0.00    +0.000 A 
ATOM     13  C   UNL     1      -0.692  12.953  20.635  0.00  0.00    +0.000 A 
ATOM     14 CL   UNL     1      -1.659  12.416  21.963  0.00  0.00    +0.000 Cl
ENDBRANCH   4   7
BRANCH   2  15
ATOM     15  C   UNL     1       1.513   7.423  20.451  0.00  0.00    +0.000 A 
ATOM     16  N   UNL     1       1.530   6.210  20.972  0.00  0.00    +0.000 NA
ATOM     17  N   UNL     1       2.330   5.444  20.156  0.00  0.00    +0.000 NA
ATOM     18  C   UNL     1       2.764   6.239  19.199  0.00  0.00    +0.000 A 
ATOM     19  O   UNL     1       2.297   7.522  19.329  0.00  0.00    +0.000 OA
BRANCH  18  20
ATOM     20  C   UNL     1       3.632   5.942  18.065  0.00  0.00    +0.000 A 
ATOM     21  C   UNL     1       3.830   4.606  17.674  0.00  0.00    +0.000 A 
ATOM     22  C   UNL     1       4.645   4.291  16.582  0.00  0.00    +0.000 A 
ATOM     23  C   UNL     1       5.268   5.312  15.871  0.00  0.00    +0.000 A 
ATOM     24 CL   UNL     1       6.263   4.930  14.520  0.00  0.00    +0.000 Cl
ATOM     25  C   UNL     1       5.091   6.641  16.246  0.00  0.00    +0.000 A 
ATOM     26  C   UNL     1       4.275   6.955  17.338  0.00  0.00    +0.000 A 
ENDBRANCH  18  20
ENDBRANCH   2  15
TORSDOF 3
ENDMDL
MODEL 9
REMARK VINA RESULT:      -7.6      3.235      4.011
REMARK  Name = 
REMARK  4 active torsions:
REMARK  status: ('A' for Active; 'I' for Inactive)
REMARK    1  A    between atoms: C_1  and  C_2
REMARK    2  A    between atoms: C_2  and  C_3
REMARK    3  A    between atoms: C_6  and  C_7
REMARK    4  A    between atoms: C_16  and  C_17
REMARK                            x       y       z     vdW  Elec       q    Type
REMARK                         _______ _______ _______ _____ _____    ______ ____
ROOT
ATOM      1  C   UNL     1       1.911  10.963  18.076  0.00  0.00    +0.000 C 
ATOM      2  C   UNL     1       1.132  10.094  19.060  0.00  0.00    +0.000 C 
ATOM      3  C   UNL     1       1.000  10.720  20.435  0.00  0.00    +0.000 C 
ATOM      4  C   UNL     1      -0.315  11.404  20.273  0.00  0.00    +0.000 C 
ATOM      5  N   UNL     1      -1.011  10.955  19.276  0.00  0.00    +0.000 NA
ATOM      6  O   UNL     1      -0.232   9.964  18.618  0.00  0.00    +0.000 OA
ENDROOT
BRANCH   4   7
ATOM      7  C   UNL     1      -0.789  12.476  21.197  0.00  0.00    +0.000 A 
ATOM      8  C   UNL     1      -1.098  12.170  22.539  0.00  0.00    +0.000 A 
ATOM      9 CL   UNL     1      -1.116  10.559  23.179  0.00  0.00    +0.000 Cl
ATOM     10  C   UNL     1      -1.484  13.176  23.441  0.00  0.00    +0.000 A 
ATOM     11  C   UNL     1      -1.586  14.498  23.024  0.00  0.00    +0.000 A 
ATOM     12  C   UNL     1      -1.314  14.812  21.700  0.00  0.00    +0.000 A 
ATOM     13  C   UNL     1      -0.917  13.820  20.790  0.00  0.00    +0.000 A 
ATOM     14 CL   UNL     1      -0.576  14.408  19.201  0.00  0.00    +0.000 Cl
ENDBRANCH   4   7
BRANCH   2  15
ATOM     15  C   UNL     1       1.748   8.740  19.153  0.00  0.00    +0.000 A 
ATOM     16  N   UNL     1       1.680   7.880  20.153  0.00  0.00    +0.000 NA
ATOM     17  N   UNL     1       2.401   6.773  19.767  0.00  0.00    +0.000 NA
ATOM     18  C   UNL     1       2.875   7.032  18.565  0.00  0.00    +0.000 A 
ATOM     19  O   UNL     1       2.513   8.276  18.113  0.00  0.00    +0.000 OA
BRANCH  18  20
ATOM     20  C   UNL     1       3.693   6.200  17.689  0.00  0.00    +0.000 A 
ATOM     21  C   UNL     1       3.497   4.808  17.672  0.00  0.00    +0.000 A 
ATOM     22  C   UNL     1       4.256   3.987  16.832  0.00  0.00    +0.000 A 
ATOM     23  C   UNL     1       5.218   4.553  16.001  0.00  0.00    +0.000 A 
ATOM     24 CL   UNL     1       6.147   3.548  14.958  0.00  0.00    +0.000 Cl
ATOM     25  C   UNL     1       5.433   5.929  16.007  0.00  0.00    +0.000 A 
ATOM     26  C   UNL     1       4.672   6.750  16.847  0.00  0.00    +0.000 A 
ENDBRANCH  18  20
ENDBRANCH   2  15
TORSDOF 3
ENDMDL
