MODEL 1
REMARK VINA RESULT:      -8.4      0.000      0.000
REMARK  Name = 
REMARK  7 active torsions:
REMARK  status: ('A' for Active; 'I' for Inactive)
REMARK    1  A    between atoms: C_2  and  C_24
REMARK    2  A    between atoms: N_3  and  N_4
REMARK    3  A    between atoms: C_5  and  C_6
REMARK    4  A    between atoms: C_10  and  O_11
REMARK    5  A    between atoms: O_11  and  C_12
REMARK    6  A    between atoms: C_12  and  C_14
REMARK    7  A    between atoms: C_17  and  N_18
REMARK                            x       y       z     vdW  Elec       q    Type
REMARK                         _______ _______ _______ _____ _____    ______ ____
ROOT
ATOM      1  C   UNL     1       6.925   5.705  17.480  0.00  0.00    +0.000 A 
ATOM      2  C   UNL     1       7.031   5.601  16.089  0.00  0.00    +0.000 A 
ATOM      3  C   UNL     1       6.197   4.724  15.393  0.00  0.00    +0.000 A 
ATOM      4  C   UNL     1       5.241   3.969  16.080  0.00  0.00    +0.000 A 
ATOM      5  C   UNL     1       5.129   4.091  17.467  0.00  0.00    +0.000 A 
ATOM      6  C   UNL     1       5.997   4.928  18.176  0.00  0.00    +0.000 A 
ENDROOT
BRANCH   1   8
ATOM      7  N   UNL     1       7.920   7.878  17.841  0.00  0.00    +0.000 NA
ATOM      8  C   UNL     1       7.766   6.656  18.238  0.00  0.00    +0.000 C 
BRANCH   7  11
ATOM      9  O   UNL     1       8.039  10.609  17.503  0.00  0.00    +0.000 OA
ATOM     10  C   UNL     1       8.714  10.046  18.360  0.00  0.00    +0.000 C 
ATOM     11  N   UNL     1       8.704   8.680  18.617  0.00  0.00    +0.000 N 
ATOM     12  H   UNL     1       9.170   8.282  19.426  0.00  0.00    +0.000 HD
BRANCH  10  13
ATOM     13  C   UNL     1       9.588  10.876  19.219  0.00  0.00    +0.000 A 
ATOM     14  C   UNL     1      10.867  11.217  18.770  0.00  0.00    +0.000 A 
ATOM     15  C   UNL     1      11.709  11.963  19.591  0.00  0.00    +0.000 A 
ATOM     16  C   UNL     1      11.241  12.340  20.840  0.00  0.00    +0.000 A 
ATOM     17  N   UNL     1      10.012  12.022  21.309  0.00  0.00    +0.000 NA
ATOM     18  C   UNL     1       9.218  11.284  20.493  0.00  0.00    +0.000 A 
ENDBRANCH  10  13
ENDBRANCH   7  11
ENDBRANCH   1   8
BRANCH   5  19
ATOM     19  O   UNL     1       4.134   3.306  18.098  0.00  0.00    +0.000 OA
BRANCH  19  20
ATOM     20  C   UNL     1       2.805   3.662  17.922  0.00  0.00    +0.000 C 
ATOM     21  O   UNL     1       1.982   3.093  17.217  0.00  0.00    +0.000 OA
BRANCH  20  22
ATOM     22  C   UNL     1       2.434   4.875  18.705  0.00  0.00    +0.000 A 
ATOM     23  C   UNL     1       2.543   6.111  18.045  0.00  0.00    +0.000 A 
ATOM     24  C   UNL     1       2.228   7.307  18.695  0.00  0.00    +0.000 A 
ATOM     25  C   UNL     1       1.798   7.271  20.023  0.00  0.00    +0.000 A 
ATOM     26  C   UNL     1       1.674   6.045  20.696  0.00  0.00    +0.000 A 
ATOM     27  C   UNL     1       1.994   4.846  20.037  0.00  0.00    +0.000 A 
BRANCH  25  28
ATOM     28  N   UNL     1       1.477   8.529  20.713  0.00  0.00    +0.000 N 
ATOM     29  O   UNL     1       1.164   9.504  20.016  0.00  0.00    +0.000 OA
ATOM     30  O   UNL     1       1.543   8.539  21.948  0.00  0.00    +0.000 OA
ENDBRANCH  25  28
ENDBRANCH  20  22
ENDBRANCH  19  20
ENDBRANCH   5  19
TORSDOF 7
ENDMDL
MODEL 2
REMARK VINA RESULT:      -8.2      1.726      2.298
REMARK  Name = 
REMARK  7 active torsions:
REMARK  status: ('A' for Active; 'I' for Inactive)
REMARK    1  A    between atoms: C_2  and  C_24
REMARK    2  A    between atoms: N_3  and  N_4
REMARK    3  A    between atoms: C_5  and  C_6
REMARK    4  A    between atoms: C_10  and  O_11
REMARK    5  A    between atoms: O_11  and  C_12
REMARK    6  A    between atoms: C_12  and  C_14
REMARK    7  A    between atoms: C_17  and  N_18
REMARK                            x       y       z     vdW  Elec       q    Type
REMARK                         _______ _______ _______ _____ _____    ______ ____
ROOT
ATOM      1  C   UNL     1       7.158   7.189  17.816  0.00  0.00    +0.000 A 
ATOM      2  C   UNL     1       7.768   6.266  18.671  0.00  0.00    +0.000 A 
ATOM      3  C   UNL     1       7.144   5.045  18.933  0.00  0.00    +0.000 A 
ATOM      4  C   UNL     1       5.925   4.733  18.321  0.00  0.00    +0.000 A 
ATOM      5  C   UNL     1       5.331   5.653  17.455  0.00  0.00    +0.000 A 
ATOM      6  C   UNL     1       5.923   6.900  17.232  0.00  0.00    +0.000 A 
ENDROOT
BRANCH   1   8
ATOM      7  N   UNL     1       8.510   9.115  18.373  0.00  0.00    +0.000 NA
ATOM      8  C   UNL     1       7.816   8.474  17.489  0.00  0.00    +0.000 C 
BRANCH   7  11
ATOM      9  O   UNL     1       9.622  10.907  20.143  0.00  0.00    +0.000 OA
ATOM     10  C   UNL     1       9.605  11.135  18.936  0.00  0.00    +0.000 C 
ATOM     11  N   UNL     1       9.087  10.282  17.969  0.00  0.00    +0.000 N 
ATOM     12  H   UNL     1       9.224  10.448  16.978  0.00  0.00    +0.000 HD
BRANCH  10  13
ATOM     13  C   UNL     1      10.212  12.395  18.454  0.00  0.00    +0.000 A 
ATOM     14  C   UNL     1      11.335  12.342  17.622  0.00  0.00    +0.000 A 
ATOM     15  C   UNL     1      11.934  13.526  17.200  0.00  0.00    +0.000 A 
ATOM     16  C   UNL     1      11.391  14.726  17.628  0.00  0.00    +0.000 A 
ATOM     17  N   UNL     1      10.310  14.814  18.438  0.00  0.00    +0.000 NA
ATOM     18  C   UNL     1       9.754  13.645  18.845  0.00  0.00    +0.000 A 
ENDBRANCH  10  13
ENDBRANCH   7  11
ENDBRANCH   1   8
BRANCH   5  19
ATOM     19  O   UNL     1       4.103   5.270  16.863  0.00  0.00    +0.000 OA
BRANCH  19  20
ATOM     20  C   UNL     1       3.051   4.920  17.697  0.00  0.00    +0.000 C 
ATOM     21  O   UNL     1       2.531   3.817  17.795  0.00  0.00    +0.000 OA
BRANCH  20  22
ATOM     22  C   UNL     1       2.568   6.070  18.513  0.00  0.00    +0.000 A 
ATOM     23  C   UNL     1       2.258   5.804  19.859  0.00  0.00    +0.000 A 
ATOM     24  C   UNL     1       1.789   6.812  20.705  0.00  0.00    +0.000 A 
ATOM     25  C   UNL     1       1.625   8.105  20.203  0.00  0.00    +0.000 A 
ATOM     26  C   UNL     1       1.938   8.392  18.865  0.00  0.00    +0.000 A 
ATOM     27  C   UNL     1       2.408   7.373  18.019  0.00  0.00    +0.000 A 
BRANCH  25  28
ATOM     28  N   UNL     1       1.120   9.164  21.087  0.00  0.00    +0.000 N 
ATOM     29  O   UNL     1       0.581  10.147  20.560  0.00  0.00    +0.000 OA
ATOM     30  O   UNL     1       1.268   9.013  22.306  0.00  0.00    +0.000 OA
ENDBRANCH  25  28
ENDBRANCH  20  22
ENDBRANCH  19  20
ENDBRANCH   5  19
TORSDOF 7
ENDMDL
MODEL 3
REMARK VINA RESULT:      -8.1      0.820      1.049
REMARK  Name = 
REMARK  7 active torsions:
REMARK  status: ('A' for Active; 'I' for Inactive)
REMARK    1  A    between atoms: C_2  and  C_24
REMARK    2  A    between atoms: N_3  and  N_4
REMARK    3  A    between atoms: C_5  and  C_6
REMARK    4  A    between atoms: C_10  and  O_11
REMARK    5  A    between atoms: O_11  and  C_12
REMARK    6  A    between atoms: C_12  and  C_14
REMARK    7  A    between atoms: C_17  and  N_18
REMARK                            x       y       z     vdW  Elec       q    Type
REMARK                         _______ _______ _______ _____ _____    ______ ____
ROOT
ATOM      1  C   UNL     1       6.921   5.795  16.745  0.00  0.00    +0.000 A 
ATOM      2  C   UNL     1       6.868   5.483  15.383  0.00  0.00    +0.000 A 
ATOM      3  C   UNL     1       5.972   4.514  14.927  0.00  0.00    +0.000 A 
ATOM      4  C   UNL     1       5.111   3.875  15.825  0.00  0.00    +0.000 A 
ATOM      5  C   UNL     1       5.157   4.205  17.182  0.00  0.00    +0.000 A 
ATOM      6  C   UNL     1       6.089   5.135  17.652  0.00  0.00    +0.000 A 
ENDROOT
BRANCH   1   8
ATOM      7  N   UNL     1       7.802   7.217  18.490  0.00  0.00    +0.000 NA
ATOM      8  C   UNL     1       7.831   6.847  17.251  0.00  0.00    +0.000 C 
BRANCH   7  11
ATOM      9  O   UNL     1       7.558   9.840  17.685  0.00  0.00    +0.000 OA
ATOM     10  C   UNL     1       8.497   9.477  18.389  0.00  0.00    +0.000 C 
ATOM     11  N   UNL     1       8.691   8.184  18.860  0.00  0.00    +0.000 N 
ATOM     12  H   UNL     1       9.399   7.964  19.552  0.00  0.00    +0.000 HD
BRANCH  10  13
ATOM     13  C   UNL     1       9.491  10.490  18.807  0.00  0.00    +0.000 A 
ATOM     14  C   UNL     1       9.646  10.781  20.165  0.00  0.00    +0.000 A 
ATOM     15  C   UNL     1      10.550  11.764  20.560  0.00  0.00    +0.000 A 
ATOM     16  C   UNL     1      11.269  12.427  19.579  0.00  0.00    +0.000 A 
ATOM     17  N   UNL     1      11.139  12.176  18.255  0.00  0.00    +0.000 NA
ATOM     18  C   UNL     1      10.242  11.223  17.898  0.00  0.00    +0.000 A 
ENDBRANCH  10  13
ENDBRANCH   7  11
ENDBRANCH   1   8
BRANCH   5  19
ATOM     19  O   UNL     1       4.252   3.527  18.034  0.00  0.00    +0.000 OA
BRANCH  19  20
ATOM     20  C   UNL     1       2.898   3.803  17.909  0.00  0.00    +0.000 C 
ATOM     21  O   UNL     1       2.086   3.189  17.230  0.00  0.00    +0.000 OA
BRANCH  20  22
ATOM     22  C   UNL     1       2.485   4.988  18.712  0.00  0.00    +0.000 A 
ATOM     23  C   UNL     1       2.659   6.249  18.114  0.00  0.00    +0.000 A 
ATOM     24  C   UNL     1       2.310   7.422  18.789  0.00  0.00    +0.000 A 
ATOM     25  C   UNL     1       1.781   7.338  20.079  0.00  0.00    +0.000 A 
ATOM     26  C   UNL     1       1.591   6.088  20.688  0.00  0.00    +0.000 A 
ATOM     27  C   UNL     1       1.946   4.912  20.005  0.00  0.00    +0.000 A 
BRANCH  25  28
ATOM     28  N   UNL     1       1.425   8.571  20.794  0.00  0.00    +0.000 N 
ATOM     29  O   UNL     1       0.966   9.511  20.130  0.00  0.00    +0.000 OA
ATOM     30  O   UNL     1       1.608   8.599  22.017  0.00  0.00    +0.000 OA
ENDBRANCH  25  28
ENDBRANCH  20  22
ENDBRANCH  19  20
ENDBRANCH   5  19
TORSDOF 7
ENDMDL
MODEL 4
REMARK VINA RESULT:      -8.1      1.687      2.154
REMARK  Name = 
REMARK  7 active torsions:
REMARK  status: ('A' for Active; 'I' for Inactive)
REMARK    1  A    between atoms: C_2  and  C_24
REMARK    2  A    between atoms: N_3  and  N_4
REMARK    3  A    between atoms: C_5  and  C_6
REMARK    4  A    between atoms: C_10  and  O_11
REMARK    5  A    between atoms: O_11  and  C_12
REMARK    6  A    between atoms: C_12  and  C_14
REMARK    7  A    between atoms: C_17  and  N_18
REMARK                            x       y       z     vdW  Elec       q    Type
REMARK                         _______ _______ _______ _____ _____    ______ ____
ROOT
ATOM      1  C   UNL     1       6.780   6.234  17.367  0.00  0.00    +0.000 A 
ATOM      2  C   UNL     1       7.065   5.344  16.328  0.00  0.00    +0.000 A 
ATOM      3  C   UNL     1       6.053   4.533  15.810  0.00  0.00    +0.000 A 
ATOM      4  C   UNL     1       4.751   4.628  16.312  0.00  0.00    +0.000 A 
ATOM      5  C   UNL     1       4.469   5.533  17.338  0.00  0.00    +0.000 A 
ATOM      6  C   UNL     1       5.490   6.308  17.897  0.00  0.00    +0.000 A 
ENDROOT
BRANCH   1   8
ATOM      7  N   UNL     1       7.724   8.419  17.790  0.00  0.00    +0.000 NA
ATOM      8  C   UNL     1       7.822   7.134  17.907  0.00  0.00    +0.000 C 
BRANCH   7  11
ATOM      9  O   UNL     1       7.952  11.131  17.373  0.00  0.00    +0.000 OA
ATOM     10  C   UNL     1       8.775  10.522  18.051  0.00  0.00    +0.000 C 
ATOM     11  N   UNL     1       8.730   9.162  18.333  0.00  0.00    +0.000 N 
ATOM     12  H   UNL     1       9.351   8.733  19.010  0.00  0.00    +0.000 HD
BRANCH  10  13
ATOM     13  C   UNL     1       9.890  11.287  18.651  0.00  0.00    +0.000 A 
ATOM     14  C   UNL     1      10.043  11.302  20.041  0.00  0.00    +0.000 A 
ATOM     15  C   UNL     1      11.066  12.054  20.613  0.00  0.00    +0.000 A 
ATOM     16  C   UNL     1      11.902  12.772  19.773  0.00  0.00    +0.000 A 
ATOM     17  N   UNL     1      11.779  12.786  18.425  0.00  0.00    +0.000 NA
ATOM     18  C   UNL     1      10.766  12.054  17.896  0.00  0.00    +0.000 A 
ENDBRANCH  10  13
ENDBRANCH   7  11
ENDBRANCH   1   8
BRANCH   5  19
ATOM     19  O   UNL     1       3.129   5.585  17.793  0.00  0.00    +0.000 OA
BRANCH  19  20
ATOM     20  C   UNL     1       2.897   5.913  19.120  0.00  0.00    +0.000 C 
ATOM     21  O   UNL     1       3.175   5.235  20.101  0.00  0.00    +0.000 OA
BRANCH  20  22
ATOM     22  C   UNL     1       2.232   7.239  19.268  0.00  0.00    +0.000 A 
ATOM     23  C   UNL     1       2.165   8.044  18.118  0.00  0.00    +0.000 A 
ATOM     24  C   UNL     1       1.570   9.308  18.156  0.00  0.00    +0.000 A 
ATOM     25  C   UNL     1       1.035   9.777  19.357  0.00  0.00    +0.000 A 
ATOM     26  C   UNL     1       1.085   8.983  20.514  0.00  0.00    +0.000 A 
ATOM     27  C   UNL     1       1.686   7.714  20.470  0.00  0.00    +0.000 A 
BRANCH  25  28
ATOM     28  N   UNL     1       0.419  11.111  19.402  0.00  0.00    +0.000 N 
ATOM     29  O   UNL     1       0.872  11.979  18.644  0.00  0.00    +0.000 OA
ATOM     30  O   UNL     1      -0.512  11.287  20.197  0.00  0.00    +0.000 OA
ENDBRANCH  25  28
ENDBRANCH  20  22
ENDBRANCH  19  20
ENDBRANCH   5  19
TORSDOF 7
ENDMDL
MODEL 5
REMARK VINA RESULT:      -8.1      4.666      8.114
REMARK  Name = 
REMARK  7 active torsions:
REMARK  status: ('A' for Active; 'I' for Inactive)
REMARK    1  A    between atoms: C_2  and  C_24
REMARK    2  A    between atoms: N_3  and  N_4
REMARK    3  A    between atoms: C_5  and  C_6
REMARK    4  A    between atoms: C_10  and  O_11
REMARK    5  A    between atoms: O_11  and  C_12
REMARK    6  A    between atoms: C_12  and  C_14
REMARK    7  A    between atoms: C_17  and  N_18
REMARK                            x       y       z     vdW  Elec       q    Type
REMARK                         _______ _______ _______ _____ _____    ______ ____
ROOT
ATOM      1  C   UNL     1       2.020   5.895  20.225  0.00  0.00    +0.000 A 
ATOM      2  C   UNL     1       1.049   4.990  20.663  0.00  0.00    +0.000 A 
ATOM      3  C   UNL     1       1.299   3.618  20.600  0.00  0.00    +0.000 A 
ATOM      4  C   UNL     1       2.527   3.149  20.123  0.00  0.00    +0.000 A 
ATOM      5  C   UNL     1       3.499   4.060  19.703  0.00  0.00    +0.000 A 
ATOM      6  C   UNL     1       3.234   5.433  19.713  0.00  0.00    +0.000 A 
ENDROOT
BRANCH   1   8
ATOM      7  N   UNL     1       1.029   7.858  21.229  0.00  0.00    +0.000 NA
ATOM      8  C   UNL     1       1.798   7.355  20.319  0.00  0.00    +0.000 C 
BRANCH   7  11
ATOM      9  O   UNL     1      -0.818   9.157  22.806  0.00  0.00    +0.000 OA
ATOM     10  C   UNL     1      -0.073   9.782  22.054  0.00  0.00    +0.000 C 
ATOM     11  N   UNL     1       0.900   9.216  21.240  0.00  0.00    +0.000 N 
ATOM     12  H   UNL     1       1.583   9.780  20.746  0.00  0.00    +0.000 HD
BRANCH  10  13
ATOM     13  C   UNL     1      -0.185  11.257  22.027  0.00  0.00    +0.000 A 
ATOM     14  C   UNL     1      -1.054  11.897  22.916  0.00  0.00    +0.000 A 
ATOM     15  C   UNL     1      -1.194  13.281  22.866  0.00  0.00    +0.000 A 
ATOM     16  C   UNL     1      -0.460  13.981  21.922  0.00  0.00    +0.000 A 
ATOM     17  N   UNL     1       0.385  13.394  21.042  0.00  0.00    +0.000 NA
ATOM     18  C   UNL     1       0.492  12.043  21.105  0.00  0.00    +0.000 A 
ENDBRANCH  10  13
ENDBRANCH   7  11
ENDBRANCH   1   8
BRANCH   5  19
ATOM     19  O   UNL     1       4.723   3.518  19.240  0.00  0.00    +0.000 OA
BRANCH  19  20
ATOM     20  C   UNL     1       5.748   4.393  18.913  0.00  0.00    +0.000 C 
ATOM     21  O   UNL     1       6.398   5.082  19.688  0.00  0.00    +0.000 OA
BRANCH  20  22
ATOM     22  C   UNL     1       6.008   4.438  17.446  0.00  0.00    +0.000 A 
ATOM     23  C   UNL     1       7.337   4.666  17.047  0.00  0.00    +0.000 A 
ATOM     24  C   UNL     1       7.683   4.735  15.694  0.00  0.00    +0.000 A 
ATOM     25  C   UNL     1       6.690   4.576  14.726  0.00  0.00    +0.000 A 
ATOM     26  C   UNL     1       5.359   4.338  15.105  0.00  0.00    +0.000 A 
ATOM     27  C   UNL     1       5.018   4.271  16.467  0.00  0.00    +0.000 A 
BRANCH  25  28
ATOM     28  N   UNL     1       7.049   4.660  13.303  0.00  0.00    +0.000 N 
ATOM     29  O   UNL     1       6.552   3.826  12.533  0.00  0.00    +0.000 OA
ATOM     30  O   UNL     1       7.831   5.555  12.960  0.00  0.00    +0.000 OA
ENDBRANCH  25  28
ENDBRANCH  20  22
ENDBRANCH  19  20
ENDBRANCH   5  19
TORSDOF 7
ENDMDL
MODEL 6
REMARK VINA RESULT:      -8.1      2.610      3.575
REMARK  Name = 
REMARK  7 active torsions:
REMARK  status: ('A' for Active; 'I' for Inactive)
REMARK    1  A    between atoms: C_2  and  C_24
REMARK    2  A    between atoms: N_3  and  N_4
REMARK    3  A    between atoms: C_5  and  C_6
REMARK    4  A    between atoms: C_10  and  O_11
REMARK    5  A    between atoms: O_11  and  C_12
REMARK    6  A    between atoms: C_12  and  C_14
REMARK    7  A    between atoms: C_17  and  N_18
REMARK                            x       y       z     vdW  Elec       q    Type
REMARK                         _______ _______ _______ _____ _____    ______ ____
ROOT
ATOM      1  C   UNL     1       7.788   7.481  17.948  0.00  0.00    +0.000 A 
ATOM      2  C   UNL     1       8.210   6.918  19.156  0.00  0.00    +0.000 A 
ATOM      3  C   UNL     1       8.104   5.540  19.354  0.00  0.00    +0.000 A 
ATOM      4  C   UNL     1       7.601   4.721  18.338  0.00  0.00    +0.000 A 
ATOM      5  C   UNL     1       7.198   5.288  17.128  0.00  0.00    +0.000 A 
ATOM      6  C   UNL     1       7.251   6.674  16.943  0.00  0.00    +0.000 A 
ENDROOT
BRANCH   1   8
ATOM      7  N   UNL     1       8.840   9.631  18.287  0.00  0.00    +0.000 NA
ATOM      8  C   UNL     1       7.927   8.932  17.695  0.00  0.00    +0.000 C 
BRANCH   7  11
ATOM      9  O   UNL     1       9.422  11.568  20.157  0.00  0.00    +0.000 OA
ATOM     10  C   UNL     1       9.177  11.865  18.990  0.00  0.00    +0.000 C 
ATOM     11  N   UNL     1       8.894  10.958  17.976  0.00  0.00    +0.000 N 
ATOM     12  H   UNL     1       8.839  11.239  17.003  0.00  0.00    +0.000 HD
BRANCH  10  13
ATOM     13  C   UNL     1       9.214  13.294  18.610  0.00  0.00    +0.000 A 
ATOM     14  C   UNL     1      10.328  13.795  17.929  0.00  0.00    +0.000 A 
ATOM     15  C   UNL     1      10.387  15.148  17.605  0.00  0.00    +0.000 A 
ATOM     16  C   UNL     1       9.327  15.958  17.979  0.00  0.00    +0.000 A 
ATOM     17  N   UNL     1       8.237  15.510  18.645  0.00  0.00    +0.000 NA
ATOM     18  C   UNL     1       8.213  14.190  18.958  0.00  0.00    +0.000 A 
ENDBRANCH  10  13
ENDBRANCH   7  11
ENDBRANCH   1   8
BRANCH   5  19
ATOM     19  O   UNL     1       6.708   4.401  16.139  0.00  0.00    +0.000 OA
BRANCH  19  20
ATOM     20  C   UNL     1       5.406   4.569  15.691  0.00  0.00    +0.000 C 
ATOM     21  O   UNL     1       5.050   4.778  14.539  0.00  0.00    +0.000 OA
BRANCH  20  22
ATOM     22  C   UNL     1       4.410   4.478  16.796  0.00  0.00    +0.000 A 
ATOM     23  C   UNL     1       4.118   3.191  17.278  0.00  0.00    +0.000 A 
ATOM     24  C   UNL     1       3.190   2.998  18.306  0.00  0.00    +0.000 A 
ATOM     25  C   UNL     1       2.544   4.105  18.861  0.00  0.00    +0.000 A 
ATOM     26  C   UNL     1       2.830   5.400  18.398  0.00  0.00    +0.000 A 
ATOM     27  C   UNL     1       3.762   5.586  17.363  0.00  0.00    +0.000 A 
BRANCH  25  28
ATOM     28  N   UNL     1       1.560   3.904  19.934  0.00  0.00    +0.000 N 
ATOM     29  O   UNL     1       0.661   3.074  19.742  0.00  0.00    +0.000 OA
ATOM     30  O   UNL     1       1.687   4.579  20.963  0.00  0.00    +0.000 OA
ENDBRANCH  25  28
ENDBRANCH  20  22
ENDBRANCH  19  20
ENDBRANCH   5  19
TORSDOF 7
ENDMDL
MODEL 7
REMARK VINA RESULT:      -8.0      1.684      2.377
REMARK  Name = 
REMARK  7 active torsions:
REMARK  status: ('A' for Active; 'I' for Inactive)
REMARK    1  A    between atoms: C_2  and  C_24
REMARK    2  A    between atoms: N_3  and  N_4
REMARK    3  A    between atoms: C_5  and  C_6
REMARK    4  A    between atoms: C_10  and  O_11
REMARK    5  A    between atoms: O_11  and  C_12
REMARK    6  A    between atoms: C_12  and  C_14
REMARK    7  A    between atoms: C_17  and  N_18
REMARK                            x       y       z     vdW  Elec       q    Type
REMARK                         _______ _______ _______ _____ _____    ______ ____
ROOT
ATOM      1  C   UNL     1       6.685   6.229  17.335  0.00  0.00    +0.000 A 
ATOM      2  C   UNL     1       6.987   5.395  16.254  0.00  0.00    +0.000 A 
ATOM      3  C   UNL     1       5.995   4.575  15.713  0.00  0.00    +0.000 A 
ATOM      4  C   UNL     1       4.697   4.604  16.233  0.00  0.00    +0.000 A 
ATOM      5  C   UNL     1       4.399   5.453  17.301  0.00  0.00    +0.000 A 
ATOM      6  C   UNL     1       5.401   6.237  17.883  0.00  0.00    +0.000 A 
ENDROOT
BRANCH   1   8
ATOM      7  N   UNL     1       7.772   8.379  17.537  0.00  0.00    +0.000 NA
ATOM      8  C   UNL     1       7.705   7.139  17.902  0.00  0.00    +0.000 C 
BRANCH   7  11
ATOM      9  O   UNL     1       7.837  11.123  17.319  0.00  0.00    +0.000 OA
ATOM     10  C   UNL     1       8.701  10.516  17.947  0.00  0.00    +0.000 C 
ATOM     11  N   UNL     1       8.738   9.139  18.128  0.00  0.00    +0.000 N 
ATOM     12  H   UNL     1       9.388   8.699  18.770  0.00  0.00    +0.000 HD
BRANCH  10  13
ATOM     13  C   UNL     1       9.774  11.301  18.596  0.00  0.00    +0.000 A 
ATOM     14  C   UNL     1       9.964  11.192  19.977  0.00  0.00    +0.000 A 
ATOM     15  C   UNL     1      10.946  11.959  20.599  0.00  0.00    +0.000 A 
ATOM     16  C   UNL     1      11.704  12.815  19.816  0.00  0.00    +0.000 A 
ATOM     17  N   UNL     1      11.542  12.951  18.479  0.00  0.00    +0.000 NA
ATOM     18  C   UNL     1      10.570  12.200  17.901  0.00  0.00    +0.000 A 
ENDBRANCH  10  13
ENDBRANCH   7  11
ENDBRANCH   1   8
BRANCH   5  19
ATOM     19  O   UNL     1       3.064   5.440  17.773  0.00  0.00    +0.000 OA
BRANCH  19  20
ATOM     20  C   UNL     1       2.814   5.912  19.053  0.00  0.00    +0.000 C 
ATOM     21  O   UNL     1       3.020   5.320  20.104  0.00  0.00    +0.000 OA
BRANCH  20  22
ATOM     22  C   UNL     1       2.229   7.282  19.048  0.00  0.00    +0.000 A 
ATOM     23  C   UNL     1       1.709   7.752  20.267  0.00  0.00    +0.000 A 
ATOM     24  C   UNL     1       1.131   9.021  20.364  0.00  0.00    +0.000 A 
ATOM     25  C   UNL     1       1.069   9.833  19.231  0.00  0.00    +0.000 A 
ATOM     26  C   UNL     1       1.591   9.385  18.007  0.00  0.00    +0.000 A 
ATOM     27  C   UNL     1       2.170   8.107  17.915  0.00  0.00    +0.000 A 
BRANCH  25  28
ATOM     28  N   UNL     1       0.451  11.163  19.328  0.00  0.00    +0.000 N 
ATOM     29  O   UNL     1      -0.296  11.381  20.291  0.00  0.00    +0.000 OA
ATOM     30  O   UNL     1       0.711  11.983  18.440  0.00  0.00    +0.000 OA
ENDBRANCH  25  28
ENDBRANCH  20  22
ENDBRANCH  19  20
ENDBRANCH   5  19
TORSDOF 7
ENDMDL
MODEL 8
REMARK VINA RESULT:      -7.9      2.539      7.345
REMARK  Name = 
REMARK  7 active torsions:
REMARK  status: ('A' for Active; 'I' for Inactive)
REMARK    1  A    between atoms: C_2  and  C_24
REMARK    2  A    between atoms: N_3  and  N_4
REMARK    3  A    between atoms: C_5  and  C_6
REMARK    4  A    between atoms: C_10  and  O_11
REMARK    5  A    between atoms: O_11  and  C_12
REMARK    6  A    between atoms: C_12  and  C_14
REMARK    7  A    between atoms: C_17  and  N_18
REMARK                            x       y       z     vdW  Elec       q    Type
REMARK                         _______ _______ _______ _____ _____    ______ ____
ROOT
ATOM      1  C   UNL     1       2.450   4.776  19.496  0.00  0.00    +0.000 A 
ATOM      2  C   UNL     1       1.753   3.715  18.910  0.00  0.00    +0.000 A 
ATOM      3  C   UNL     1       2.449   2.733  18.202  0.00  0.00    +0.000 A 
ATOM      4  C   UNL     1       3.843   2.795  18.100  0.00  0.00    +0.000 A 
ATOM      5  C   UNL     1       4.534   3.849  18.703  0.00  0.00    +0.000 A 
ATOM      6  C   UNL     1       3.838   4.864  19.367  0.00  0.00    +0.000 A 
ENDROOT
BRANCH   1   8
ATOM      7  N   UNL     1       2.136   7.040  20.282  0.00  0.00    +0.000 NA
ATOM      8  C   UNL     1       1.743   5.807  20.286  0.00  0.00    +0.000 C 
BRANCH   7  11
ATOM      9  O   UNL     1       1.039   9.335  19.228  0.00  0.00    +0.000 OA
ATOM     10  C   UNL     1       0.911   9.059  20.418  0.00  0.00    +0.000 C 
ATOM     11  N   UNL     1       1.409   7.917  21.032  0.00  0.00    +0.000 N 
ATOM     12  H   UNL     1       1.157   7.664  21.982  0.00  0.00    +0.000 HD
BRANCH  10  13
ATOM     13  C   UNL     1       0.138   9.988  21.272  0.00  0.00    +0.000 A 
ATOM     14  C   UNL     1      -0.482  11.099  20.692  0.00  0.00    +0.000 A 
ATOM     15  C   UNL     1      -1.175  11.999  21.498  0.00  0.00    +0.000 A 
ATOM     16  C   UNL     1      -1.221  11.758  22.861  0.00  0.00    +0.000 A 
ATOM     17  N   UNL     1      -0.627  10.698  23.457  0.00  0.00    +0.000 NA
ATOM     18  C   UNL     1       0.052   9.845  22.650  0.00  0.00    +0.000 A 
ENDBRANCH  10  13
ENDBRANCH   7  11
ENDBRANCH   1   8
BRANCH   5  19
ATOM     19  O   UNL     1       5.944   3.846  18.569  0.00  0.00    +0.000 OA
BRANCH  19  20
ATOM     20  C   UNL     1       6.501   4.476  17.467  0.00  0.00    +0.000 C 
ATOM     21  O   UNL     1       6.537   4.049  16.320  0.00  0.00    +0.000 OA
BRANCH  20  22
ATOM     22  C   UNL     1       7.099   5.797  17.810  0.00  0.00    +0.000 A 
ATOM     23  C   UNL     1       6.752   6.881  16.986  0.00  0.00    +0.000 A 
ATOM     24  C   UNL     1       7.267   8.160  17.219  0.00  0.00    +0.000 A 
ATOM     25  C   UNL     1       8.141   8.360  18.289  0.00  0.00    +0.000 A 
ATOM     26  C   UNL     1       8.492   7.291  19.129  0.00  0.00    +0.000 A 
ATOM     27  C   UNL     1       7.971   6.008  18.888  0.00  0.00    +0.000 A 
BRANCH  25  28
ATOM     28  N   UNL     1       8.692   9.701  18.529  0.00  0.00    +0.000 N 
ATOM     29  O   UNL     1       8.477  10.573  17.677  0.00  0.00    +0.000 OA
ATOM     30  O   UNL     1       9.343   9.877  19.566  0.00  0.00    +0.000 OA
ENDBRANCH  25  28
ENDBRANCH  20  22
ENDBRANCH  19  20
ENDBRANCH   5  19
TORSDOF 7
ENDMDL
MODEL 9
REMARK VINA RESULT:      -7.9      2.698      3.795
REMARK  Name = 
REMARK  7 active torsions:
REMARK  status: ('A' for Active; 'I' for Inactive)
REMARK    1  A    between atoms: C_2  and  C_24
REMARK    2  A    between atoms: N_3  and  N_4
REMARK    3  A    between atoms: C_5  and  C_6
REMARK    4  A    between atoms: C_10  and  O_11
REMARK    5  A    between atoms: O_11  and  C_12
REMARK    6  A    between atoms: C_12  and  C_14
REMARK    7  A    between atoms: C_17  and  N_18
REMARK                            x       y       z     vdW  Elec       q    Type
REMARK                         _______ _______ _______ _____ _____    ______ ____
ROOT
ATOM      1  C   UNL     1       7.750   8.043  17.997  0.00  0.00    +0.000 A 
ATOM      2  C   UNL     1       8.315   7.175  18.936  0.00  0.00    +0.000 A 
ATOM      3  C   UNL     1       7.914   5.838  18.975  0.00  0.00    +0.000 A 
ATOM      4  C   UNL     1       6.969   5.361  18.062  0.00  0.00    +0.000 A 
ATOM      5  C   UNL     1       6.422   6.229  17.115  0.00  0.00    +0.000 A 
ATOM      6  C   UNL     1       6.779   7.581  17.106  0.00  0.00    +0.000 A 
ENDROOT
BRANCH   1   8
ATOM      7  N   UNL     1       8.998   9.961  18.774  0.00  0.00    +0.000 NA
ATOM      8  C   UNL     1       8.185   9.454  17.905  0.00  0.00    +0.000 C 
BRANCH   7  11
ATOM      9  O   UNL     1      10.190  11.460  20.754  0.00  0.00    +0.000 OA
ATOM     10  C   UNL     1       9.929  11.949  19.658  0.00  0.00    +0.000 C 
ATOM     11  N   UNL     1       9.350  11.267  18.594  0.00  0.00    +0.000 N 
ATOM     12  H   UNL     1       9.285  11.672  17.667  0.00  0.00    +0.000 HD
BRANCH  10  13
ATOM     13  C   UNL     1      10.284  13.366  19.422  0.00  0.00    +0.000 A 
ATOM     14  C   UNL     1       9.750  14.033  18.315  0.00  0.00    +0.000 A 
ATOM     15  C   UNL     1      10.113  15.353  18.065  0.00  0.00    +0.000 A 
ATOM     16  C   UNL     1      11.006  15.963  18.932  0.00  0.00    +0.000 A 
ATOM     17  N   UNL     1      11.548  15.346  20.008  0.00  0.00    +0.000 NA
ATOM     18  C   UNL     1      11.186  14.056  20.220  0.00  0.00    +0.000 A 
ENDBRANCH  10  13
ENDBRANCH   7  11
ENDBRANCH   1   8
BRANCH   5  19
ATOM     19  O   UNL     1       5.478   5.679  16.215  0.00  0.00    +0.000 OA
BRANCH  19  20
ATOM     20  C   UNL     1       5.316   4.302  16.192  0.00  0.00    +0.000 C 
ATOM     21  O   UNL     1       5.964   3.500  15.532  0.00  0.00    +0.000 OA
BRANCH  20  22
ATOM     22  C   UNL     1       4.215   3.845  17.086  0.00  0.00    +0.000 A 
ATOM     23  C   UNL     1       3.273   4.814  17.474  0.00  0.00    +0.000 A 
ATOM     24  C   UNL     1       2.207   4.488  18.318  0.00  0.00    +0.000 A 
ATOM     25  C   UNL     1       2.080   3.178  18.784  0.00  0.00    +0.000 A 
ATOM     26  C   UNL     1       3.005   2.194  18.400  0.00  0.00    +0.000 A 
ATOM     27  C   UNL     1       4.075   2.529  17.552  0.00  0.00    +0.000 A 
BRANCH  25  28
ATOM     28  N   UNL     1       0.967   2.836  19.681  0.00  0.00    +0.000 N 
ATOM     29  O   UNL     1       1.083   3.127  20.879  0.00  0.00    +0.000 OA
ATOM     30  O   UNL     1      -0.018   2.273  19.186  0.00  0.00    +0.000 OA
ENDBRANCH  25  28
ENDBRANCH  20  22
ENDBRANCH  19  20
ENDBRANCH   5  19
TORSDOF 7
ENDMDL
