MODEL 1
REMARK VINA RESULT:      -7.1      0.000      0.000
REMARK  Name = 
REMARK  4 active torsions:
REMARK  status: ('A' for Active; 'I' for Inactive)
REMARK    1  A    between atoms: C_1  and  N_2
REMARK    2  A    between atoms: N_2  and  C_3
REMARK    3  A    between atoms: N_2  and  C_4
REMARK    4  A    between atoms: C_10  and  C_11
REMARK                            x       y       z     vdW  Elec       q    Type
REMARK                         _______ _______ _______ _____ _____    ______ ____
ROOT
ATOM      1  C   UNL     1       4.302   4.809  16.728  0.00  0.00    +0.000 C 
ATOM      2  C   UNL     1       5.597   4.598  17.028  0.00  0.00    +0.000 C 
ATOM      3  C   UNL     1       6.226   4.403  18.362  0.00  0.00    +0.000 C 
ATOM      4  O   UNL     1       5.731   4.206  19.459  0.00  0.00    +0.000 OA
ATOM      5  N   UNL     1       7.577   4.442  18.097  0.00  0.00    +0.000 N 
ATOM      6  N   UNL     1       7.908   4.471  16.776  0.00  0.00    +0.000 NA
ATOM      7  C   UNL     1       6.778   4.545  16.113  0.00  0.00    +0.000 C 
ATOM      8  H   UNL     1       8.286   4.321  18.808  0.00  0.00    +0.000 HD
ENDROOT
BRANCH   7   9
ATOM      9  C   UNL     1       6.787   4.545  14.641  0.00  0.00    +0.000 A 
ATOM     10  C   UNL     1       5.985   3.582  14.005  0.00  0.00    +0.000 A 
ATOM     11  C   UNL     1       6.056   3.398  12.625  0.00  0.00    +0.000 A 
ATOM     12  C   UNL     1       6.924   4.184  11.871  0.00  0.00    +0.000 A 
ATOM     13  C   UNL     1       7.707   5.157  12.494  0.00  0.00    +0.000 A 
ATOM     14  C   UNL     1       7.647   5.334  13.878  0.00  0.00    +0.000 A 
ENDBRANCH   7   9
BRANCH   1  16
ATOM     15  C   UNL     1       2.865   6.210  18.216  0.00  0.00    +0.000 C 
ATOM     16  N   UNL     1       3.138   4.968  17.486  0.00  0.00    +0.000 N 
ATOM     17  C   UNL     1       2.160   3.900  17.694  0.00  0.00    +0.000 C 
ENDBRANCH   1  16
TORSDOF 2
ENDMDL
MODEL 2
REMARK VINA RESULT:      -6.9      2.403      6.388
REMARK  Name = 
REMARK  4 active torsions:
REMARK  status: ('A' for Active; 'I' for Inactive)
REMARK    1  A    between atoms: C_1  and  N_2
REMARK    2  A    between atoms: N_2  and  C_3
REMARK    3  A    between atoms: N_2  and  C_4
REMARK    4  A    between atoms: C_10  and  C_11
REMARK                            x       y       z     vdW  Elec       q    Type
REMARK                         _______ _______ _______ _____ _____    ______ ____
ROOT
ATOM      1  C   UNL     1       4.988   4.500  17.459  0.00  0.00    +0.000 C 
ATOM      2  C   UNL     1       4.205   5.590  17.561  0.00  0.00    +0.000 C 
ATOM      3  C   UNL     1       4.350   6.910  16.890  0.00  0.00    +0.000 C 
ATOM      4  O   UNL     1       5.073   7.267  15.974  0.00  0.00    +0.000 OA
ATOM      5  N   UNL     1       3.409   7.701  17.511  0.00  0.00    +0.000 N 
ATOM      6  N   UNL     1       2.575   7.046  18.365  0.00  0.00    +0.000 NA
ATOM      7  C   UNL     1       2.994   5.803  18.412  0.00  0.00    +0.000 C 
ATOM      8  H   UNL     1       3.245   8.668  17.263  0.00  0.00    +0.000 HD
ENDROOT
BRANCH   7   9
ATOM      9  C   UNL     1       2.267   4.810  19.220  0.00  0.00    +0.000 A 
ATOM     10  C   UNL     1       2.549   4.787  20.596  0.00  0.00    +0.000 A 
ATOM     11  C   UNL     1       2.036   3.777  21.409  0.00  0.00    +0.000 A 
ATOM     12  C   UNL     1       1.229   2.789  20.850  0.00  0.00    +0.000 A 
ATOM     13  C   UNL     1       0.928   2.819  19.489  0.00  0.00    +0.000 A 
ATOM     14  C   UNL     1       1.451   3.822  18.670  0.00  0.00    +0.000 A 
ENDBRANCH   7   9
BRANCH   1  16
ATOM     15  C   UNL     1       7.485   4.494  17.380  0.00  0.00    +0.000 C 
ATOM     16  N   UNL     1       6.176   4.213  16.781  0.00  0.00    +0.000 N 
ATOM     17  C   UNL     1       6.220   3.710  15.409  0.00  0.00    +0.000 C 
ENDBRANCH   1  16
TORSDOF 2
ENDMDL
MODEL 3
REMARK VINA RESULT:      -6.7      2.427      6.362
REMARK  Name = 
REMARK  4 active torsions:
REMARK  status: ('A' for Active; 'I' for Inactive)
REMARK    1  A    between atoms: C_1  and  N_2
REMARK    2  A    between atoms: N_2  and  C_3
REMARK    3  A    between atoms: N_2  and  C_4
REMARK    4  A    between atoms: C_10  and  C_11
REMARK                            x       y       z     vdW  Elec       q    Type
REMARK                         _______ _______ _______ _____ _____    ______ ____
ROOT
ATOM      1  C   UNL     1       5.162   4.460  17.487  0.00  0.00    +0.000 C 
ATOM      2  C   UNL     1       4.335   5.511  17.644  0.00  0.00    +0.000 C 
ATOM      3  C   UNL     1       4.375   6.838  16.972  0.00  0.00    +0.000 C 
ATOM      4  O   UNL     1       5.021   7.232  16.015  0.00  0.00    +0.000 OA
ATOM      5  N   UNL     1       3.438   7.581  17.655  0.00  0.00    +0.000 N 
ATOM      6  N   UNL     1       2.691   6.884  18.556  0.00  0.00    +0.000 NA
ATOM      7  C   UNL     1       3.171   5.663  18.570  0.00  0.00    +0.000 C 
ATOM      8  H   UNL     1       3.213   8.539  17.424  0.00  0.00    +0.000 HD
ENDROOT
BRANCH   7   9
ATOM      9  C   UNL     1       2.544   4.634  19.415  0.00  0.00    +0.000 A 
ATOM     10  C   UNL     1       1.643   3.760  18.784  0.00  0.00    +0.000 A 
ATOM     11  C   UNL     1       0.880   2.865  19.532  0.00  0.00    +0.000 A 
ATOM     12  C   UNL     1       1.021   2.833  20.917  0.00  0.00    +0.000 A 
ATOM     13  C   UNL     1       1.930   3.683  21.548  0.00  0.00    +0.000 A 
ATOM     14  C   UNL     1       2.686   4.589  20.802  0.00  0.00    +0.000 A 
ENDBRANCH   7   9
BRANCH   1  16
ATOM     15  C   UNL     1       7.650   4.522  17.274  0.00  0.00    +0.000 C 
ATOM     16  N   UNL     1       6.317   4.232  16.735  0.00  0.00    +0.000 N 
ATOM     17  C   UNL     1       6.297   3.788  15.341  0.00  0.00    +0.000 C 
ENDBRANCH   1  16
TORSDOF 2
ENDMDL
MODEL 4
REMARK VINA RESULT:      -6.6      0.624      1.360
REMARK  Name = 
REMARK  4 active torsions:
REMARK  status: ('A' for Active; 'I' for Inactive)
REMARK    1  A    between atoms: C_1  and  N_2
REMARK    2  A    between atoms: N_2  and  C_3
REMARK    3  A    between atoms: N_2  and  C_4
REMARK    4  A    between atoms: C_10  and  C_11
REMARK                            x       y       z     vdW  Elec       q    Type
REMARK                         _______ _______ _______ _____ _____    ______ ____
ROOT
ATOM      1  C   UNL     1       4.547   5.420  16.843  0.00  0.00    +0.000 C 
ATOM      2  C   UNL     1       5.775   4.990  17.189  0.00  0.00    +0.000 C 
ATOM      3  C   UNL     1       6.367   4.854  18.547  0.00  0.00    +0.000 C 
ATOM      4  O   UNL     1       5.856   4.913  19.653  0.00  0.00    +0.000 OA
ATOM      5  N   UNL     1       7.694   4.577  18.301  0.00  0.00    +0.000 N 
ATOM      6  N   UNL     1       8.007   4.358  16.994  0.00  0.00    +0.000 NA
ATOM      7  C   UNL     1       6.909   4.572  16.308  0.00  0.00    +0.000 C 
ATOM      8  H   UNL     1       8.372   4.411  19.033  0.00  0.00    +0.000 HD
ENDROOT
BRANCH   7   9
ATOM      9  C   UNL     1       6.899   4.370  14.850  0.00  0.00    +0.000 A 
ATOM     10  C   UNL     1       7.774   5.170  14.096  0.00  0.00    +0.000 A 
ATOM     11  C   UNL     1       7.717   5.166  12.703  0.00  0.00    +0.000 A 
ATOM     12  C   UNL     1       6.787   4.356  12.056  0.00  0.00    +0.000 A 
ATOM     13  C   UNL     1       5.930   3.544  12.799  0.00  0.00    +0.000 A 
ATOM     14  C   UNL     1       5.977   3.555  14.195  0.00  0.00    +0.000 A 
ENDBRANCH   7   9
BRANCH   1  16
ATOM     15  C   UNL     1       3.320   7.345  17.858  0.00  0.00    +0.000 C 
ATOM     16  N   UNL     1       3.451   5.916  17.554  0.00  0.00    +0.000 N 
ATOM     17  C   UNL     1       2.411   5.063  18.129  0.00  0.00    +0.000 C 
ENDBRANCH   1  16
TORSDOF 2
ENDMDL
MODEL 5
REMARK VINA RESULT:      -6.6      3.037      6.484
REMARK  Name = 
REMARK  4 active torsions:
REMARK  status: ('A' for Active; 'I' for Inactive)
REMARK    1  A    between atoms: C_1  and  N_2
REMARK    2  A    between atoms: N_2  and  C_3
REMARK    3  A    between atoms: N_2  and  C_4
REMARK    4  A    between atoms: C_10  and  C_11
REMARK                            x       y       z     vdW  Elec       q    Type
REMARK                         _______ _______ _______ _____ _____    ______ ____
ROOT
ATOM      1  C   UNL     1       5.452   5.040  18.608  0.00  0.00    +0.000 C 
ATOM      2  C   UNL     1       4.465   5.849  18.178  0.00  0.00    +0.000 C 
ATOM      3  C   UNL     1       4.548   7.014  17.256  0.00  0.00    +0.000 C 
ATOM      4  O   UNL     1       5.454   7.403  16.537  0.00  0.00    +0.000 OA
ATOM      5  N   UNL     1       3.298   7.586  17.335  0.00  0.00    +0.000 N 
ATOM      6  N   UNL     1       2.378   6.872  18.043  0.00  0.00    +0.000 NA
ATOM      7  C   UNL     1       3.015   5.838  18.540  0.00  0.00    +0.000 C 
ATOM      8  H   UNL     1       3.025   8.401  16.803  0.00  0.00    +0.000 HD
ENDROOT
BRANCH   7   9
ATOM      9  C   UNL     1       2.284   4.831  19.327  0.00  0.00    +0.000 A 
ATOM     10  C   UNL     1       2.565   4.778  20.703  0.00  0.00    +0.000 A 
ATOM     11  C   UNL     1       2.048   3.754  21.495  0.00  0.00    +0.000 A 
ATOM     12  C   UNL     1       1.238   2.781  20.915  0.00  0.00    +0.000 A 
ATOM     13  C   UNL     1       0.937   2.841  19.554  0.00  0.00    +0.000 A 
ATOM     14  C   UNL     1       1.464   3.858  18.757  0.00  0.00    +0.000 A 
ENDBRANCH   7   9
BRANCH   1  16
ATOM     15  C   UNL     1       7.756   5.617  19.382  0.00  0.00    +0.000 C 
ATOM     16  N   UNL     1       6.836   5.005  18.418  0.00  0.00    +0.000 N 
ATOM     17  C   UNL     1       7.471   4.455  17.220  0.00  0.00    +0.000 C 
ENDBRANCH   1  16
TORSDOF 2
ENDMDL
MODEL 6
REMARK VINA RESULT:      -6.6      0.762      1.168
REMARK  Name = 
REMARK  4 active torsions:
REMARK  status: ('A' for Active; 'I' for Inactive)
REMARK    1  A    between atoms: C_1  and  N_2
REMARK    2  A    between atoms: N_2  and  C_3
REMARK    3  A    between atoms: N_2  and  C_4
REMARK    4  A    between atoms: C_10  and  C_11
REMARK                            x       y       z     vdW  Elec       q    Type
REMARK                         _______ _______ _______ _____ _____    ______ ____
ROOT
ATOM      1  C   UNL     1       4.294   3.835  16.646  0.00  0.00    +0.000 C 
ATOM      2  C   UNL     1       5.526   4.277  16.958  0.00  0.00    +0.000 C 
ATOM      3  C   UNL     1       6.128   4.490  18.302  0.00  0.00    +0.000 C 
ATOM      4  O   UNL     1       5.748   4.156  19.412  0.00  0.00    +0.000 OA
ATOM      5  N   UNL     1       7.312   5.141  18.033  0.00  0.00    +0.000 N 
ATOM      6  N   UNL     1       7.634   5.234  16.713  0.00  0.00    +0.000 NA
ATOM      7  C   UNL     1       6.624   4.725  16.047  0.00  0.00    +0.000 C 
ATOM      8  H   UNL     1       7.971   5.414  18.749  0.00  0.00    +0.000 HD
ENDROOT
BRANCH   7   9
ATOM      9  C   UNL     1       6.680   4.631  14.580  0.00  0.00    +0.000 A 
ATOM     10  C   UNL     1       5.839   3.680  13.975  0.00  0.00    +0.000 A 
ATOM     11  C   UNL     1       5.944   3.406  12.612  0.00  0.00    +0.000 A 
ATOM     12  C   UNL     1       6.885   4.087  11.844  0.00  0.00    +0.000 A 
ATOM     13  C   UNL     1       7.707   5.047  12.435  0.00  0.00    +0.000 A 
ATOM     14  C   UNL     1       7.613   5.315  13.802  0.00  0.00    +0.000 A 
ENDBRANCH   7   9
BRANCH   1  16
ATOM     15  C   UNL     1       2.988   2.114  17.902  0.00  0.00    +0.000 C 
ATOM     16  N   UNL     1       3.167   3.478  17.392  0.00  0.00    +0.000 N 
ATOM     17  C   UNL     1       2.046   4.383  17.641  0.00  0.00    +0.000 C 
ENDBRANCH   1  16
TORSDOF 2
ENDMDL
MODEL 7
REMARK VINA RESULT:      -6.6      2.829      5.437
REMARK  Name = 
REMARK  4 active torsions:
REMARK  status: ('A' for Active; 'I' for Inactive)
REMARK    1  A    between atoms: C_1  and  N_2
REMARK    2  A    between atoms: N_2  and  C_3
REMARK    3  A    between atoms: N_2  and  C_4
REMARK    4  A    between atoms: C_10  and  C_11
REMARK                            x       y       z     vdW  Elec       q    Type
REMARK                         _______ _______ _______ _____ _____    ______ ____
ROOT
ATOM      1  C   UNL     1       5.129   3.636  13.190  0.00  0.00    +0.000 C 
ATOM      2  C   UNL     1       6.066   4.417  13.760  0.00  0.00    +0.000 C 
ATOM      3  C   UNL     1       7.337   4.925  13.177  0.00  0.00    +0.000 C 
ATOM      4  O   UNL     1       7.749   4.924  12.029  0.00  0.00    +0.000 OA
ATOM      5  N   UNL     1       7.991   5.486  14.252  0.00  0.00    +0.000 N 
ATOM      6  N   UNL     1       7.262   5.556  15.401  0.00  0.00    +0.000 NA
ATOM      7  C   UNL     1       6.121   4.957  15.153  0.00  0.00    +0.000 C 
ATOM      8  H   UNL     1       8.891   5.940  14.180  0.00  0.00    +0.000 HD
ENDROOT
BRANCH   7   9
ATOM      9  C   UNL     1       5.076   4.902  16.189  0.00  0.00    +0.000 A 
ATOM     10  C   UNL     1       4.652   6.131  16.723  0.00  0.00    +0.000 A 
ATOM     11  C   UNL     1       3.791   6.169  17.819  0.00  0.00    +0.000 A 
ATOM     12  C   UNL     1       3.344   4.977  18.382  0.00  0.00    +0.000 A 
ATOM     13  C   UNL     1       3.744   3.754  17.843  0.00  0.00    +0.000 A 
ATOM     14  C   UNL     1       4.616   3.713  16.753  0.00  0.00    +0.000 A 
ENDBRANCH   7   9
BRANCH   1  16
ATOM     15  C   UNL     1       3.910   3.321  11.032  0.00  0.00    +0.000 C 
ATOM     16  N   UNL     1       5.010   3.003  11.949  0.00  0.00    +0.000 N 
ATOM     17  C   UNL     1       5.891   1.923  11.507  0.00  0.00    +0.000 C 
ENDBRANCH   1  16
TORSDOF 2
ENDMDL
MODEL 8
REMARK VINA RESULT:      -6.5      1.058      1.829
REMARK  Name = 
REMARK  4 active torsions:
REMARK  status: ('A' for Active; 'I' for Inactive)
REMARK    1  A    between atoms: C_1  and  N_2
REMARK    2  A    between atoms: N_2  and  C_3
REMARK    3  A    between atoms: N_2  and  C_4
REMARK    4  A    between atoms: C_10  and  C_11
REMARK                            x       y       z     vdW  Elec       q    Type
REMARK                         _______ _______ _______ _____ _____    ______ ____
ROOT
ATOM      1  C   UNL     1       4.468   3.849  16.761  0.00  0.00    +0.000 C 
ATOM      2  C   UNL     1       5.526   4.662  16.940  0.00  0.00    +0.000 C 
ATOM      3  C   UNL     1       5.960   5.369  18.175  0.00  0.00    +0.000 C 
ATOM      4  O   UNL     1       5.600   5.251  19.335  0.00  0.00    +0.000 OA
ATOM      5  N   UNL     1       6.959   6.212  17.738  0.00  0.00    +0.000 N 
ATOM      6  N   UNL     1       7.338   6.036  16.442  0.00  0.00    +0.000 NA
ATOM      7  C   UNL     1       6.536   5.126  15.941  0.00  0.00    +0.000 C 
ATOM      8  H   UNL     1       7.477   6.826  18.352  0.00  0.00    +0.000 HD
ENDROOT
BRANCH   7   9
ATOM      9  C   UNL     1       6.716   4.668  14.553  0.00  0.00    +0.000 A 
ATOM     10  C   UNL     1       7.666   5.357  13.779  0.00  0.00    +0.000 A 
ATOM     11  C   UNL     1       7.786   5.104  12.414  0.00  0.00    +0.000 A 
ATOM     12  C   UNL     1       6.963   4.154  11.816  0.00  0.00    +0.000 A 
ATOM     13  C   UNL     1       6.033   3.451  12.583  0.00  0.00    +0.000 A 
ATOM     14  C   UNL     1       5.902   3.712  13.948  0.00  0.00    +0.000 A 
ENDBRANCH   7   9
BRANCH   1  16
ATOM     15  C   UNL     1       3.402   2.072  18.158  0.00  0.00    +0.000 C 
ATOM     16  N   UNL     1       3.418   3.420  17.578  0.00  0.00    +0.000 N 
ATOM     17  C   UNL     1       2.223   4.220  17.840  0.00  0.00    +0.000 C 
ENDBRANCH   1  16
TORSDOF 2
ENDMDL
MODEL 9
REMARK VINA RESULT:      -6.5      3.008      6.430
REMARK  Name = 
REMARK  4 active torsions:
REMARK  status: ('A' for Active; 'I' for Inactive)
REMARK    1  A    between atoms: C_1  and  N_2
REMARK    2  A    between atoms: N_2  and  C_3
REMARK    3  A    between atoms: N_2  and  C_4
REMARK    4  A    between atoms: C_10  and  C_11
REMARK                            x       y       z     vdW  Elec       q    Type
REMARK                         _______ _______ _______ _____ _____    ______ ____
ROOT
ATOM      1  C   UNL     1       5.659   5.002  18.596  0.00  0.00    +0.000 C 
ATOM      2  C   UNL     1       4.619   5.755  18.192  0.00  0.00    +0.000 C 
ATOM      3  C   UNL     1       4.614   6.917  17.263  0.00  0.00    +0.000 C 
ATOM      4  O   UNL     1       5.476   7.350  16.516  0.00  0.00    +0.000 OA
ATOM      5  N   UNL     1       3.338   7.423  17.375  0.00  0.00    +0.000 N 
ATOM      6  N   UNL     1       2.478   6.666  18.113  0.00  0.00    +0.000 NA
ATOM      7  C   UNL     1       3.182   5.670  18.596  0.00  0.00    +0.000 C 
ATOM      8  H   UNL     1       3.007   8.220  16.848  0.00  0.00    +0.000 HD
ENDROOT
BRANCH   7   9
ATOM      9  C   UNL     1       2.528   4.631  19.408  0.00  0.00    +0.000 A 
ATOM     10  C   UNL     1       1.618   3.790  18.744  0.00  0.00    +0.000 A 
ATOM     11  C   UNL     1       0.832   2.890  19.461  0.00  0.00    +0.000 A 
ATOM     12  C   UNL     1       0.957   2.819  20.846  0.00  0.00    +0.000 A 
ATOM     13  C   UNL     1       1.875   3.635  21.508  0.00  0.00    +0.000 A 
ATOM     14  C   UNL     1       2.655   4.547  20.794  0.00  0.00    +0.000 A 
ENDBRANCH   7   9
BRANCH   1  16
ATOM     15  C   UNL     1       7.948   5.731  19.284  0.00  0.00    +0.000 C 
ATOM     16  N   UNL     1       7.037   5.039  18.366  0.00  0.00    +0.000 N 
ATOM     17  C   UNL     1       7.669   4.488  17.167  0.00  0.00    +0.000 C 
ENDBRANCH   1  16
TORSDOF 2
ENDMDL
