MODEL 1
REMARK VINA RESULT:      -7.6      0.000      0.000
REMARK  Name = 
REMARK  8 active torsions:
REMARK  status: ('A' for Active; 'I' for Inactive)
REMARK    1  A    between atoms: C_1  and  O_2
REMARK    2  A    between atoms: O_2  and  C_3
REMARK    3  A    between atoms: C_5  and  C_6
REMARK    4  A    between atoms: C_9  and  C_10
REMARK    5  A    between atoms: C_15  and  O_16
REMARK    6  A    between atoms: O_16  and  C_17
REMARK    7  A    between atoms: C_19  and  C_20
REMARK    8  A    between atoms: C_23  and  C_24
REMARK                            x       y       z     vdW  Elec       q    Type
REMARK                         _______ _______ _______ _____ _____    ______ ____
ROOT
ATOM      1  C   UNL     1       1.456   9.770  18.941  0.00  0.00    +0.000 A 
ATOM      2  C   UNL     1       2.345   8.888  18.316  0.00  0.00    +0.000 A 
ATOM      3  C   UNL     1       2.612   7.591  18.802  0.00  0.00    +0.000 A 
ATOM      4  C   UNL     1       2.084   7.260  20.064  0.00  0.00    +0.000 A 
ATOM      5  C   UNL     1       1.275   8.189  20.743  0.00  0.00    +0.000 A 
ATOM      6  C   UNL     1       0.896   9.434  20.189  0.00  0.00    +0.000 A 
ENDROOT
BRANCH   3   7
ATOM      7  C   UNL     1       3.354   6.649  17.918  0.00  0.00    +0.000 A 
ATOM      8  C   UNL     1       3.024   5.292  17.781  0.00  0.00    +0.000 A 
ATOM      9  C   UNL     1       3.724   4.455  16.900  0.00  0.00    +0.000 A 
ATOM     10  C   UNL     1       4.797   4.953  16.156  0.00  0.00    +0.000 A 
ATOM     11  C   UNL     1       5.167   6.287  16.297  0.00  0.00    +0.000 A 
ATOM     12  C   UNL     1       4.440   7.122  17.147  0.00  0.00    +0.000 A 
BRANCH  10  13
ATOM     13  C   UNL     1       5.547   4.061  15.232  0.00  0.00    +0.000 C 
ATOM     14  N   UNL     1       6.312   3.101  15.644  0.00  0.00    +0.000 NA
ATOM     15  N   UNL     1       5.438   4.219  13.883  0.00  0.00    +0.000 N 
ATOM     16  H   UNL     1       6.374   3.081  16.665  0.00  0.00    +0.000 HD
ATOM     17  H   UNL     1       4.523   4.485  13.541  0.00  0.00    +0.000 HD
ATOM     18  H   UNL     1       5.821   3.414  13.396  0.00  0.00    +0.000 HD
ENDBRANCH  10  13
ENDBRANCH   3   7
BRANCH   6  19
ATOM     19  C   UNL     1      -0.109  10.270  20.903  0.00  0.00    +0.000 A 
ATOM     20  C   UNL     1      -0.987  11.145  20.237  0.00  0.00    +0.000 A 
ATOM     21  C   UNL     1      -1.962  11.877  20.930  0.00  0.00    +0.000 A 
ATOM     22  C   UNL     1      -2.067  11.770  22.319  0.00  0.00    +0.000 A 
ATOM     23  C   UNL     1      -1.179  10.949  23.010  0.00  0.00    +0.000 A 
ATOM     24  C   UNL     1      -0.229  10.200  22.307  0.00  0.00    +0.000 A 
BRANCH  22  25
ATOM     25  C   UNL     1      -3.121  12.527  23.049  0.00  0.00    +0.000 C 
ATOM     26  N   UNL     1      -3.778  12.031  24.051  0.00  0.00    +0.000 NA
ATOM     27  N   UNL     1      -3.438  13.799  22.685  0.00  0.00    +0.000 N 
ATOM     28  H   UNL     1      -3.517  11.057  24.224  0.00  0.00    +0.000 HD
ATOM     29  H   UNL     1      -2.668  14.381  22.381  0.00  0.00    +0.000 HD
ATOM     30  H   UNL     1      -4.010  14.246  23.399  0.00  0.00    +0.000 HD
ENDBRANCH  22  25
ENDBRANCH   6  19
BRANCH   1  32
ATOM     31  C   UNL     1       2.138  11.956  18.323  0.00  0.00    +0.000 C 
ATOM     32  O   UNL     1       1.113  10.963  18.353  0.00  0.00    +0.000 OA
ENDBRANCH   1  32
BRANCH   4  33
ATOM     33  O   UNL     1       2.363   6.011  20.556  0.00  0.00    +0.000 OA
ATOM     34  C   UNL     1       1.292   5.099  20.756  0.00  0.00    +0.000 C 
ENDBRANCH   4  33
TORSDOF 6
ENDMDL
MODEL 2
REMARK VINA RESULT:      -7.6      0.338      1.220
REMARK  Name = 
REMARK  8 active torsions:
REMARK  status: ('A' for Active; 'I' for Inactive)
REMARK    1  A    between atoms: C_1  and  O_2
REMARK    2  A    between atoms: O_2  and  C_3
REMARK    3  A    between atoms: C_5  and  C_6
REMARK    4  A    between atoms: C_9  and  C_10
REMARK    5  A    between atoms: C_15  and  O_16
REMARK    6  A    between atoms: O_16  and  C_17
REMARK    7  A    between atoms: C_19  and  C_20
REMARK    8  A    between atoms: C_23  and  C_24
REMARK                            x       y       z     vdW  Elec       q    Type
REMARK                         _______ _______ _______ _____ _____    ______ ____
ROOT
ATOM      1  C   UNL     1       1.425   9.682  19.061  0.00  0.00    +0.000 A 
ATOM      2  C   UNL     1       2.314   8.823  18.404  0.00  0.00    +0.000 A 
ATOM      3  C   UNL     1       2.603   7.520  18.860  0.00  0.00    +0.000 A 
ATOM      4  C   UNL     1       2.100   7.159  20.124  0.00  0.00    +0.000 A 
ATOM      5  C   UNL     1       1.291   8.064  20.835  0.00  0.00    +0.000 A 
ATOM      6  C   UNL     1       0.890   9.316  20.311  0.00  0.00    +0.000 A 
ENDROOT
BRANCH   3   7
ATOM      7  C   UNL     1       3.340   6.605  17.946  0.00  0.00    +0.000 A 
ATOM      8  C   UNL     1       3.066   5.233  17.835  0.00  0.00    +0.000 A 
ATOM      9  C   UNL     1       3.756   4.420  16.925  0.00  0.00    +0.000 A 
ATOM     10  C   UNL     1       4.767   4.959  16.124  0.00  0.00    +0.000 A 
ATOM     11  C   UNL     1       5.083   6.309  16.236  0.00  0.00    +0.000 A 
ATOM     12  C   UNL     1       4.363   7.118  17.117  0.00  0.00    +0.000 A 
BRANCH  10  13
ATOM     13  C   UNL     1       5.508   4.092  15.169  0.00  0.00    +0.000 C 
ATOM     14  N   UNL     1       5.515   4.295  13.890  0.00  0.00    +0.000 NA
ATOM     15  N   UNL     1       6.238   3.034  15.623  0.00  0.00    +0.000 N 
ATOM     16  H   UNL     1       4.908   5.076  13.631  0.00  0.00    +0.000 HD
ATOM     17  H   UNL     1       6.716   3.172  16.505  0.00  0.00    +0.000 HD
ATOM     18  H   UNL     1       6.852   2.684  14.894  0.00  0.00    +0.000 HD
ENDBRANCH  10  13
ENDBRANCH   3   7
BRANCH   6  19
ATOM     19  C   UNL     1      -0.112  10.126  21.058  0.00  0.00    +0.000 A 
ATOM     20  C   UNL     1      -0.307  10.009  22.447  0.00  0.00    +0.000 A 
ATOM     21  C   UNL     1      -1.218  10.825  23.133  0.00  0.00    +0.000 A 
ATOM     22  C   UNL     1      -1.980  11.768  22.439  0.00  0.00    +0.000 A 
ATOM     23  C   UNL     1      -1.843  11.873  21.057  0.00  0.00    +0.000 A 
ATOM     24  C   UNL     1      -0.911  11.075  20.385  0.00  0.00    +0.000 A 
BRANCH  22  25
ATOM     25  C   UNL     1      -2.925  12.653  23.174  0.00  0.00    +0.000 C 
ATOM     26  N   UNL     1      -2.566  13.778  23.709  0.00  0.00    +0.000 NA
ATOM     27  N   UNL     1      -4.234  12.306  23.311  0.00  0.00    +0.000 N 
ATOM     28  H   UNL     1      -1.560  13.935  23.607  0.00  0.00    +0.000 HD
ATOM     29  H   UNL     1      -4.658  11.841  22.517  0.00  0.00    +0.000 HD
ATOM     30  H   UNL     1      -4.783  13.096  23.643  0.00  0.00    +0.000 HD
ENDBRANCH  22  25
ENDBRANCH   6  19
BRANCH   1  32
ATOM     31  C   UNL     1       2.099  11.855  18.387  0.00  0.00    +0.000 C 
ATOM     32  O   UNL     1       1.059  10.884  18.503  0.00  0.00    +0.000 OA
ENDBRANCH   1  32
BRANCH   4  33
ATOM     33  O   UNL     1       2.400   5.903  20.586  0.00  0.00    +0.000 OA
ATOM     34  C   UNL     1       1.346   4.965  20.754  0.00  0.00    +0.000 C 
ENDBRANCH   4  33
TORSDOF 6
ENDMDL
MODEL 3
REMARK VINA RESULT:      -7.5      0.150      9.664
REMARK  Name = 
REMARK  8 active torsions:
REMARK  status: ('A' for Active; 'I' for Inactive)
REMARK    1  A    between atoms: C_1  and  O_2
REMARK    2  A    between atoms: O_2  and  C_3
REMARK    3  A    between atoms: C_5  and  C_6
REMARK    4  A    between atoms: C_9  and  C_10
REMARK    5  A    between atoms: C_15  and  O_16
REMARK    6  A    between atoms: O_16  and  C_17
REMARK    7  A    between atoms: C_19  and  C_20
REMARK    8  A    between atoms: C_23  and  C_24
REMARK                            x       y       z     vdW  Elec       q    Type
REMARK                         _______ _______ _______ _____ _____    ______ ____
ROOT
ATOM      1  C   UNL     1       2.062   7.305  20.093  0.00  0.00    +0.000 A 
ATOM      2  C   UNL     1       1.311   8.252  20.800  0.00  0.00    +0.000 A 
ATOM      3  C   UNL     1       0.934   9.497  20.255  0.00  0.00    +0.000 A 
ATOM      4  C   UNL     1       1.496   9.848  19.014  0.00  0.00    +0.000 A 
ATOM      5  C   UNL     1       2.338   8.938  18.350  0.00  0.00    +0.000 A 
ATOM      6  C   UNL     1       2.602   7.635  18.836  0.00  0.00    +0.000 A 
ENDROOT
BRANCH   3   7
ATOM      7  C   UNL     1      -0.086  10.301  20.985  0.00  0.00    +0.000 A 
ATOM      8  C   UNL     1      -0.939  11.223  20.359  0.00  0.00    +0.000 A 
ATOM      9  C   UNL     1      -1.915  11.924  21.082  0.00  0.00    +0.000 A 
ATOM     10  C   UNL     1      -2.037  11.741  22.462  0.00  0.00    +0.000 A 
ATOM     11  C   UNL     1      -1.182  10.858  23.114  0.00  0.00    +0.000 A 
ATOM     12  C   UNL     1      -0.240  10.137  22.380  0.00  0.00    +0.000 A 
BRANCH  10  13
ATOM     13  C   UNL     1      -3.063  12.496  23.230  0.00  0.00    +0.000 C 
ATOM     14  N   UNL     1      -3.816  11.948  24.129  0.00  0.00    +0.000 NA
ATOM     15  N   UNL     1      -3.239  13.830  23.017  0.00  0.00    +0.000 N 
ATOM     16  H   UNL     1      -3.653  10.940  24.193  0.00  0.00    +0.000 HD
ATOM     17  H   UNL     1      -2.399  14.363  22.825  0.00  0.00    +0.000 HD
ATOM     18  H   UNL     1      -3.804  14.240  23.755  0.00  0.00    +0.000 HD
ENDBRANCH  10  13
ENDBRANCH   3   7
BRANCH   6  19
ATOM     19  C   UNL     1       3.357   6.681  17.976  0.00  0.00    +0.000 A 
ATOM     20  C   UNL     1       3.029   5.315  17.882  0.00  0.00    +0.000 A 
ATOM     21  C   UNL     1       3.721   4.452  17.020  0.00  0.00    +0.000 A 
ATOM     22  C   UNL     1       4.781   4.930  16.245  0.00  0.00    +0.000 A 
ATOM     23  C   UNL     1       5.158   6.266  16.355  0.00  0.00    +0.000 A 
ATOM     24  C   UNL     1       4.444   7.127  17.195  0.00  0.00    +0.000 A 
BRANCH  22  25
ATOM     25  C   UNL     1       5.495   4.016  15.311  0.00  0.00    +0.000 C 
ATOM     26  N   UNL     1       6.099   2.939  15.704  0.00  0.00    +0.000 NA
ATOM     27  N   UNL     1       5.536   4.284  13.977  0.00  0.00    +0.000 N 
ATOM     28  H   UNL     1       6.066   2.842  16.722  0.00  0.00    +0.000 HD
ATOM     29  H   UNL     1       4.698   4.688  13.577  0.00  0.00    +0.000 HD
ATOM     30  H   UNL     1       5.867   3.473  13.458  0.00  0.00    +0.000 HD
ENDBRANCH  22  25
ENDBRANCH   6  19
BRANCH   1  32
ATOM     31  C   UNL     1       1.149   5.179  20.615  0.00  0.00    +0.000 C 
ATOM     32  O   UNL     1       2.280   6.049  20.606  0.00  0.00    +0.000 OA
ENDBRANCH   1  32
BRANCH   4  33
ATOM     33  O   UNL     1       1.155  11.069  18.491  0.00  0.00    +0.000 OA
ATOM     34  C   UNL     1       2.190  11.982  18.151  0.00  0.00    +0.000 C 
ENDBRANCH   4  33
TORSDOF 6
ENDMDL
MODEL 4
REMARK VINA RESULT:      -7.5      0.234      9.651
REMARK  Name = 
REMARK  8 active torsions:
REMARK  status: ('A' for Active; 'I' for Inactive)
REMARK    1  A    between atoms: C_1  and  O_2
REMARK    2  A    between atoms: O_2  and  C_3
REMARK    3  A    between atoms: C_5  and  C_6
REMARK    4  A    between atoms: C_9  and  C_10
REMARK    5  A    between atoms: C_15  and  O_16
REMARK    6  A    between atoms: O_16  and  C_17
REMARK    7  A    between atoms: C_19  and  C_20
REMARK    8  A    between atoms: C_23  and  C_24
REMARK                            x       y       z     vdW  Elec       q    Type
REMARK                         _______ _______ _______ _____ _____    ______ ____
ROOT
ATOM      1  C   UNL     1       2.169   7.284  19.956  0.00  0.00    +0.000 A 
ATOM      2  C   UNL     1       1.411   8.193  20.704  0.00  0.00    +0.000 A 
ATOM      3  C   UNL     1       0.987   9.439  20.199  0.00  0.00    +0.000 A 
ATOM      4  C   UNL     1       1.509   9.836  18.954  0.00  0.00    +0.000 A 
ATOM      5  C   UNL     1       2.358   8.965  18.248  0.00  0.00    +0.000 A 
ATOM      6  C   UNL     1       2.669   7.659  18.694  0.00  0.00    +0.000 A 
ENDROOT
BRANCH   3   7
ATOM      7  C   UNL     1      -0.034  10.198  20.974  0.00  0.00    +0.000 A 
ATOM      8  C   UNL     1      -0.202  10.077  22.362  0.00  0.00    +0.000 A 
ATOM      9  C   UNL     1      -1.147  10.847  23.054  0.00  0.00    +0.000 A 
ATOM     10  C   UNL     1      -1.973  11.738  22.364  0.00  0.00    +0.000 A 
ATOM     11  C   UNL     1      -1.851  11.855  20.982  0.00  0.00    +0.000 A 
ATOM     12  C   UNL     1      -0.881  11.112  20.308  0.00  0.00    +0.000 A 
BRANCH  10  13
ATOM     13  C   UNL     1      -2.985  12.545  23.098  0.00  0.00    +0.000 C 
ATOM     14  N   UNL     1      -3.168  13.809  22.887  0.00  0.00    +0.000 NA
ATOM     15  N   UNL     1      -3.786  11.960  24.032  0.00  0.00    +0.000 N 
ATOM     16  H   UNL     1      -2.497  14.178  22.208  0.00  0.00    +0.000 HD
ATOM     17  H   UNL     1      -4.087  11.015  23.827  0.00  0.00    +0.000 HD
ATOM     18  H   UNL     1      -4.557  12.573  24.277  0.00  0.00    +0.000 HD
ENDBRANCH  10  13
ENDBRANCH   3   7
BRANCH   6  19
ATOM     19  C   UNL     1       3.426   6.746  17.793  0.00  0.00    +0.000 A 
ATOM     20  C   UNL     1       4.450   7.194  16.938  0.00  0.00    +0.000 A 
ATOM     21  C   UNL     1       5.186   6.304  16.143  0.00  0.00    +0.000 A 
ATOM     22  C   UNL     1       4.896   4.937  16.163  0.00  0.00    +0.000 A 
ATOM     23  C   UNL     1       3.855   4.472  16.963  0.00  0.00    +0.000 A 
ATOM     24  C   UNL     1       3.147   5.363  17.775  0.00  0.00    +0.000 A 
BRANCH  22  25
ATOM     25  C   UNL     1       5.697   3.991  15.338  0.00  0.00    +0.000 C 
ATOM     26  N   UNL     1       5.941   2.771  15.703  0.00  0.00    +0.000 NA
ATOM     27  N   UNL     1       6.211   4.381  14.140  0.00  0.00    +0.000 N 
ATOM     28  H   UNL     1       5.566   2.578  16.635  0.00  0.00    +0.000 HD
ATOM     29  H   UNL     1       5.632   5.001  13.587  0.00  0.00    +0.000 HD
ATOM     30  H   UNL     1       6.541   3.576  13.611  0.00  0.00    +0.000 HD
ENDBRANCH  22  25
ENDBRANCH   6  19
BRANCH   1  32
ATOM     31  C   UNL     1       1.292   5.202  20.678  0.00  0.00    +0.000 C 
ATOM     32  O   UNL     1       2.433   6.022  20.432  0.00  0.00    +0.000 OA
ENDBRANCH   1  32
BRANCH   4  33
ATOM     33  O   UNL     1       1.123  11.060  18.470  0.00  0.00    +0.000 OA
ATOM     34  C   UNL     1       2.093  12.093  18.370  0.00  0.00    +0.000 C 
ENDBRANCH   4  33
TORSDOF 6
ENDMDL
MODEL 5
REMARK VINA RESULT:      -7.5      0.193      1.428
REMARK  Name = 
REMARK  8 active torsions:
REMARK  status: ('A' for Active; 'I' for Inactive)
REMARK    1  A    between atoms: C_1  and  O_2
REMARK    2  A    between atoms: O_2  and  C_3
REMARK    3  A    between atoms: C_5  and  C_6
REMARK    4  A    between atoms: C_9  and  C_10
REMARK    5  A    between atoms: C_15  and  O_16
REMARK    6  A    between atoms: O_16  and  C_17
REMARK    7  A    between atoms: C_19  and  C_20
REMARK    8  A    between atoms: C_23  and  C_24
REMARK                            x       y       z     vdW  Elec       q    Type
REMARK                         _______ _______ _______ _____ _____    ______ ____
ROOT
ATOM      1  C   UNL     1       1.460   9.762  19.021  0.00  0.00    +0.000 A 
ATOM      2  C   UNL     1       2.363   8.925  18.353  0.00  0.00    +0.000 A 
ATOM      3  C   UNL     1       2.658   7.614  18.783  0.00  0.00    +0.000 A 
ATOM      4  C   UNL     1       2.145   7.219  20.032  0.00  0.00    +0.000 A 
ATOM      5  C   UNL     1       1.321   8.102  20.754  0.00  0.00    +0.000 A 
ATOM      6  C   UNL     1       0.915   9.362  20.256  0.00  0.00    +0.000 A 
ENDROOT
BRANCH   3   7
ATOM      7  C   UNL     1       3.413   6.727  17.854  0.00  0.00    +0.000 A 
ATOM      8  C   UNL     1       4.443   7.179  17.015  0.00  0.00    +0.000 A 
ATOM      9  C   UNL     1       5.156   6.296  16.193  0.00  0.00    +0.000 A 
ATOM     10  C   UNL     1       4.831   4.937  16.166  0.00  0.00    +0.000 A 
ATOM     11  C   UNL     1       3.792   4.467  16.963  0.00  0.00    +0.000 A 
ATOM     12  C   UNL     1       3.113   5.346  17.808  0.00  0.00    +0.000 A 
BRANCH  10  13
ATOM     13  C   UNL     1       5.580   4.004  15.282  0.00  0.00    +0.000 C 
ATOM     14  N   UNL     1       5.959   2.825  15.660  0.00  0.00    +0.000 NA
ATOM     15  N   UNL     1       5.886   4.364  14.004  0.00  0.00    +0.000 N 
ATOM     16  H   UNL     1       5.731   2.654  16.642  0.00  0.00    +0.000 HD
ATOM     17  H   UNL     1       5.187   4.914  13.519  0.00  0.00    +0.000 HD
ATOM     18  H   UNL     1       6.192   3.557  13.468  0.00  0.00    +0.000 HD
ENDBRANCH  10  13
ENDBRANCH   3   7
BRANCH   6  19
ATOM     19  C   UNL     1      -0.102  10.146  21.011  0.00  0.00    +0.000 A 
ATOM     20  C   UNL     1      -0.295  10.010  22.398  0.00  0.00    +0.000 A 
ATOM     21  C   UNL     1      -1.220  10.804  23.092  0.00  0.00    +0.000 A 
ATOM     22  C   UNL     1      -1.999  11.740  22.407  0.00  0.00    +0.000 A 
ATOM     23  C   UNL     1      -1.863  11.861  21.027  0.00  0.00    +0.000 A 
ATOM     24  C   UNL     1      -0.917  11.088  20.347  0.00  0.00    +0.000 A 
BRANCH  22  25
ATOM     25  C   UNL     1      -2.960  12.600  23.152  0.00  0.00    +0.000 C 
ATOM     26  N   UNL     1      -3.046  13.881  22.970  0.00  0.00    +0.000 NA
ATOM     27  N   UNL     1      -3.808  12.058  24.068  0.00  0.00    +0.000 N 
ATOM     28  H   UNL     1      -2.341  14.212  22.308  0.00  0.00    +0.000 HD
ATOM     29  H   UNL     1      -4.181  11.143  23.845  0.00  0.00    +0.000 HD
ATOM     30  H   UNL     1      -4.532  12.725  24.327  0.00  0.00    +0.000 HD
ENDBRANCH  22  25
ENDBRANCH   6  19
BRANCH   1  32
ATOM     31  C   UNL     1       2.134  11.938  18.360  0.00  0.00    +0.000 C 
ATOM     32  O   UNL     1       1.091  10.973  18.487  0.00  0.00    +0.000 OA
ENDBRANCH   1  32
BRANCH   4  33
ATOM     33  O   UNL     1       2.451   5.956  20.468  0.00  0.00    +0.000 OA
ATOM     34  C   UNL     1       1.390   5.051  20.742  0.00  0.00    +0.000 C 
ENDBRANCH   4  33
TORSDOF 6
ENDMDL
MODEL 6
REMARK VINA RESULT:      -7.4      3.080      8.905
REMARK  Name = 
REMARK  8 active torsions:
REMARK  status: ('A' for Active; 'I' for Inactive)
REMARK    1  A    between atoms: C_1  and  O_2
REMARK    2  A    between atoms: O_2  and  C_3
REMARK    3  A    between atoms: C_5  and  C_6
REMARK    4  A    between atoms: C_9  and  C_10
REMARK    5  A    between atoms: C_15  and  O_16
REMARK    6  A    between atoms: O_16  and  C_17
REMARK    7  A    between atoms: C_19  and  C_20
REMARK    8  A    between atoms: C_23  and  C_24
REMARK                            x       y       z     vdW  Elec       q    Type
REMARK                         _______ _______ _______ _____ _____    ______ ____
ROOT
ATOM      1  C   UNL     1       2.468   8.162  17.780  0.00  0.00    +0.000 A 
ATOM      2  C   UNL     1       1.943   9.460  17.822  0.00  0.00    +0.000 A 
ATOM      3  C   UNL     1       1.341  10.008  18.973  0.00  0.00    +0.000 A 
ATOM      4  C   UNL     1       1.114   9.135  20.054  0.00  0.00    +0.000 A 
ATOM      5  C   UNL     1       1.548   7.800  19.971  0.00  0.00    +0.000 A 
ATOM      6  C   UNL     1       2.276   7.291  18.869  0.00  0.00    +0.000 A 
ENDROOT
BRANCH   3   7
ATOM      7  C   UNL     1       1.069  11.472  18.992  0.00  0.00    +0.000 A 
ATOM      8  C   UNL     1       2.016  12.432  19.381  0.00  0.00    +0.000 A 
ATOM      9  C   UNL     1       1.728  13.803  19.337  0.00  0.00    +0.000 A 
ATOM     10  C   UNL     1       0.465  14.246  18.932  0.00  0.00    +0.000 A 
ATOM     11  C   UNL     1      -0.504  13.315  18.573  0.00  0.00    +0.000 A 
ATOM     12  C   UNL     1      -0.195  11.954  18.582  0.00  0.00    +0.000 A 
BRANCH  10  13
ATOM     13  C   UNL     1       0.156  15.701  18.900  0.00  0.00    +0.000 C 
ATOM     14  N   UNL     1      -1.012  16.181  19.184  0.00  0.00    +0.000 NA
ATOM     15  N   UNL     1       1.125  16.603  18.576  0.00  0.00    +0.000 N 
ATOM     16  H   UNL     1      -1.689  15.437  19.369  0.00  0.00    +0.000 HD
ATOM     17  H   UNL     1       2.057  16.391  18.910  0.00  0.00    +0.000 HD
ATOM     18  H   UNL     1       0.829  17.546  18.811  0.00  0.00    +0.000 HD
ENDBRANCH  10  13
ENDBRANCH   3   7
BRANCH   6  19
ATOM     19  C   UNL     1       2.849   5.919  18.950  0.00  0.00    +0.000 A 
ATOM     20  C   UNL     1       4.106   5.650  19.523  0.00  0.00    +0.000 A 
ATOM     21  C   UNL     1       4.596   4.341  19.639  0.00  0.00    +0.000 A 
ATOM     22  C   UNL     1       3.847   3.264  19.157  0.00  0.00    +0.000 A 
ATOM     23  C   UNL     1       2.622   3.505  18.541  0.00  0.00    +0.000 A 
ATOM     24  C   UNL     1       2.128   4.811  18.457  0.00  0.00    +0.000 A 
BRANCH  22  25
ATOM     25  C   UNL     1       4.358   1.873  19.306  0.00  0.00    +0.000 C 
ATOM     26  N   UNL     1       5.194   1.525  20.234  0.00  0.00    +0.000 NA
ATOM     27  N   UNL     1       3.951   0.891  18.456  0.00  0.00    +0.000 N 
ATOM     28  H   UNL     1       5.488   2.331  20.793  0.00  0.00    +0.000 HD
ATOM     29  H   UNL     1       2.985   0.931  18.157  0.00  0.00    +0.000 HD
ATOM     30  H   UNL     1       4.215  -0.025  18.812  0.00  0.00    +0.000 HD
ENDBRANCH  22  25
ENDBRANCH   6  19
BRANCH   1  32
ATOM     31  C   UNL     1       4.584   7.578  16.880  0.00  0.00    +0.000 C 
ATOM     32  O   UNL     1       3.177   7.722  16.688  0.00  0.00    +0.000 OA
ENDBRANCH   1  32
BRANCH   4  33
ATOM     33  O   UNL     1       0.504   9.655  21.166  0.00  0.00    +0.000 OA
ATOM     34  C   UNL     1       0.974   9.267  22.450  0.00  0.00    +0.000 C 
ENDBRANCH   4  33
TORSDOF 6
ENDMDL
MODEL 7
REMARK VINA RESULT:      -7.4      3.147      8.856
REMARK  Name = 
REMARK  8 active torsions:
REMARK  status: ('A' for Active; 'I' for Inactive)
REMARK    1  A    between atoms: C_1  and  O_2
REMARK    2  A    between atoms: O_2  and  C_3
REMARK    3  A    between atoms: C_5  and  C_6
REMARK    4  A    between atoms: C_9  and  C_10
REMARK    5  A    between atoms: C_15  and  O_16
REMARK    6  A    between atoms: O_16  and  C_17
REMARK    7  A    between atoms: C_19  and  C_20
REMARK    8  A    between atoms: C_23  and  C_24
REMARK                            x       y       z     vdW  Elec       q    Type
REMARK                         _______ _______ _______ _____ _____    ______ ____
ROOT
ATOM      1  C   UNL     1       2.364   8.169  17.804  0.00  0.00    +0.000 A 
ATOM      2  C   UNL     1       1.909   9.493  17.825  0.00  0.00    +0.000 A 
ATOM      3  C   UNL     1       1.320  10.085  18.962  0.00  0.00    +0.000 A 
ATOM      4  C   UNL     1       1.031   9.238  20.047  0.00  0.00    +0.000 A 
ATOM      5  C   UNL     1       1.393   7.880  19.984  0.00  0.00    +0.000 A 
ATOM      6  C   UNL     1       2.109   7.321  18.899  0.00  0.00    +0.000 A 
ENDROOT
BRANCH   3   7
ATOM      7  C   UNL     1       1.127  11.562  18.961  0.00  0.00    +0.000 A 
ATOM      8  C   UNL     1       2.158  12.479  19.215  0.00  0.00    +0.000 A 
ATOM      9  C   UNL     1       1.938  13.862  19.157  0.00  0.00    +0.000 A 
ATOM     10  C   UNL     1       0.663  14.362  18.875  0.00  0.00    +0.000 A 
ATOM     11  C   UNL     1      -0.386  13.476  18.651  0.00  0.00    +0.000 A 
ATOM     12  C   UNL     1      -0.148  12.101  18.673  0.00  0.00    +0.000 A 
BRANCH  10  13
ATOM     13  C   UNL     1       0.427  15.830  18.828  0.00  0.00    +0.000 C 
ATOM     14  N   UNL     1      -0.711  16.352  18.498  0.00  0.00    +0.000 NA
ATOM     15  N   UNL     1       1.426  16.698  19.154  0.00  0.00    +0.000 N 
ATOM     16  H   UNL     1      -1.387  15.636  18.224  0.00  0.00    +0.000 HD
ATOM     17  H   UNL     1       2.038  16.407  19.906  0.00  0.00    +0.000 HD
ATOM     18  H   UNL     1       1.056  17.635  19.289  0.00  0.00    +0.000 HD
ENDBRANCH  10  13
ENDBRANCH   3   7
BRANCH   6  19
ATOM     19  C   UNL     1       2.607   5.921  19.004  0.00  0.00    +0.000 A 
ATOM     20  C   UNL     1       1.914   4.822  18.463  0.00  0.00    +0.000 A 
ATOM     21  C   UNL     1       2.436   3.522  18.526  0.00  0.00    +0.000 A 
ATOM     22  C   UNL     1       3.658   3.283  19.159  0.00  0.00    +0.000 A 
ATOM     23  C   UNL     1       4.341   4.345  19.747  0.00  0.00    +0.000 A 
ATOM     24  C   UNL     1       3.828   5.643  19.653  0.00  0.00    +0.000 A 
BRANCH  22  25
ATOM     25  C   UNL     1       4.222   1.905  19.200  0.00  0.00    +0.000 C 
ATOM     26  N   UNL     1       3.869   0.975  18.369  0.00  0.00    +0.000 NA
ATOM     27  N   UNL     1       5.154   1.566  20.132  0.00  0.00    +0.000 N 
ATOM     28  H   UNL     1       3.129   1.297  17.740  0.00  0.00    +0.000 HD
ATOM     29  H   UNL     1       5.831   2.281  20.367  0.00  0.00    +0.000 HD
ATOM     30  H   UNL     1       5.588   0.676  19.899  0.00  0.00    +0.000 HD
ENDBRANCH  22  25
ENDBRANCH   6  19
BRANCH   1  32
ATOM     31  C   UNL     1       4.465   7.493  16.934  0.00  0.00    +0.000 C 
ATOM     32  O   UNL     1       3.065   7.679  16.728  0.00  0.00    +0.000 OA
ENDBRANCH   1  32
BRANCH   4  33
ATOM     33  O   UNL     1       0.432   9.802  21.145  0.00  0.00    +0.000 OA
ATOM     34  C   UNL     1       0.767   9.311  22.435  0.00  0.00    +0.000 C 
ENDBRANCH   4  33
TORSDOF 6
ENDMDL
MODEL 8
REMARK VINA RESULT:      -7.4      0.198      1.254
REMARK  Name = 
REMARK  8 active torsions:
REMARK  status: ('A' for Active; 'I' for Inactive)
REMARK    1  A    between atoms: C_1  and  O_2
REMARK    2  A    between atoms: O_2  and  C_3
REMARK    3  A    between atoms: C_5  and  C_6
REMARK    4  A    between atoms: C_9  and  C_10
REMARK    5  A    between atoms: C_15  and  O_16
REMARK    6  A    between atoms: O_16  and  C_17
REMARK    7  A    between atoms: C_19  and  C_20
REMARK    8  A    between atoms: C_23  and  C_24
REMARK                            x       y       z     vdW  Elec       q    Type
REMARK                         _______ _______ _______ _____ _____    ______ ____
ROOT
ATOM      1  C   UNL     1       1.436   9.952  18.942  0.00  0.00    +0.000 A 
ATOM      2  C   UNL     1       2.329   9.094  18.289  0.00  0.00    +0.000 A 
ATOM      3  C   UNL     1       2.613   7.789  18.744  0.00  0.00    +0.000 A 
ATOM      4  C   UNL     1       2.100   7.424  20.002  0.00  0.00    +0.000 A 
ATOM      5  C   UNL     1       1.287   8.329  20.709  0.00  0.00    +0.000 A 
ATOM      6  C   UNL     1       0.891   9.582  20.186  0.00  0.00    +0.000 A 
ENDROOT
BRANCH   3   7
ATOM      7  C   UNL     1       3.357   6.876  17.832  0.00  0.00    +0.000 A 
ATOM      8  C   UNL     1       4.404   7.298  16.997  0.00  0.00    +0.000 A 
ATOM      9  C   UNL     1       5.105   6.392  16.190  0.00  0.00    +0.000 A 
ATOM     10  C   UNL     1       4.752   5.039  16.175  0.00  0.00    +0.000 A 
ATOM     11  C   UNL     1       3.697   4.599  16.968  0.00  0.00    +0.000 A 
ATOM     12  C   UNL     1       3.030   5.502  17.797  0.00  0.00    +0.000 A 
BRANCH  10  13
ATOM     13  C   UNL     1       5.489   4.081  15.308  0.00  0.00    +0.000 C 
ATOM     14  N   UNL     1       5.720   4.300  14.052  0.00  0.00    +0.000 NA
ATOM     15  N   UNL     1       5.971   2.916  15.824  0.00  0.00    +0.000 N 
ATOM     16  H   UNL     1       5.285   5.170  13.736  0.00  0.00    +0.000 HD
ATOM     17  H   UNL     1       6.325   2.965  16.772  0.00  0.00    +0.000 HD
ATOM     18  H   UNL     1       6.628   2.485  15.181  0.00  0.00    +0.000 HD
ENDBRANCH  10  13
ENDBRANCH   3   7
BRANCH   6  19
ATOM     19  C   UNL     1      -0.117  10.391  20.928  0.00  0.00    +0.000 A 
ATOM     20  C   UNL     1      -0.987  11.296  20.293  0.00  0.00    +0.000 A 
ATOM     21  C   UNL     1      -1.965  12.001  21.009  0.00  0.00    +0.000 A 
ATOM     22  C   UNL     1      -2.080  11.837  22.392  0.00  0.00    +0.000 A 
ATOM     23  C   UNL     1      -1.199  10.985  23.054  0.00  0.00    +0.000 A 
ATOM     24  C   UNL     1      -0.247  10.263  22.327  0.00  0.00    +0.000 A 
BRANCH  22  25
ATOM     25  C   UNL     1      -3.137  12.567  23.146  0.00  0.00    +0.000 C 
ATOM     26  N   UNL     1      -3.395  13.823  22.959  0.00  0.00    +0.000 NA
ATOM     27  N   UNL     1      -3.893  11.923  24.076  0.00  0.00    +0.000 N 
ATOM     28  H   UNL     1      -2.748  14.241  22.285  0.00  0.00    +0.000 HD
ATOM     29  H   UNL     1      -4.144  10.966  23.864  0.00  0.00    +0.000 HD
ATOM     30  H   UNL     1      -4.696  12.490  24.342  0.00  0.00    +0.000 HD
ENDBRANCH  22  25
ENDBRANCH   6  19
BRANCH   1  32
ATOM     31  C   UNL     1       2.060  12.187  18.449  0.00  0.00    +0.000 C 
ATOM     32  O   UNL     1       1.076  11.155  18.384  0.00  0.00    +0.000 OA
ENDBRANCH   1  32
BRANCH   4  33
ATOM     33  O   UNL     1       2.396   6.167  20.463  0.00  0.00    +0.000 OA
ATOM     34  C   UNL     1       1.330   5.265  20.724  0.00  0.00    +0.000 C 
ENDBRANCH   4  33
TORSDOF 6
ENDMDL
MODEL 9
REMARK VINA RESULT:      -7.4      3.051      4.164
REMARK  Name = 
REMARK  8 active torsions:
REMARK  status: ('A' for Active; 'I' for Inactive)
REMARK    1  A    between atoms: C_1  and  O_2
REMARK    2  A    between atoms: O_2  and  C_3
REMARK    3  A    between atoms: C_5  and  C_6
REMARK    4  A    between atoms: C_9  and  C_10
REMARK    5  A    between atoms: C_15  and  O_16
REMARK    6  A    between atoms: O_16  and  C_17
REMARK    7  A    between atoms: C_19  and  C_20
REMARK    8  A    between atoms: C_23  and  C_24
REMARK                            x       y       z     vdW  Elec       q    Type
REMARK                         _______ _______ _______ _____ _____    ______ ____
ROOT
ATOM      1  C   UNL     1       1.094   9.115  19.988  0.00  0.00    +0.000 A 
ATOM      2  C   UNL     1       1.474   7.772  19.874  0.00  0.00    +0.000 A 
ATOM      3  C   UNL     1       2.245   7.280  18.801  0.00  0.00    +0.000 A 
ATOM      4  C   UNL     1       2.479   8.157  17.726  0.00  0.00    +0.000 A 
ATOM      5  C   UNL     1       2.004   9.479  17.793  0.00  0.00    +0.000 A 
ATOM      6  C   UNL     1       1.352  10.009  18.932  0.00  0.00    +0.000 A 
ENDROOT
BRANCH   3   7
ATOM      7  C   UNL     1       2.819   5.910  18.920  0.00  0.00    +0.000 A 
ATOM      8  C   UNL     1       4.037   5.633  19.560  0.00  0.00    +0.000 A 
ATOM      9  C   UNL     1       4.514   4.321  19.687  0.00  0.00    +0.000 A 
ATOM     10  C   UNL     1       3.794   3.253  19.146  0.00  0.00    +0.000 A 
ATOM     11  C   UNL     1       2.599   3.502  18.478  0.00  0.00    +0.000 A 
ATOM     12  C   UNL     1       2.113   4.807  18.389  0.00  0.00    +0.000 A 
BRANCH  10  13
ATOM     13  C   UNL     1       4.308   1.862  19.270  0.00  0.00    +0.000 C 
ATOM     14  N   UNL     1       5.135   1.496  20.196  0.00  0.00    +0.000 NA
ATOM     15  N   UNL     1       3.900   0.898  18.398  0.00  0.00    +0.000 N 
ATOM     16  H   UNL     1       5.425   2.287  20.776  0.00  0.00    +0.000 HD
ATOM     17  H   UNL     1       2.935   0.951  18.098  0.00  0.00    +0.000 HD
ATOM     18  H   UNL     1       4.156  -0.024  18.740  0.00  0.00    +0.000 HD
ENDBRANCH  10  13
ENDBRANCH   3   7
BRANCH   6  19
ATOM     19  C   UNL     1       1.049  11.467  18.981  0.00  0.00    +0.000 A 
ATOM     20  C   UNL     1       2.027  12.441  19.252  0.00  0.00    +0.000 A 
ATOM     21  C   UNL     1       1.724  13.810  19.235  0.00  0.00    +0.000 A 
ATOM     22  C   UNL     1       0.422  14.241  18.969  0.00  0.00    +0.000 A 
ATOM     23  C   UNL     1      -0.577  13.296  18.746  0.00  0.00    +0.000 A 
ATOM     24  C   UNL     1      -0.260  11.934  18.735  0.00  0.00    +0.000 A 
BRANCH  22  25
ATOM     25  C   UNL     1       0.110  15.696  18.925  0.00  0.00    +0.000 C 
ATOM     26  N   UNL     1       1.011  16.603  18.704  0.00  0.00    +0.000 NA
ATOM     27  N   UNL     1      -1.163  16.138  19.114  0.00  0.00    +0.000 N 
ATOM     28  H   UNL     1       1.944  16.191  18.627  0.00  0.00    +0.000 HD
ATOM     29  H   UNL     1      -1.898  15.561  18.724  0.00  0.00    +0.000 HD
ATOM     30  H   UNL     1      -1.247  17.116  18.845  0.00  0.00    +0.000 HD
ENDBRANCH  22  25
ENDBRANCH   6  19
BRANCH   1  32
ATOM     31  C   UNL     1       1.173   9.361  22.346  0.00  0.00    +0.000 C 
ATOM     32  O   UNL     1       0.472   9.580  21.122  0.00  0.00    +0.000 OA
ENDBRANCH   1  32
BRANCH   4  33
ATOM     33  O   UNL     1       3.204   7.676  16.666  0.00  0.00    +0.000 OA
ATOM     34  C   UNL     1       4.606   7.503  16.818  0.00  0.00    +0.000 C 
ENDBRANCH   4  33
TORSDOF 6
ENDMDL
