MODEL 1
REMARK VINA RESULT:      -7.1      0.000      0.000
REMARK  Name = 
REMARK  7 active torsions:
REMARK  status: ('A' for Active; 'I' for Inactive)
REMARK    1  A    between atoms: C_1  and  C_2
REMARK    2  A    between atoms: C_2  and  O_3
REMARK    3  A    between atoms: O_3  and  C_4
REMARK    4  A    between atoms: C_7  and  C_8
REMARK    5  A    between atoms: N_12  and  C_13
REMARK    6  A    between atoms: C_23  and  O_24
REMARK    7  A    between atoms: O_24  and  C_25
REMARK                            x       y       z     vdW  Elec       q    Type
REMARK                         _______ _______ _______ _____ _____    ______ ____
ROOT
ATOM      1  C   UNL     1       3.777   5.516  19.096  0.00  0.00    +0.000 C 
ATOM      2  C   UNL     1       2.975   6.592  19.150  0.00  0.00    +0.000 C 
ATOM      3  S   UNL     1       2.017   7.039  20.522  0.00  0.00    +0.000 S 
ATOM      4  C   UNL     1       1.494   8.530  19.766  0.00  0.00    +0.000 C 
ATOM      5  N   UNL     1       0.598   9.297  20.292  0.00  0.00    +0.000 NA
ATOM      6  N   UNL     1       2.151   8.702  18.589  0.00  0.00    +0.000 N 
ATOM      7  C   UNL     1       2.805   7.621  18.082  0.00  0.00    +0.000 C 
ATOM      8  O   UNL     1       3.092   7.512  16.901  0.00  0.00    +0.000 OA
ATOM      9  H   UNL     1       1.951   9.468  17.971  0.00  0.00    +0.000 HD
ENDROOT
BRANCH   1  13
ATOM     10  C   UNL     1       6.250   5.179  15.631  0.00  0.00    +0.000 A 
ATOM     11  C   UNL     1       5.123   4.349  15.787  0.00  0.00    +0.000 A 
ATOM     12  C   UNL     1       4.328   4.409  16.937  0.00  0.00    +0.000 A 
ATOM     13  C   UNL     1       4.676   5.274  17.968  0.00  0.00    +0.000 A 
ATOM     14  C   UNL     1       5.856   6.019  17.865  0.00  0.00    +0.000 A 
ATOM     15  C   UNL     1       6.648   5.989  16.706  0.00  0.00    +0.000 A 
BRANCH  15  16
ATOM     16  O   UNL     1       7.718   6.835  16.814  0.00  0.00    +0.000 OA
ATOM     17  C   UNL     1       7.587   8.038  17.550  0.00  0.00    +0.000 C 
ENDBRANCH  15  16
BRANCH  10  18
ATOM     18  O   UNL     1       6.957   5.215  14.455  0.00  0.00    +0.000 OA
BRANCH  18  20
ATOM     19  C   UNL     1       7.311   4.507  12.180  0.00  0.00    +0.000 C 
ATOM     20  C   UNL     1       6.600   4.218  13.490  0.00  0.00    +0.000 C 
ENDBRANCH  18  20
ENDBRANCH  10  18
ENDBRANCH   1  13
BRANCH   5  21
ATOM     21  C   UNL     1       0.134  10.440  19.615  0.00  0.00    +0.000 A 
ATOM     22  C   UNL     1      -1.036  10.432  18.845  0.00  0.00    +0.000 A 
ATOM     23  C   UNL     1      -1.443  11.563  18.136  0.00  0.00    +0.000 A 
ATOM     24  C   UNL     1      -0.731  12.752  18.266  0.00  0.00    +0.000 A 
ATOM     25  C   UNL     1       0.382  12.804  19.103  0.00  0.00    +0.000 A 
ATOM     26  C   UNL     1       0.817  11.652  19.768  0.00  0.00    +0.000 A 
ENDBRANCH   5  21
TORSDOF 5
ENDMDL
MODEL 2
REMARK VINA RESULT:      -7.0      1.642      2.028
REMARK  Name = 
REMARK  7 active torsions:
REMARK  status: ('A' for Active; 'I' for Inactive)
REMARK    1  A    between atoms: C_1  and  C_2
REMARK    2  A    between atoms: C_2  and  O_3
REMARK    3  A    between atoms: O_3  and  C_4
REMARK    4  A    between atoms: C_7  and  C_8
REMARK    5  A    between atoms: N_12  and  C_13
REMARK    6  A    between atoms: C_23  and  O_24
REMARK    7  A    between atoms: O_24  and  C_25
REMARK                            x       y       z     vdW  Elec       q    Type
REMARK                         _______ _______ _______ _____ _____    ______ ____
ROOT
ATOM      1  C   UNL     1       3.456   3.943  19.060  0.00  0.00    +0.000 C 
ATOM      2  C   UNL     1       2.801   5.030  19.498  0.00  0.00    +0.000 C 
ATOM      3  S   UNL     1       1.663   5.037  20.804  0.00  0.00    +0.000 S 
ATOM      4  C   UNL     1       1.486   6.778  20.741  0.00  0.00    +0.000 C 
ATOM      5  N   UNL     1       0.611   7.412  21.448  0.00  0.00    +0.000 NA
ATOM      6  N   UNL     1       2.371   7.297  19.850  0.00  0.00    +0.000 N 
ATOM      7  C   UNL     1       2.969   6.425  18.993  0.00  0.00    +0.000 C 
ATOM      8  O   UNL     1       3.458   6.770  17.929  0.00  0.00    +0.000 OA
ATOM      9  H   UNL     1       2.391   8.275  19.622  0.00  0.00    +0.000 HD
ENDROOT
BRANCH   1  13
ATOM     10  C   UNL     1       6.504   4.620  16.148  0.00  0.00    +0.000 A 
ATOM     11  C   UNL     1       5.241   4.132  15.759  0.00  0.00    +0.000 A 
ATOM     12  C   UNL     1       4.246   3.857  16.703  0.00  0.00    +0.000 A 
ATOM     13  C   UNL     1       4.516   4.027  18.056  0.00  0.00    +0.000 A 
ATOM     14  C   UNL     1       5.803   4.405  18.452  0.00  0.00    +0.000 A 
ATOM     15  C   UNL     1       6.803   4.711  17.515  0.00  0.00    +0.000 A 
BRANCH  15  16
ATOM     16  O   UNL     1       7.958   5.106  18.134  0.00  0.00    +0.000 OA
ATOM     17  C   UNL     1       7.934   6.209  19.023  0.00  0.00    +0.000 C 
ENDBRANCH  15  16
BRANCH  10  18
ATOM     18  O   UNL     1       7.438   5.012  15.221  0.00  0.00    +0.000 OA
BRANCH  18  20
ATOM     19  C   UNL     1       8.087   5.460  12.945  0.00  0.00    +0.000 C 
ATOM     20  C   UNL     1       7.094   4.757  13.853  0.00  0.00    +0.000 C 
ENDBRANCH  18  20
ENDBRANCH  10  18
ENDBRANCH   1  13
BRANCH   5  21
ATOM     21  C   UNL     1       0.432   8.801  21.306  0.00  0.00    +0.000 A 
ATOM     22  C   UNL     1       0.658   9.466  20.095  0.00  0.00    +0.000 A 
ATOM     23  C   UNL     1       0.530  10.852  19.996  0.00  0.00    +0.000 A 
ATOM     24  C   UNL     1       0.078  11.583  21.091  0.00  0.00    +0.000 A 
ATOM     25  C   UNL     1      -0.243  10.925  22.278  0.00  0.00    +0.000 A 
ATOM     26  C   UNL     1      -0.059   9.542  22.386  0.00  0.00    +0.000 A 
ENDBRANCH   5  21
TORSDOF 5
ENDMDL
MODEL 3
REMARK VINA RESULT:      -7.0      1.144      1.597
REMARK  Name = 
REMARK  7 active torsions:
REMARK  status: ('A' for Active; 'I' for Inactive)
REMARK    1  A    between atoms: C_1  and  C_2
REMARK    2  A    between atoms: C_2  and  O_3
REMARK    3  A    between atoms: O_3  and  C_4
REMARK    4  A    between atoms: C_7  and  C_8
REMARK    5  A    between atoms: N_12  and  C_13
REMARK    6  A    between atoms: C_23  and  O_24
REMARK    7  A    between atoms: O_24  and  C_25
REMARK                            x       y       z     vdW  Elec       q    Type
REMARK                         _______ _______ _______ _____ _____    ______ ____
ROOT
ATOM      1  C   UNL     1       2.852   5.488  19.972  0.00  0.00    +0.000 C 
ATOM      2  C   UNL     1       2.249   6.683  19.875  0.00  0.00    +0.000 C 
ATOM      3  S   UNL     1       1.278   7.402  21.117  0.00  0.00    +0.000 S 
ATOM      4  C   UNL     1       1.085   8.888  20.211  0.00  0.00    +0.000 C 
ATOM      5  N   UNL     1       0.298   9.838  20.596  0.00  0.00    +0.000 NA
ATOM      6  N   UNL     1       1.852   8.845  19.090  0.00  0.00    +0.000 N 
ATOM      7  C   UNL     1       2.345   7.630  18.725  0.00  0.00    +0.000 C 
ATOM      8  O   UNL     1       2.700   7.373  17.586  0.00  0.00    +0.000 OA
ATOM      9  H   UNL     1       1.838   9.578  18.403  0.00  0.00    +0.000 HD
ENDROOT
BRANCH   1  13
ATOM     10  C   UNL     1       5.512   4.453  16.797  0.00  0.00    +0.000 A 
ATOM     11  C   UNL     1       4.223   3.891  16.859  0.00  0.00    +0.000 A 
ATOM     12  C   UNL     1       3.354   4.179  17.917  0.00  0.00    +0.000 A 
ATOM     13  C   UNL     1       3.781   5.002  18.953  0.00  0.00    +0.000 A 
ATOM     14  C   UNL     1       5.099   5.472  18.951  0.00  0.00    +0.000 A 
ATOM     15  C   UNL     1       5.972   5.214  17.882  0.00  0.00    +0.000 A 
BRANCH  15  16
ATOM     16  O   UNL     1       7.185   5.817  18.077  0.00  0.00    +0.000 OA
ATOM     17  C   UNL     1       7.824   5.714  19.336  0.00  0.00    +0.000 C 
ENDBRANCH  15  16
BRANCH  10  18
ATOM     18  O   UNL     1       6.320   4.277  15.700  0.00  0.00    +0.000 OA
BRANCH  18  20
ATOM     19  C   UNL     1       6.142   3.740  13.359  0.00  0.00    +0.000 C 
ATOM     20  C   UNL     1       5.773   4.725  14.454  0.00  0.00    +0.000 C 
ENDBRANCH  18  20
ENDBRANCH  10  18
ENDBRANCH   1  13
BRANCH   5  21
ATOM     21  C   UNL     1       0.095  10.979  19.799  0.00  0.00    +0.000 A 
ATOM     22  C   UNL     1       1.008  12.040  19.760  0.00  0.00    +0.000 A 
ATOM     23  C   UNL     1       0.754  13.186  19.007  0.00  0.00    +0.000 A 
ATOM     24  C   UNL     1      -0.380  13.245  18.202  0.00  0.00    +0.000 A 
ATOM     25  C   UNL     1      -1.253  12.159  18.155  0.00  0.00    +0.000 A 
ATOM     26  C   UNL     1      -1.020  11.035  18.955  0.00  0.00    +0.000 A 
ENDBRANCH   5  21
TORSDOF 5
ENDMDL
MODEL 4
REMARK VINA RESULT:      -6.9      1.320      1.625
REMARK  Name = 
REMARK  7 active torsions:
REMARK  status: ('A' for Active; 'I' for Inactive)
REMARK    1  A    between atoms: C_1  and  C_2
REMARK    2  A    between atoms: C_2  and  O_3
REMARK    3  A    between atoms: O_3  and  C_4
REMARK    4  A    between atoms: C_7  and  C_8
REMARK    5  A    between atoms: N_12  and  C_13
REMARK    6  A    between atoms: C_23  and  O_24
REMARK    7  A    between atoms: O_24  and  C_25
REMARK                            x       y       z     vdW  Elec       q    Type
REMARK                         _______ _______ _______ _____ _____    ______ ____
ROOT
ATOM      1  C   UNL     1       2.435   5.487  20.163  0.00  0.00    +0.000 C 
ATOM      2  C   UNL     1       1.976   6.744  20.053  0.00  0.00    +0.000 C 
ATOM      3  S   UNL     1       1.031   7.557  21.257  0.00  0.00    +0.000 S 
ATOM      4  C   UNL     1       1.052   9.064  20.364  0.00  0.00    +0.000 C 
ATOM      5  N   UNL     1       0.359  10.092  20.724  0.00  0.00    +0.000 NA
ATOM      6  N   UNL     1       1.864   8.944  19.282  0.00  0.00    +0.000 N 
ATOM      7  C   UNL     1       2.236   7.684  18.924  0.00  0.00    +0.000 C 
ATOM      8  O   UNL     1       2.616   7.399  17.800  0.00  0.00    +0.000 OA
ATOM      9  H   UNL     1       1.968   9.679  18.605  0.00  0.00    +0.000 HD
ENDROOT
BRANCH   1  13
ATOM     10  C   UNL     1       5.165   4.200  17.143  0.00  0.00    +0.000 A 
ATOM     11  C   UNL     1       3.790   3.919  17.029  0.00  0.00    +0.000 A 
ATOM     12  C   UNL     1       2.886   4.289  18.030  0.00  0.00    +0.000 A 
ATOM     13  C   UNL     1       3.353   4.908  19.183  0.00  0.00    +0.000 A 
ATOM     14  C   UNL     1       4.730   5.088  19.350  0.00  0.00    +0.000 A 
ATOM     15  C   UNL     1       5.646   4.747  18.342  0.00  0.00    +0.000 A 
BRANCH  15  16
ATOM     16  O   UNL     1       6.927   5.062  18.708  0.00  0.00    +0.000 OA
ATOM     17  C   UNL     1       7.492   6.292  18.291  0.00  0.00    +0.000 C 
ENDBRANCH  15  16
BRANCH  10  18
ATOM     18  O   UNL     1       6.036   3.955  16.110  0.00  0.00    +0.000 OA
BRANCH  18  20
ATOM     19  C   UNL     1       6.109   3.938  13.703  0.00  0.00    +0.000 C 
ATOM     20  C   UNL     1       5.857   4.772  14.946  0.00  0.00    +0.000 C 
ENDBRANCH  18  20
ENDBRANCH  10  18
ENDBRANCH   1  13
BRANCH   5  21
ATOM     21  C   UNL     1       0.326  11.256  19.934  0.00  0.00    +0.000 A 
ATOM     22  C   UNL     1      -0.717  11.526  19.039  0.00  0.00    +0.000 A 
ATOM     23  C   UNL     1      -0.697  12.659  18.225  0.00  0.00    +0.000 A 
ATOM     24  C   UNL     1       0.327  13.592  18.366  0.00  0.00    +0.000 A 
ATOM     25  C   UNL     1       1.324  13.386  19.319  0.00  0.00    +0.000 A 
ATOM     26  C   UNL     1       1.327  12.221  20.094  0.00  0.00    +0.000 A 
ENDBRANCH   5  21
TORSDOF 5
ENDMDL
MODEL 5
REMARK VINA RESULT:      -6.9      1.293      1.682
REMARK  Name = 
REMARK  7 active torsions:
REMARK  status: ('A' for Active; 'I' for Inactive)
REMARK    1  A    between atoms: C_1  and  C_2
REMARK    2  A    between atoms: C_2  and  O_3
REMARK    3  A    between atoms: O_3  and  C_4
REMARK    4  A    between atoms: C_7  and  C_8
REMARK    5  A    between atoms: N_12  and  C_13
REMARK    6  A    between atoms: C_23  and  O_24
REMARK    7  A    between atoms: O_24  and  C_25
REMARK                            x       y       z     vdW  Elec       q    Type
REMARK                         _______ _______ _______ _____ _____    ______ ____
ROOT
ATOM      1  C   UNL     1       3.257   4.417  19.454  0.00  0.00    +0.000 C 
ATOM      2  C   UNL     1       2.639   5.597  19.626  0.00  0.00    +0.000 C 
ATOM      3  S   UNL     1       1.524   5.948  20.904  0.00  0.00    +0.000 S 
ATOM      4  C   UNL     1       1.393   7.629  20.430  0.00  0.00    +0.000 C 
ATOM      5  N   UNL     1       0.547   8.439  20.974  0.00  0.00    +0.000 NA
ATOM      6  N   UNL     1       2.276   7.894  19.431  0.00  0.00    +0.000 N 
ATOM      7  C   UNL     1       2.835   6.825  18.801  0.00  0.00    +0.000 C 
ATOM      8  O   UNL     1       3.315   6.892  17.681  0.00  0.00    +0.000 OA
ATOM      9  H   UNL     1       2.318   8.789  18.976  0.00  0.00    +0.000 HD
ENDROOT
BRANCH   1  13
ATOM     10  C   UNL     1       6.312   4.297  16.473  0.00  0.00    +0.000 A 
ATOM     11  C   UNL     1       4.993   3.914  16.160  0.00  0.00    +0.000 A 
ATOM     12  C   UNL     1       3.989   3.899  17.133  0.00  0.00    +0.000 A 
ATOM     13  C   UNL     1       4.301   4.227  18.447  0.00  0.00    +0.000 A 
ATOM     14  C   UNL     1       5.631   4.500  18.785  0.00  0.00    +0.000 A 
ATOM     15  C   UNL     1       6.644   4.545  17.813  0.00  0.00    +0.000 A 
BRANCH  15  16
ATOM     16  O   UNL     1       7.848   4.882  18.368  0.00  0.00    +0.000 OA
ATOM     17  C   UNL     1       7.982   6.113  19.056  0.00  0.00    +0.000 C 
ENDBRANCH  15  16
BRANCH  10  18
ATOM     18  O   UNL     1       7.269   4.436  15.498  0.00  0.00    +0.000 OA
BRANCH  18  20
ATOM     19  C   UNL     1       6.698   3.947  13.210  0.00  0.00    +0.000 C 
ATOM     20  C   UNL     1       6.819   5.025  14.272  0.00  0.00    +0.000 C 
ENDBRANCH  18  20
ENDBRANCH  10  18
ENDBRANCH   1  13
BRANCH   5  21
ATOM     21  C   UNL     1       0.403   9.759  20.507  0.00  0.00    +0.000 A 
ATOM     22  C   UNL     1       1.047  10.844  21.113  0.00  0.00    +0.000 A 
ATOM     23  C   UNL     1       0.841  12.150  20.666  0.00  0.00    +0.000 A 
ATOM     24  C   UNL     1       0.055  12.377  19.539  0.00  0.00    +0.000 A 
ATOM     25  C   UNL     1      -0.519  11.299  18.867  0.00  0.00    +0.000 A 
ATOM     26  C   UNL     1      -0.352   9.998  19.353  0.00  0.00    +0.000 A 
ENDBRANCH   5  21
TORSDOF 5
ENDMDL
MODEL 6
REMARK VINA RESULT:      -6.8      1.620      2.367
REMARK  Name = 
REMARK  7 active torsions:
REMARK  status: ('A' for Active; 'I' for Inactive)
REMARK    1  A    between atoms: C_1  and  C_2
REMARK    2  A    between atoms: C_2  and  O_3
REMARK    3  A    between atoms: O_3  and  C_4
REMARK    4  A    between atoms: C_7  and  C_8
REMARK    5  A    between atoms: N_12  and  C_13
REMARK    6  A    between atoms: C_23  and  O_24
REMARK    7  A    between atoms: O_24  and  C_25
REMARK                            x       y       z     vdW  Elec       q    Type
REMARK                         _______ _______ _______ _____ _____    ______ ____
ROOT
ATOM      1  C   UNL     1       1.931   5.684  20.450  0.00  0.00    +0.000 C 
ATOM      2  C   UNL     1       1.631   6.987  20.330  0.00  0.00    +0.000 C 
ATOM      3  S   UNL     1       0.822   7.927  21.540  0.00  0.00    +0.000 S 
ATOM      4  C   UNL     1       1.013   9.408  20.625  0.00  0.00    +0.000 C 
ATOM      5  N   UNL     1       0.463  10.520  20.983  0.00  0.00    +0.000 NA
ATOM      6  N   UNL     1       1.780   9.174  19.528  0.00  0.00    +0.000 N 
ATOM      7  C   UNL     1       1.983   7.873  19.182  0.00  0.00    +0.000 C 
ATOM      8  O   UNL     1       2.300   7.528  18.055  0.00  0.00    +0.000 OA
ATOM      9  H   UNL     1       1.961   9.882  18.839  0.00  0.00    +0.000 HD
ENDROOT
BRANCH   1  13
ATOM     10  C   UNL     1       4.423   4.026  17.404  0.00  0.00    +0.000 A 
ATOM     11  C   UNL     1       3.020   3.953  17.298  0.00  0.00    +0.000 A 
ATOM     12  C   UNL     1       2.187   4.446  18.307  0.00  0.00    +0.000 A 
ATOM     13  C   UNL     1       2.748   4.982  19.461  0.00  0.00    +0.000 A 
ATOM     14  C   UNL     1       4.137   4.955  19.619  0.00  0.00    +0.000 A 
ATOM     15  C   UNL     1       4.987   4.489  18.603  0.00  0.00    +0.000 A 
BRANCH  15  16
ATOM     16  O   UNL     1       6.302   4.608  18.962  0.00  0.00    +0.000 OA
ATOM     17  C   UNL     1       6.999   5.808  18.678  0.00  0.00    +0.000 C 
ENDBRANCH  15  16
BRANCH  10  18
ATOM     18  O   UNL     1       5.242   3.662  16.364  0.00  0.00    +0.000 OA
BRANCH  18  20
ATOM     19  C   UNL     1       6.063   4.063  14.136  0.00  0.00    +0.000 C 
ATOM     20  C   UNL     1       5.515   4.691  15.405  0.00  0.00    +0.000 C 
ENDBRANCH  18  20
ENDBRANCH  10  18
ENDBRANCH   1  13
BRANCH   5  21
ATOM     21  C   UNL     1       0.559  11.669  20.177  0.00  0.00    +0.000 A 
ATOM     22  C   UNL     1       1.637  12.559  20.264  0.00  0.00    +0.000 A 
ATOM     23  C   UNL     1       1.679  13.722  19.495  0.00  0.00    +0.000 A 
ATOM     24  C   UNL     1       0.683  13.964  18.554  0.00  0.00    +0.000 A 
ATOM     25  C   UNL     1      -0.349  13.041  18.387  0.00  0.00    +0.000 A 
ATOM     26  C   UNL     1      -0.415  11.904  19.199  0.00  0.00    +0.000 A 
ENDBRANCH   5  21
TORSDOF 5
ENDMDL
MODEL 7
REMARK VINA RESULT:      -6.7      3.378      4.745
REMARK  Name = 
REMARK  7 active torsions:
REMARK  status: ('A' for Active; 'I' for Inactive)
REMARK    1  A    between atoms: C_1  and  C_2
REMARK    2  A    between atoms: C_2  and  O_3
REMARK    3  A    between atoms: O_3  and  C_4
REMARK    4  A    between atoms: C_7  and  C_8
REMARK    5  A    between atoms: N_12  and  C_13
REMARK    6  A    between atoms: C_23  and  O_24
REMARK    7  A    between atoms: O_24  and  C_25
REMARK                            x       y       z     vdW  Elec       q    Type
REMARK                         _______ _______ _______ _____ _____    ______ ____
ROOT
ATOM      1  C   UNL     1       3.299   7.288  17.557  0.00  0.00    +0.000 C 
ATOM      2  C   UNL     1       2.532   8.085  18.318  0.00  0.00    +0.000 C 
ATOM      3  S   UNL     1       2.008   9.673  17.865  0.00  0.00    +0.000 S 
ATOM      4  C   UNL     1       1.013   9.835  19.298  0.00  0.00    +0.000 C 
ATOM      5  N   UNL     1       0.421  10.939  19.609  0.00  0.00    +0.000 NA
ATOM      6  N   UNL     1       1.005   8.663  19.985  0.00  0.00    +0.000 N 
ATOM      7  C   UNL     1       1.948   7.741  19.648  0.00  0.00    +0.000 C 
ATOM      8  O   UNL     1       2.304   6.849  20.401  0.00  0.00    +0.000 OA
ATOM      9  H   UNL     1       0.540   8.564  20.870  0.00  0.00    +0.000 HD
ENDROOT
BRANCH   1  13
ATOM     10  C   UNL     1       3.859   3.299  18.972  0.00  0.00    +0.000 A 
ATOM     11  C   UNL     1       4.870   4.264  19.141  0.00  0.00    +0.000 A 
ATOM     12  C   UNL     1       4.727   5.563  18.641  0.00  0.00    +0.000 A 
ATOM     13  C   UNL     1       3.583   5.902  17.926  0.00  0.00    +0.000 A 
ATOM     14  C   UNL     1       2.628   4.915  17.661  0.00  0.00    +0.000 A 
ATOM     15  C   UNL     1       2.746   3.616  18.180  0.00  0.00    +0.000 A 
BRANCH  15  16
ATOM     16  O   UNL     1       1.669   2.844  17.834  0.00  0.00    +0.000 OA
ATOM     17  C   UNL     1       0.597   2.689  18.747  0.00  0.00    +0.000 C 
ENDBRANCH  15  16
BRANCH  10  18
ATOM     18  O   UNL     1       3.939   2.064  19.569  0.00  0.00    +0.000 OA
BRANCH  18  20
ATOM     19  C   UNL     1       2.712   2.584  21.575  0.00  0.00    +0.000 C 
ATOM     20  C   UNL     1       4.022   2.076  21.000  0.00  0.00    +0.000 C 
ENDBRANCH  18  20
ENDBRANCH  10  18
ENDBRANCH   1  13
BRANCH   5  21
ATOM     21  C   UNL     1      -0.295  11.064  20.814  0.00  0.00    +0.000 A 
ATOM     22  C   UNL     1      -1.372  11.948  20.959  0.00  0.00    +0.000 A 
ATOM     23  C   UNL     1      -2.027  12.095  22.183  0.00  0.00    +0.000 A 
ATOM     24  C   UNL     1      -1.671  11.285  23.258  0.00  0.00    +0.000 A 
ATOM     25  C   UNL     1      -0.663  10.334  23.104  0.00  0.00    +0.000 A 
ATOM     26  C   UNL     1       0.026  10.230  21.891  0.00  0.00    +0.000 A 
ENDBRANCH   5  21
TORSDOF 5
ENDMDL
MODEL 8
REMARK VINA RESULT:      -6.6      2.875      4.159
REMARK  Name = 
REMARK  7 active torsions:
REMARK  status: ('A' for Active; 'I' for Inactive)
REMARK    1  A    between atoms: C_1  and  C_2
REMARK    2  A    between atoms: C_2  and  O_3
REMARK    3  A    between atoms: O_3  and  C_4
REMARK    4  A    between atoms: C_7  and  C_8
REMARK    5  A    between atoms: N_12  and  C_13
REMARK    6  A    between atoms: C_23  and  O_24
REMARK    7  A    between atoms: O_24  and  C_25
REMARK                            x       y       z     vdW  Elec       q    Type
REMARK                         _______ _______ _______ _____ _____    ______ ____
ROOT
ATOM      1  C   UNL     1       2.839   7.995  17.806  0.00  0.00    +0.000 C 
ATOM      2  C   UNL     1       2.033   8.817  18.496  0.00  0.00    +0.000 C 
ATOM      3  S   UNL     1       1.558  10.399  17.973  0.00  0.00    +0.000 S 
ATOM      4  C   UNL     1       0.473  10.605  19.333  0.00  0.00    +0.000 C 
ATOM      5  N   UNL     1      -0.127  11.722  19.579  0.00  0.00    +0.000 NA
ATOM      6  N   UNL     1       0.405   9.449  20.044  0.00  0.00    +0.000 N 
ATOM      7  C   UNL     1       1.357   8.511  19.791  0.00  0.00    +0.000 C 
ATOM      8  O   UNL     1       1.652   7.633  20.586  0.00  0.00    +0.000 OA
ATOM      9  H   UNL     1      -0.119   9.376  20.898  0.00  0.00    +0.000 HD
ENDROOT
BRANCH   1  13
ATOM     10  C   UNL     1       3.767   3.914  18.655  0.00  0.00    +0.000 A 
ATOM     11  C   UNL     1       2.463   4.286  18.275  0.00  0.00    +0.000 A 
ATOM     12  C   UNL     1       2.126   5.623  18.041  0.00  0.00    +0.000 A 
ATOM     13  C   UNL     1       3.082   6.615  18.225  0.00  0.00    +0.000 A 
ATOM     14  C   UNL     1       4.346   6.262  18.709  0.00  0.00    +0.000 A 
ATOM     15  C   UNL     1       4.706   4.922  18.923  0.00  0.00    +0.000 A 
BRANCH  15  16
ATOM     16  O   UNL     1       6.004   4.818  19.345  0.00  0.00    +0.000 OA
ATOM     17  C   UNL     1       7.058   4.981  18.413  0.00  0.00    +0.000 C 
ENDBRANCH  15  16
BRANCH  10  18
ATOM     18  O   UNL     1       4.135   2.596  18.762  0.00  0.00    +0.000 OA
BRANCH  18  20
ATOM     19  C   UNL     1       3.146   2.489  20.955  0.00  0.00    +0.000 C 
ATOM     20  C   UNL     1       4.343   2.120  20.098  0.00  0.00    +0.000 C 
ENDBRANCH  18  20
ENDBRANCH  10  18
ENDBRANCH   1  13
BRANCH   5  21
ATOM     21  C   UNL     1      -0.919  11.882  20.730  0.00  0.00    +0.000 A 
ATOM     22  C   UNL     1      -0.443  11.587  22.014  0.00  0.00    +0.000 A 
ATOM     23  C   UNL     1      -1.268  11.700  23.134  0.00  0.00    +0.000 A 
ATOM     24  C   UNL     1      -2.559  12.202  22.993  0.00  0.00    +0.000 A 
ATOM     25  C   UNL     1      -3.017  12.589  21.735  0.00  0.00    +0.000 A 
ATOM     26  C   UNL     1      -2.203  12.423  20.608  0.00  0.00    +0.000 A 
ENDBRANCH   5  21
TORSDOF 5
ENDMDL
MODEL 9
REMARK VINA RESULT:      -6.6      3.602      5.025
REMARK  Name = 
REMARK  7 active torsions:
REMARK  status: ('A' for Active; 'I' for Inactive)
REMARK    1  A    between atoms: C_1  and  C_2
REMARK    2  A    between atoms: C_2  and  O_3
REMARK    3  A    between atoms: O_3  and  C_4
REMARK    4  A    between atoms: C_7  and  C_8
REMARK    5  A    between atoms: N_12  and  C_13
REMARK    6  A    between atoms: C_23  and  O_24
REMARK    7  A    between atoms: O_24  and  C_25
REMARK                            x       y       z     vdW  Elec       q    Type
REMARK                         _______ _______ _______ _____ _____    ______ ____
ROOT
ATOM      1  C   UNL     1       2.999   7.747  17.792  0.00  0.00    +0.000 C 
ATOM      2  C   UNL     1       2.202   8.580  18.481  0.00  0.00    +0.000 C 
ATOM      3  S   UNL     1       1.793  10.189  17.984  0.00  0.00    +0.000 S 
ATOM      4  C   UNL     1       0.679  10.399  19.320  0.00  0.00    +0.000 C 
ATOM      5  N   UNL     1       0.110  11.529  19.577  0.00  0.00    +0.000 NA
ATOM      6  N   UNL     1       0.554   9.230  20.001  0.00  0.00    +0.000 N 
ATOM      7  C   UNL     1       1.482   8.266  19.750  0.00  0.00    +0.000 C 
ATOM      8  O   UNL     1       1.727   7.361  20.531  0.00  0.00    +0.000 OA
ATOM      9  H   UNL     1       0.006   9.154  20.839  0.00  0.00    +0.000 HD
ENDROOT
BRANCH   1  13
ATOM     10  C   UNL     1       3.238   3.737  19.239  0.00  0.00    +0.000 A 
ATOM     11  C   UNL     1       4.256   4.664  19.533  0.00  0.00    +0.000 A 
ATOM     12  C   UNL     1       4.222   5.968  19.028  0.00  0.00    +0.000 A 
ATOM     13  C   UNL     1       3.185   6.351  18.184  0.00  0.00    +0.000 A 
ATOM     14  C   UNL     1       2.233   5.402  17.800  0.00  0.00    +0.000 A 
ATOM     15  C   UNL     1       2.239   4.097  18.321  0.00  0.00    +0.000 A 
BRANCH  15  16
ATOM     16  O   UNL     1       1.185   3.368  17.844  0.00  0.00    +0.000 OA
ATOM     17  C   UNL     1       0.481   2.502  18.716  0.00  0.00    +0.000 C 
ENDBRANCH  15  16
BRANCH  10  18
ATOM     18  O   UNL     1       3.200   2.500  19.833  0.00  0.00    +0.000 OA
BRANCH  18  20
ATOM     19  C   UNL     1       1.777   2.735  21.762  0.00  0.00    +0.000 C 
ATOM     20  C   UNL     1       3.193   2.504  21.266  0.00  0.00    +0.000 C 
ENDBRANCH  18  20
ENDBRANCH  10  18
ENDBRANCH   1  13
BRANCH   5  21
ATOM     21  C   UNL     1      -0.706  11.689  20.711  0.00  0.00    +0.000 A 
ATOM     22  C   UNL     1      -0.301  11.287  21.990  0.00  0.00    +0.000 A 
ATOM     23  C   UNL     1      -1.154  11.403  23.088  0.00  0.00    +0.000 A 
ATOM     24  C   UNL     1      -2.395  12.015  22.937  0.00  0.00    +0.000 A 
ATOM     25  C   UNL     1      -2.777  12.507  21.690  0.00  0.00    +0.000 A 
ATOM     26  C   UNL     1      -1.940  12.338  20.581  0.00  0.00    +0.000 A 
ENDBRANCH   5  21
TORSDOF 5
ENDMDL
