MODEL 1
REMARK VINA RESULT:      -6.9      0.000      0.000
REMARK  Name = 
REMARK  3 active torsions:
REMARK  status: ('A' for Active; 'I' for Inactive)
REMARK    1  A    between atoms: C_1  and  C_2
REMARK    2  A    between atoms: C_8  and  N_9
REMARK    3  A    between atoms: C_12  and  C_13
REMARK                            x       y       z     vdW  Elec       q    Type
REMARK                         _______ _______ _______ _____ _____    ______ ____
ROOT
ATOM      1  C   UNL     1       5.150   3.122  11.795  0.00  0.00    +0.000 C 
ATOM      2  C   UNL     1       5.683   3.776  13.035  0.00  0.00    +0.000 A 
ATOM      3  C   UNL     1       6.850   4.537  12.995  0.00  0.00    +0.000 A 
ATOM      4  C   UNL     1       7.321   5.157  14.153  0.00  0.00    +0.000 A 
ATOM      5  C   UNL     1       6.643   5.035  15.376  0.00  0.00    +0.000 A 
ATOM      6  S   UNL     1       7.349   5.890  16.752  0.00  0.00    +0.000 S 
ATOM      7  C   UNL     1       6.272   5.490  18.019  0.00  0.00    +0.000 A 
ATOM      8  C   UNL     1       5.173   4.722  17.977  0.00  0.00    +0.000 A 
ATOM      9  C   UNL     1       4.709   4.080  16.683  0.00  0.00    +0.000 A 
ATOM     10  O   UNL     1       3.685   3.397  16.642  0.00  0.00    +0.000 OA
ATOM     11  C   UNL     1       5.477   4.273  15.428  0.00  0.00    +0.000 A 
ATOM     12  C   UNL     1       4.999   3.656  14.253  0.00  0.00    +0.000 A 
ENDROOT
BRANCH   8  13
ATOM     13  N   UNL     1       4.388   4.493  19.125  0.00  0.00    +0.000 N 
ATOM     14  C   UNL     1       4.666   3.369  20.028  0.00  0.00    +0.000 C 
ATOM     15  C   UNL     1       3.366   2.645  20.362  0.00  0.00    +0.000 C 
ATOM     16  C   UNL     1       2.331   3.613  20.956  0.00  0.00    +0.000 C 
ATOM     17  C   UNL     1       1.005   2.897  21.197  0.00  0.00    +0.000 C 
ATOM     18  C   UNL     1       2.138   4.824  20.033  0.00  0.00    +0.000 C 
ATOM     19  C   UNL     1       3.468   5.492  19.678  0.00  0.00    +0.000 C 
ENDBRANCH   8  13
TORSDOF 1
ENDMDL
MODEL 2
REMARK VINA RESULT:      -6.8      4.221      7.448
REMARK  Name = 
REMARK  3 active torsions:
REMARK  status: ('A' for Active; 'I' for Inactive)
REMARK    1  A    between atoms: C_1  and  C_2
REMARK    2  A    between atoms: C_8  and  N_9
REMARK    3  A    between atoms: C_12  and  C_13
REMARK                            x       y       z     vdW  Elec       q    Type
REMARK                         _______ _______ _______ _____ _____    ______ ____
ROOT
ATOM      1  C   UNL     1      -0.721  10.070  23.316  0.00  0.00    +0.000 C 
ATOM      2  C   UNL     1      -0.074   9.942  21.970  0.00  0.00    +0.000 A 
ATOM      3  C   UNL     1      -0.080  11.007  21.071  0.00  0.00    +0.000 A 
ATOM      4  C   UNL     1       0.545  10.880  19.830  0.00  0.00    +0.000 A 
ATOM      5  C   UNL     1       1.190   9.690  19.455  0.00  0.00    +0.000 A 
ATOM      6  S   UNL     1       1.952   9.682  17.860  0.00  0.00    +0.000 S 
ATOM      7  C   UNL     1       2.593   8.099  17.773  0.00  0.00    +0.000 A 
ATOM      8  C   UNL     1       2.531   7.115  18.683  0.00  0.00    +0.000 A 
ATOM      9  C   UNL     1       1.841   7.320  20.019  0.00  0.00    +0.000 A 
ATOM     10  O   UNL     1       1.809   6.424  20.864  0.00  0.00    +0.000 OA
ATOM     11  C   UNL     1       1.197   8.618  20.343  0.00  0.00    +0.000 A 
ATOM     12  C   UNL     1       0.572   8.754  21.601  0.00  0.00    +0.000 A 
ENDROOT
BRANCH   8  13
ATOM     13  N   UNL     1       3.121   5.856  18.451  0.00  0.00    +0.000 N 
ATOM     14  C   UNL     1       2.358   4.755  17.850  0.00  0.00    +0.000 C 
ATOM     15  C   UNL     1       2.595   3.474  18.641  0.00  0.00    +0.000 C 
ATOM     16  C   UNL     1       4.094   3.149  18.731  0.00  0.00    +0.000 C 
ATOM     17  C   UNL     1       4.323   1.918  19.605  0.00  0.00    +0.000 C 
ATOM     18  C   UNL     1       4.874   4.355  19.272  0.00  0.00    +0.000 C 
ATOM     19  C   UNL     1       4.569   5.632  18.486  0.00  0.00    +0.000 C 
ENDBRANCH   8  13
TORSDOF 1
ENDMDL
MODEL 3
REMARK VINA RESULT:      -6.7      3.179      6.881
REMARK  Name = 
REMARK  3 active torsions:
REMARK  status: ('A' for Active; 'I' for Inactive)
REMARK    1  A    between atoms: C_1  and  C_2
REMARK    2  A    between atoms: C_8  and  N_9
REMARK    3  A    between atoms: C_12  and  C_13
REMARK                            x       y       z     vdW  Elec       q    Type
REMARK                         _______ _______ _______ _____ _____    ______ ____
ROOT
ATOM      1  C   UNL     1       0.546  10.999  18.926  0.00  0.00    +0.000 C 
ATOM      2  C   UNL     1       1.014   9.647  19.375  0.00  0.00    +0.000 A 
ATOM      3  C   UNL     1       0.529   9.079  20.551  0.00  0.00    +0.000 A 
ATOM      4  C   UNL     1       0.957   7.811  20.945  0.00  0.00    +0.000 A 
ATOM      5  C   UNL     1       1.879   7.080  20.178  0.00  0.00    +0.000 A 
ATOM      6  S   UNL     1       2.316   5.481  20.793  0.00  0.00    +0.000 S 
ATOM      7  C   UNL     1       3.438   4.937  19.623  0.00  0.00    +0.000 A 
ATOM      8  C   UNL     1       3.874   5.564  18.520  0.00  0.00    +0.000 A 
ATOM      9  C   UNL     1       3.362   6.943  18.143  0.00  0.00    +0.000 A 
ATOM     10  O   UNL     1       3.745   7.505  17.117  0.00  0.00    +0.000 OA
ATOM     11  C   UNL     1       2.374   7.640  19.003  0.00  0.00    +0.000 A 
ATOM     12  C   UNL     1       1.931   8.919  18.604  0.00  0.00    +0.000 A 
ENDROOT
BRANCH   8  13
ATOM     13  N   UNL     1       4.809   4.966  17.652  0.00  0.00    +0.000 N 
ATOM     14  C   UNL     1       6.254   5.112  17.869  0.00  0.00    +0.000 C 
ATOM     15  C   UNL     1       6.938   5.467  16.553  0.00  0.00    +0.000 C 
ATOM     16  C   UNL     1       6.625   4.426  15.468  0.00  0.00    +0.000 C 
ATOM     17  C   UNL     1       7.236   4.844  14.133  0.00  0.00    +0.000 C 
ATOM     18  C   UNL     1       5.108   4.228  15.336  0.00  0.00    +0.000 C 
ATOM     19  C   UNL     1       4.451   3.925  16.684  0.00  0.00    +0.000 C 
ENDBRANCH   8  13
TORSDOF 1
ENDMDL
MODEL 4
REMARK VINA RESULT:      -6.4      2.410      6.730
REMARK  Name = 
REMARK  3 active torsions:
REMARK  status: ('A' for Active; 'I' for Inactive)
REMARK    1  A    between atoms: C_1  and  C_2
REMARK    2  A    between atoms: C_8  and  N_9
REMARK    3  A    between atoms: C_12  and  C_13
REMARK                            x       y       z     vdW  Elec       q    Type
REMARK                         _______ _______ _______ _____ _____    ______ ____
ROOT
ATOM      1  C   UNL     1       1.089   9.413  19.799  0.00  0.00    +0.000 C 
ATOM      2  C   UNL     1       1.651   8.023  19.809  0.00  0.00    +0.000 A 
ATOM      3  C   UNL     1       1.273   7.108  20.790  0.00  0.00    +0.000 A 
ATOM      4  C   UNL     1       1.788   5.811  20.774  0.00  0.00    +0.000 A 
ATOM      5  C   UNL     1       2.691   5.396  19.782  0.00  0.00    +0.000 A 
ATOM      6  S   UNL     1       3.244   3.720  19.880  0.00  0.00    +0.000 S 
ATOM      7  C   UNL     1       4.311   3.612  18.548  0.00  0.00    +0.000 A 
ATOM      8  C   UNL     1       4.642   4.559  17.657  0.00  0.00    +0.000 A 
ATOM      9  C   UNL     1       4.040   5.950  17.725  0.00  0.00    +0.000 A 
ATOM     10  O   UNL     1       4.325   6.809  16.890  0.00  0.00    +0.000 OA
ATOM     11  C   UNL     1       3.079   6.303  18.800  0.00  0.00    +0.000 A 
ATOM     12  C   UNL     1       2.548   7.610  18.814  0.00  0.00    +0.000 A 
ENDROOT
BRANCH   8  13
ATOM     13  N   UNL     1       5.545   4.300  16.606  0.00  0.00    +0.000 N 
ATOM     14  C   UNL     1       6.986   4.535  16.762  0.00  0.00    +0.000 C 
ATOM     15  C   UNL     1       7.520   5.280  15.545  0.00  0.00    +0.000 C 
ATOM     16  C   UNL     1       7.202   4.521  14.248  0.00  0.00    +0.000 C 
ATOM     17  C   UNL     1       7.658   5.324  13.032  0.00  0.00    +0.000 C 
ATOM     18  C   UNL     1       5.702   4.207  14.163  0.00  0.00    +0.000 C 
ATOM     19  C   UNL     1       5.192   3.506  15.424  0.00  0.00    +0.000 C 
ENDBRANCH   8  13
TORSDOF 1
ENDMDL
MODEL 5
REMARK VINA RESULT:      -6.3      4.079      7.646
REMARK  Name = 
REMARK  3 active torsions:
REMARK  status: ('A' for Active; 'I' for Inactive)
REMARK    1  A    between atoms: C_1  and  C_2
REMARK    2  A    between atoms: C_8  and  N_9
REMARK    3  A    between atoms: C_12  and  C_13
REMARK                            x       y       z     vdW  Elec       q    Type
REMARK                         _______ _______ _______ _____ _____    ______ ____
ROOT
ATOM      1  C   UNL     1      -0.635   9.655  23.428  0.00  0.00    +0.000 C 
ATOM      2  C   UNL     1      -0.039   9.627  22.052  0.00  0.00    +0.000 A 
ATOM      3  C   UNL     1      -0.202  10.704  21.182  0.00  0.00    +0.000 A 
ATOM      4  C   UNL     1       0.377  10.673  19.913  0.00  0.00    +0.000 A 
ATOM      5  C   UNL     1       1.130   9.571  19.480  0.00  0.00    +0.000 A 
ATOM      6  S   UNL     1       1.816   9.681  17.855  0.00  0.00    +0.000 S 
ATOM      7  C   UNL     1       2.622   8.180  17.699  0.00  0.00    +0.000 A 
ATOM      8  C   UNL     1       2.710   7.177  18.585  0.00  0.00    +0.000 A 
ATOM      9  C   UNL     1       2.062   7.276  19.954  0.00  0.00    +0.000 A 
ATOM     10  O   UNL     1       2.167   6.364  20.776  0.00  0.00    +0.000 OA
ATOM     11  C   UNL     1       1.295   8.487  20.339  0.00  0.00    +0.000 A 
ATOM     12  C   UNL     1       0.717   8.526  21.625  0.00  0.00    +0.000 A 
ENDROOT
BRANCH   8  13
ATOM     13  N   UNL     1       3.423   5.997  18.295  0.00  0.00    +0.000 N 
ATOM     14  C   UNL     1       4.817   5.822  18.724  0.00  0.00    +0.000 C 
ATOM     15  C   UNL     1       5.647   5.280  17.567  0.00  0.00    +0.000 C 
ATOM     16  C   UNL     1       5.049   3.974  17.022  0.00  0.00    +0.000 C 
ATOM     17  C   UNL     1       5.834   3.493  15.804  0.00  0.00    +0.000 C 
ATOM     18  C   UNL     1       3.566   4.166  16.674  0.00  0.00    +0.000 C 
ATOM     19  C   UNL     1       2.777   4.761  17.842  0.00  0.00    +0.000 C 
ENDBRANCH   8  13
TORSDOF 1
ENDMDL
MODEL 6
REMARK VINA RESULT:      -6.2      1.657      6.675
REMARK  Name = 
REMARK  3 active torsions:
REMARK  status: ('A' for Active; 'I' for Inactive)
REMARK    1  A    between atoms: C_1  and  C_2
REMARK    2  A    between atoms: C_8  and  N_9
REMARK    3  A    between atoms: C_12  and  C_13
REMARK                            x       y       z     vdW  Elec       q    Type
REMARK                         _______ _______ _______ _____ _____    ______ ____
ROOT
ATOM      1  C   UNL     1       1.434   2.821  21.562  0.00  0.00    +0.000 C 
ATOM      2  C   UNL     1       1.966   3.875  20.637  0.00  0.00    +0.000 A 
ATOM      3  C   UNL     1       1.652   5.219  20.832  0.00  0.00    +0.000 A 
ATOM      4  C   UNL     1       2.172   6.190  19.976  0.00  0.00    +0.000 A 
ATOM      5  C   UNL     1       3.016   5.848  18.908  0.00  0.00    +0.000 A 
ATOM      6  S   UNL     1       3.611   7.187  17.919  0.00  0.00    +0.000 S 
ATOM      7  C   UNL     1       4.562   6.379  16.750  0.00  0.00    +0.000 A 
ATOM      8  C   UNL     1       4.795   5.064  16.617  0.00  0.00    +0.000 A 
ATOM      9  C   UNL     1       4.204   4.058  17.587  0.00  0.00    +0.000 A 
ATOM     10  O   UNL     1       4.441   2.854  17.479  0.00  0.00    +0.000 OA
ATOM     11  C   UNL     1       3.333   4.507  18.702  0.00  0.00    +0.000 A 
ATOM     12  C   UNL     1       2.813   3.529  19.575  0.00  0.00    +0.000 A 
ENDROOT
BRANCH   8  13
ATOM     13  N   UNL     1       5.614   4.560  15.587  0.00  0.00    +0.000 N 
ATOM     14  C   UNL     1       7.050   4.863  15.537  0.00  0.00    +0.000 C 
ATOM     15  C   UNL     1       7.439   5.275  14.121  0.00  0.00    +0.000 C 
ATOM     16  C   UNL     1       7.046   4.194  13.103  0.00  0.00    +0.000 C 
ATOM     17  C   UNL     1       7.354   4.659  11.682  0.00  0.00    +0.000 C 
ATOM     18  C   UNL     1       5.561   3.832  13.249  0.00  0.00    +0.000 C 
ATOM     19  C   UNL     1       5.199   3.476  14.692  0.00  0.00    +0.000 C 
ENDBRANCH   8  13
TORSDOF 1
ENDMDL
MODEL 7
REMARK VINA RESULT:      -6.2      1.078      1.477
REMARK  Name = 
REMARK  3 active torsions:
REMARK  status: ('A' for Active; 'I' for Inactive)
REMARK    1  A    between atoms: C_1  and  C_2
REMARK    2  A    between atoms: C_8  and  N_9
REMARK    3  A    between atoms: C_12  and  C_13
REMARK                            x       y       z     vdW  Elec       q    Type
REMARK                         _______ _______ _______ _____ _____    ______ ____
ROOT
ATOM      1  C   UNL     1       6.212   3.384  12.227  0.00  0.00    +0.000 C 
ATOM      2  C   UNL     1       6.268   4.004  13.591  0.00  0.00    +0.000 A 
ATOM      3  C   UNL     1       7.333   4.825  13.958  0.00  0.00    +0.000 A 
ATOM      4  C   UNL     1       7.360   5.412  15.224  0.00  0.00    +0.000 A 
ATOM      5  C   UNL     1       6.330   5.196  16.152  0.00  0.00    +0.000 A 
ATOM      6  S   UNL     1       6.493   6.019  17.708  0.00  0.00    +0.000 S 
ATOM      7  C   UNL     1       5.090   5.503  18.540  0.00  0.00    +0.000 A 
ATOM      8  C   UNL     1       4.117   4.682  18.118  0.00  0.00    +0.000 A 
ATOM      9  C   UNL     1       4.142   4.081  16.725  0.00  0.00    +0.000 A 
ATOM     10  O   UNL     1       3.233   3.349  16.330  0.00  0.00    +0.000 OA
ATOM     11  C   UNL     1       5.263   4.374  15.797  0.00  0.00    +0.000 A 
ATOM     12  C   UNL     1       5.234   3.790  14.514  0.00  0.00    +0.000 A 
ENDROOT
BRANCH   8  13
ATOM     13  N   UNL     1       3.017   4.359  18.938  0.00  0.00    +0.000 N 
ATOM     14  C   UNL     1       2.614   5.227  20.051  0.00  0.00    +0.000 C 
ATOM     15  C   UNL     1       2.364   4.384  21.296  0.00  0.00    +0.000 C 
ATOM     16  C   UNL     1       1.325   3.286  21.022  0.00  0.00    +0.000 C 
ATOM     17  C   UNL     1       1.156   2.391  22.247  0.00  0.00    +0.000 C 
ATOM     18  C   UNL     1       1.730   2.459  19.793  0.00  0.00    +0.000 C 
ATOM     19  C   UNL     1       2.022   3.343  18.580  0.00  0.00    +0.000 C 
ENDBRANCH   8  13
TORSDOF 1
ENDMDL
MODEL 8
REMARK VINA RESULT:      -6.0      5.331      7.031
REMARK  Name = 
REMARK  3 active torsions:
REMARK  status: ('A' for Active; 'I' for Inactive)
REMARK    1  A    between atoms: C_1  and  C_2
REMARK    2  A    between atoms: C_8  and  N_9
REMARK    3  A    between atoms: C_12  and  C_13
REMARK                            x       y       z     vdW  Elec       q    Type
REMARK                         _______ _______ _______ _____ _____    ______ ____
ROOT
ATOM      1  C   UNL     1       5.248   5.828  15.822  0.00  0.00    +0.000 C 
ATOM      2  C   UNL     1       4.385   5.972  17.040  0.00  0.00    +0.000 A 
ATOM      3  C   UNL     1       4.294   4.943  17.975  0.00  0.00    +0.000 A 
ATOM      4  C   UNL     1       3.504   5.101  19.114  0.00  0.00    +0.000 A 
ATOM      5  C   UNL     1       2.787   6.285  19.349  0.00  0.00    +0.000 A 
ATOM      6  S   UNL     1       1.843   6.346  20.842  0.00  0.00    +0.000 S 
ATOM      7  C   UNL     1       1.125   7.896  20.754  0.00  0.00    +0.000 A 
ATOM      8  C   UNL     1       1.247   8.826  19.795  0.00  0.00    +0.000 A 
ATOM      9  C   UNL     1       2.129   8.595  18.581  0.00  0.00    +0.000 A 
ATOM     10  O   UNL     1       2.261   9.461  17.716  0.00  0.00    +0.000 OA
ATOM     11  C   UNL     1       2.868   7.318  18.418  0.00  0.00    +0.000 A 
ATOM     12  C   UNL     1       3.675   7.158  17.273  0.00  0.00    +0.000 A 
ENDROOT
BRANCH   8  13
ATOM     13  N   UNL     1       0.581  10.065  19.879  0.00  0.00    +0.000 N 
ATOM     14  C   UNL     1      -0.730  10.271  19.251  0.00  0.00    +0.000 C 
ATOM     15  C   UNL     1      -0.732  11.588  18.484  0.00  0.00    +0.000 C 
ATOM     16  C   UNL     1      -0.345  12.761  19.398  0.00  0.00    +0.000 C 
ATOM     17  C   UNL     1      -0.257  14.057  18.598  0.00  0.00    +0.000 C 
ATOM     18  C   UNL     1       0.983  12.470  20.113  0.00  0.00    +0.000 C 
ATOM     19  C   UNL     1       0.963  11.116  20.826  0.00  0.00    +0.000 C 
ENDBRANCH   8  13
TORSDOF 1
ENDMDL
MODEL 9
REMARK VINA RESULT:      -5.9      2.676      6.354
REMARK  Name = 
REMARK  3 active torsions:
REMARK  status: ('A' for Active; 'I' for Inactive)
REMARK    1  A    between atoms: C_1  and  C_2
REMARK    2  A    between atoms: C_8  and  N_9
REMARK    3  A    between atoms: C_12  and  C_13
REMARK                            x       y       z     vdW  Elec       q    Type
REMARK                         _______ _______ _______ _____ _____    ______ ____
ROOT
ATOM      1  C   UNL     1       1.305   2.615  22.142  0.00  0.00    +0.000 C 
ATOM      2  C   UNL     1       1.829   2.759  20.745  0.00  0.00    +0.000 A 
ATOM      3  C   UNL     1       1.238   2.070  19.687  0.00  0.00    +0.000 A 
ATOM      4  C   UNL     1       1.723   2.232  18.389  0.00  0.00    +0.000 A 
ATOM      5  C   UNL     1       2.806   3.081  18.113  0.00  0.00    +0.000 A 
ATOM      6  S   UNL     1       3.299   3.198  16.419  0.00  0.00    +0.000 S 
ATOM      7  C   UNL     1       4.619   4.283  16.500  0.00  0.00    +0.000 A 
ATOM      8  C   UNL     1       5.145   4.889  17.575  0.00  0.00    +0.000 A 
ATOM      9  C   UNL     1       4.566   4.676  18.962  0.00  0.00    +0.000 A 
ATOM     10  O   UNL     1       5.034   5.255  19.943  0.00  0.00    +0.000 OA
ATOM     11  C   UNL     1       3.407   3.771  19.163  0.00  0.00    +0.000 A 
ATOM     12  C   UNL     1       2.908   3.613  20.473  0.00  0.00    +0.000 A 
ENDROOT
BRANCH   8  13
ATOM     13  N   UNL     1       6.244   5.765  17.464  0.00  0.00    +0.000 N 
ATOM     14  C   UNL     1       7.551   5.426  18.042  0.00  0.00    +0.000 C 
ATOM     15  C   UNL     1       8.100   6.625  18.807  0.00  0.00    +0.000 C 
ATOM     16  C   UNL     1       8.177   7.868  17.907  0.00  0.00    +0.000 C 
ATOM     17  C   UNL     1       8.637   9.082  18.710  0.00  0.00    +0.000 C 
ATOM     18  C   UNL     1       6.818   8.135  17.244  0.00  0.00    +0.000 C 
ATOM     19  C   UNL     1       6.276   6.895  16.531  0.00  0.00    +0.000 C 
ENDBRANCH   8  13
TORSDOF 1
ENDMDL
