MODEL 1
REMARK VINA RESULT:      -6.9      0.000      0.000
REMARK  Name = 
REMARK  14 active torsions:
REMARK  status: ('A' for Active; 'I' for Inactive)
REMARK    1  A    between atoms: C_4  and  C_5
REMARK    2  A    between atoms: C_5  and  C_6
REMARK    3  A    between atoms: C_6  and  C_7
REMARK    4  A    between atoms: C_7  and  C_8
REMARK    5  A    between atoms: C_8  and  C_9
REMARK    6  A    between atoms: C_9  and  C_10
REMARK    7  A    between atoms: C_10  and  C_11
REMARK    8  A    between atoms: C_11  and  C_12
REMARK    9  A    between atoms: C_12  and  C_13
REMARK   10  A    between atoms: C_13  and  C_14
REMARK   11  A    between atoms: C_18  and  O_19
REMARK   12  A    between atoms: O_19  and  C_20
REMARK   13  A    between atoms: C_21  and  O_22
REMARK   14  A    between atoms: O_22  and  C_23
REMARK                            x       y       z     vdW  Elec       q    Type
REMARK                         _______ _______ _______ _____ _____    ______ ____
ROOT
ATOM      1  C   UNL     1       1.396   2.781  20.654  0.00  0.00    +0.000 C 
ENDROOT
BRANCH   1   2
ATOM      2  C   UNL     1       1.710   2.060  19.350  0.00  0.00    +0.000 C 
BRANCH   2   3
ATOM      3  C   UNL     1       3.203   1.810  19.173  0.00  0.00    +0.000 C 
BRANCH   3   4
ATOM      4  C   UNL     1       3.632   2.097  17.742  0.00  0.00    +0.000 C 
BRANCH   4   5
ATOM      5  C   UNL     1       2.776   3.211  17.155  0.00  0.00    +0.000 C 
BRANCH   5   6
ATOM      6  C   UNL     1       3.489   4.553  17.278  0.00  0.00    +0.000 C 
BRANCH   6  10
ATOM      7  C   UNL     1       7.794   5.982  19.056  0.00  0.00    +0.000 C 
ATOM      8  C   UNL     1       6.776   5.571  18.296  0.00  0.00    +0.000 C 
ATOM      9  C   UNL     1       5.510   4.944  18.730  0.00  0.00    +0.000 C 
ATOM     10  C   UNL     1       4.997   4.369  17.423  0.00  0.00    +0.000 C 
ATOM     11  O   UNL     1       5.659   5.072  16.362  0.00  0.00    +0.000 OA
ATOM     12  C   UNL     1       6.770   5.703  16.826  0.00  0.00    +0.000 C 
ATOM     13  O   UNL     1       7.591   6.282  16.146  0.00  0.00    +0.000 OA
ENDBRANCH   6  10
ENDBRANCH   5   6
ENDBRANCH   4   5
ENDBRANCH   3   4
ENDBRANCH   2   3
ENDBRANCH   1   2
BRANCH   1  14
ATOM     14  C   UNL     1       0.831   4.194  20.465  0.00  0.00    +0.000 C 
BRANCH  14  15
ATOM     15  C   UNL     1       1.991   5.159  20.265  0.00  0.00    +0.000 C 
BRANCH  15  16
ATOM     16  C   UNL     1       1.810   6.493  20.987  0.00  0.00    +0.000 C 
BRANCH  16  17
ATOM     17  C   UNL     1       1.707   7.582  19.942  0.00  0.00    +0.000 A 
ATOM     18  C   UNL     1       2.491   7.344  18.785  0.00  0.00    +0.000 A 
ATOM     19  C   UNL     1       2.634   8.295  17.787  0.00  0.00    +0.000 A 
ATOM     20  C   UNL     1       1.985   9.510  17.922  0.00  0.00    +0.000 A 
ATOM     21  C   UNL     1       1.181   9.781  19.040  0.00  0.00    +0.000 A 
ATOM     22  C   UNL     1       1.026   8.816  20.072  0.00  0.00    +0.000 A 
BRANCH  21  23
ATOM     23  O   UNL     1       0.645  11.046  18.958  0.00  0.00    +0.000 OA
ATOM     24  C   UNL     1       1.333  12.142  19.539  0.00  0.00    +0.000 C 
ENDBRANCH  21  23
BRANCH  22  25
ATOM     25  O   UNL     1       0.190   9.203  21.075  0.00  0.00    +0.000 OA
ATOM     26  C   UNL     1       0.587   9.617  22.362  0.00  0.00    +0.000 C 
ENDBRANCH  22  25
ENDBRANCH  16  17
ENDBRANCH  15  16
ENDBRANCH  14  15
ENDBRANCH   1  14
TORSDOF 12
ENDMDL
MODEL 2
REMARK VINA RESULT:      -6.8      1.332      6.164
REMARK  Name = 
REMARK  14 active torsions:
REMARK  status: ('A' for Active; 'I' for Inactive)
REMARK    1  A    between atoms: C_4  and  C_5
REMARK    2  A    between atoms: C_5  and  C_6
REMARK    3  A    between atoms: C_6  and  C_7
REMARK    4  A    between atoms: C_7  and  C_8
REMARK    5  A    between atoms: C_8  and  C_9
REMARK    6  A    between atoms: C_9  and  C_10
REMARK    7  A    between atoms: C_10  and  C_11
REMARK    8  A    between atoms: C_11  and  C_12
REMARK    9  A    between atoms: C_12  and  C_13
REMARK   10  A    between atoms: C_13  and  C_14
REMARK   11  A    between atoms: C_18  and  O_19
REMARK   12  A    between atoms: O_19  and  C_20
REMARK   13  A    between atoms: C_21  and  O_22
REMARK   14  A    between atoms: O_22  and  C_23
REMARK                            x       y       z     vdW  Elec       q    Type
REMARK                         _______ _______ _______ _____ _____    ______ ____
ROOT
ATOM      1  C   UNL     1       1.527   3.325  17.687  0.00  0.00    +0.000 C 
ENDROOT
BRANCH   1   2
ATOM      2  C   UNL     1       1.892   2.443  18.873  0.00  0.00    +0.000 C 
BRANCH   2   3
ATOM      3  C   UNL     1       1.009   2.711  20.086  0.00  0.00    +0.000 C 
BRANCH   3   4
ATOM      4  C   UNL     1       1.110   4.167  20.516  0.00  0.00    +0.000 C 
BRANCH   4   5
ATOM      5  C   UNL     1       2.521   4.470  21.001  0.00  0.00    +0.000 C 
BRANCH   5   6
ATOM      6  C   UNL     1       3.121   5.626  20.209  0.00  0.00    +0.000 C 
BRANCH   6  10
ATOM      7  C   UNL     1       1.755   9.619  17.774  0.00  0.00    +0.000 C 
ATOM      8  C   UNL     1       1.906   8.620  18.646  0.00  0.00    +0.000 C 
ATOM      9  C   UNL     1       2.532   7.300  18.420  0.00  0.00    +0.000 C 
ATOM     10  C   UNL     1       2.032   6.521  19.623  0.00  0.00    +0.000 C 
ATOM     11  O   UNL     1       1.632   7.480  20.612  0.00  0.00    +0.000 OA
ATOM     12  C   UNL     1       1.447   8.702  20.046  0.00  0.00    +0.000 C 
ATOM     13  O   UNL     1       1.002   9.682  20.607  0.00  0.00    +0.000 OA
ENDBRANCH   6  10
ENDBRANCH   5   6
ENDBRANCH   4   5
ENDBRANCH   3   4
ENDBRANCH   2   3
ENDBRANCH   1   2
BRANCH   1  14
ATOM     14  C   UNL     1       2.735   3.956  16.984  0.00  0.00    +0.000 C 
BRANCH  14  15
ATOM     15  C   UNL     1       3.987   3.195  17.392  0.00  0.00    +0.000 C 
BRANCH  15  16
ATOM     16  C   UNL     1       5.188   3.460  16.483  0.00  0.00    +0.000 C 
BRANCH  16  17
ATOM     17  C   UNL     1       6.039   4.530  17.132  0.00  0.00    +0.000 A 
ATOM     18  C   UNL     1       6.100   4.437  18.545  0.00  0.00    +0.000 A 
ATOM     19  C   UNL     1       6.713   5.411  19.319  0.00  0.00    +0.000 A 
ATOM     20  C   UNL     1       7.288   6.501  18.690  0.00  0.00    +0.000 A 
ATOM     21  C   UNL     1       7.271   6.623  17.291  0.00  0.00    +0.000 A 
ATOM     22  C   UNL     1       6.645   5.633  16.487  0.00  0.00    +0.000 A 
BRANCH  21  23
ATOM     23  O   UNL     1       7.895   7.785  16.898  0.00  0.00    +0.000 OA
ATOM     24  C   UNL     1       8.106   8.826  17.837  0.00  0.00    +0.000 C 
ENDBRANCH  21  23
BRANCH  22  25
ATOM     25  O   UNL     1       6.737   5.866  15.147  0.00  0.00    +0.000 OA
ATOM     26  C   UNL     1       7.018   4.897  14.163  0.00  0.00    +0.000 C 
ENDBRANCH  22  25
ENDBRANCH  16  17
ENDBRANCH  15  16
ENDBRANCH  14  15
ENDBRANCH   1  14
TORSDOF 12
ENDMDL
MODEL 3
REMARK VINA RESULT:      -6.5      1.959      2.549
REMARK  Name = 
REMARK  14 active torsions:
REMARK  status: ('A' for Active; 'I' for Inactive)
REMARK    1  A    between atoms: C_4  and  C_5
REMARK    2  A    between atoms: C_5  and  C_6
REMARK    3  A    between atoms: C_6  and  C_7
REMARK    4  A    between atoms: C_7  and  C_8
REMARK    5  A    between atoms: C_8  and  C_9
REMARK    6  A    between atoms: C_9  and  C_10
REMARK    7  A    between atoms: C_10  and  C_11
REMARK    8  A    between atoms: C_11  and  C_12
REMARK    9  A    between atoms: C_12  and  C_13
REMARK   10  A    between atoms: C_13  and  C_14
REMARK   11  A    between atoms: C_18  and  O_19
REMARK   12  A    between atoms: O_19  and  C_20
REMARK   13  A    between atoms: C_21  and  O_22
REMARK   14  A    between atoms: O_22  and  C_23
REMARK                            x       y       z     vdW  Elec       q    Type
REMARK                         _______ _______ _______ _____ _____    ______ ____
ROOT
ATOM      1  C   UNL     1       2.514   2.374  20.029  0.00  0.00    +0.000 C 
ENDROOT
BRANCH   1   2
ATOM      2  C   UNL     1       3.966   2.756  20.278  0.00  0.00    +0.000 C 
BRANCH   2   3
ATOM      3  C   UNL     1       4.547   3.590  19.142  0.00  0.00    +0.000 C 
BRANCH   3   4
ATOM      4  C   UNL     1       3.821   3.304  17.837  0.00  0.00    +0.000 C 
BRANCH   4   5
ATOM      5  C   UNL     1       4.773   3.480  16.662  0.00  0.00    +0.000 C 
BRANCH   5   6
ATOM      6  C   UNL     1       5.161   4.945  16.504  0.00  0.00    +0.000 C 
BRANCH   6  10
ATOM      7  C   UNL     1       6.815   3.659  12.105  0.00  0.00    +0.000 C 
ATOM      8  C   UNL     1       6.552   4.263  13.266  0.00  0.00    +0.000 C 
ATOM      9  C   UNL     1       5.390   4.057  14.157  0.00  0.00    +0.000 C 
ATOM     10  C   UNL     1       5.477   5.282  15.049  0.00  0.00    +0.000 C 
ATOM     11  O   UNL     1       6.820   5.775  14.963  0.00  0.00    +0.000 OA
ATOM     12  C   UNL     1       7.444   5.274  13.863  0.00  0.00    +0.000 C 
ATOM     13  O   UNL     1       8.545   5.596  13.466  0.00  0.00    +0.000 OA
ENDBRANCH   6  10
ENDBRANCH   5   6
ENDBRANCH   4   5
ENDBRANCH   3   4
ENDBRANCH   2   3
ENDBRANCH   1   2
BRANCH   1  14
ATOM     14  C   UNL     1       1.512   3.106  20.931  0.00  0.00    +0.000 C 
BRANCH  14  15
ATOM     15  C   UNL     1       1.235   4.478  20.335  0.00  0.00    +0.000 C 
BRANCH  15  16
ATOM     16  C   UNL     1       2.090   5.592  20.940  0.00  0.00    +0.000 C 
BRANCH  16  17
ATOM     17  C   UNL     1       1.934   6.824  20.075  0.00  0.00    +0.000 A 
ATOM     18  C   UNL     1       2.447   6.674  18.762  0.00  0.00    +0.000 A 
ATOM     19  C   UNL     1       2.521   7.738  17.877  0.00  0.00    +0.000 A 
ATOM     20  C   UNL     1       2.073   8.981  18.287  0.00  0.00    +0.000 A 
ATOM     21  C   UNL     1       1.538   9.172  19.571  0.00  0.00    +0.000 A 
ATOM     22  C   UNL     1       1.457   8.090  20.488  0.00  0.00    +0.000 A 
BRANCH  21  23
ATOM     23  O   UNL     1       1.167  10.485  19.752  0.00  0.00    +0.000 OA
ATOM     24  C   UNL     1       0.760  11.264  18.638  0.00  0.00    +0.000 C 
ENDBRANCH  21  23
BRANCH  22  25
ATOM     25  O   UNL     1       0.884   8.415  21.681  0.00  0.00    +0.000 OA
ATOM     26  C   UNL     1      -0.499   8.539  21.920  0.00  0.00    +0.000 C 
ENDBRANCH  22  25
ENDBRANCH  16  17
ENDBRANCH  15  16
ENDBRANCH  14  15
ENDBRANCH   1  14
TORSDOF 12
ENDMDL
MODEL 4
REMARK VINA RESULT:      -6.4      1.137      1.675
REMARK  Name = 
REMARK  14 active torsions:
REMARK  status: ('A' for Active; 'I' for Inactive)
REMARK    1  A    between atoms: C_4  and  C_5
REMARK    2  A    between atoms: C_5  and  C_6
REMARK    3  A    between atoms: C_6  and  C_7
REMARK    4  A    between atoms: C_7  and  C_8
REMARK    5  A    between atoms: C_8  and  C_9
REMARK    6  A    between atoms: C_9  and  C_10
REMARK    7  A    between atoms: C_10  and  C_11
REMARK    8  A    between atoms: C_11  and  C_12
REMARK    9  A    between atoms: C_12  and  C_13
REMARK   10  A    between atoms: C_13  and  C_14
REMARK   11  A    between atoms: C_18  and  O_19
REMARK   12  A    between atoms: O_19  and  C_20
REMARK   13  A    between atoms: C_21  and  O_22
REMARK   14  A    between atoms: O_22  and  C_23
REMARK                            x       y       z     vdW  Elec       q    Type
REMARK                         _______ _______ _______ _____ _____    ______ ____
ROOT
ATOM      1  C   UNL     1       1.613   3.221  21.252  0.00  0.00    +0.000 C 
ENDROOT
BRANCH   1   2
ATOM      2  C   UNL     1       2.083   1.971  20.524  0.00  0.00    +0.000 C 
BRANCH   2   3
ATOM      3  C   UNL     1       2.957   2.297  19.318  0.00  0.00    +0.000 C 
BRANCH   3   4
ATOM      4  C   UNL     1       4.357   2.696  19.759  0.00  0.00    +0.000 C 
BRANCH   4   5
ATOM      5  C   UNL     1       4.930   3.731  18.801  0.00  0.00    +0.000 C 
BRANCH   5   6
ATOM      6  C   UNL     1       3.908   4.089  17.728  0.00  0.00    +0.000 C 
BRANCH   6  10
ATOM      7  C   UNL     1       7.169   4.939  14.208  0.00  0.00    +0.000 C 
ATOM      8  C   UNL     1       6.369   4.992  15.276  0.00  0.00    +0.000 C 
ATOM      9  C   UNL     1       5.140   4.211  15.533  0.00  0.00    +0.000 C 
ATOM     10  C   UNL     1       4.514   5.003  16.666  0.00  0.00    +0.000 C 
ATOM     11  O   UNL     1       5.557   5.786  17.263  0.00  0.00    +0.000 OA
ATOM     12  C   UNL     1       6.621   5.885  16.422  0.00  0.00    +0.000 C 
ATOM     13  O   UNL     1       7.604   6.574  16.603  0.00  0.00    +0.000 OA
ENDBRANCH   6  10
ENDBRANCH   5   6
ENDBRANCH   4   5
ENDBRANCH   3   4
ENDBRANCH   2   3
ENDBRANCH   1   2
BRANCH   1  14
ATOM     14  C   UNL     1       0.990   4.281  20.335  0.00  0.00    +0.000 C 
BRANCH  14  15
ATOM     15  C   UNL     1       1.319   5.659  20.890  0.00  0.00    +0.000 C 
BRANCH  15  16
ATOM     16  C   UNL     1       2.513   6.325  20.208  0.00  0.00    +0.000 C 
BRANCH  16  17
ATOM     17  C   UNL     1       2.037   7.624  19.594  0.00  0.00    +0.000 A 
ATOM     18  C   UNL     1       2.371   7.769  18.224  0.00  0.00    +0.000 A 
ATOM     19  C   UNL     1       2.145   8.949  17.534  0.00  0.00    +0.000 A 
ATOM     20  C   UNL     1       1.568  10.015  18.203  0.00  0.00    +0.000 A 
ATOM     21  C   UNL     1       1.201   9.910  19.554  0.00  0.00    +0.000 A 
ATOM     22  C   UNL     1       1.429   8.706  20.274  0.00  0.00    +0.000 A 
BRANCH  21  23
ATOM     23  O   UNL     1       0.655  11.091  20.002  0.00  0.00    +0.000 OA
ATOM     24  C   UNL     1       1.305  12.320  19.723  0.00  0.00    +0.000 C 
ENDBRANCH  21  23
BRANCH  22  25
ATOM     25  O   UNL     1       0.990   8.738  21.563  0.00  0.00    +0.000 OA
ATOM     26  C   UNL     1      -0.358   8.745  21.972  0.00  0.00    +0.000 C 
ENDBRANCH  22  25
ENDBRANCH  16  17
ENDBRANCH  15  16
ENDBRANCH  14  15
ENDBRANCH   1  14
TORSDOF 12
ENDMDL
MODEL 5
REMARK VINA RESULT:      -6.4      1.295      1.407
REMARK  Name = 
REMARK  14 active torsions:
REMARK  status: ('A' for Active; 'I' for Inactive)
REMARK    1  A    between atoms: C_4  and  C_5
REMARK    2  A    between atoms: C_5  and  C_6
REMARK    3  A    between atoms: C_6  and  C_7
REMARK    4  A    between atoms: C_7  and  C_8
REMARK    5  A    between atoms: C_8  and  C_9
REMARK    6  A    between atoms: C_9  and  C_10
REMARK    7  A    between atoms: C_10  and  C_11
REMARK    8  A    between atoms: C_11  and  C_12
REMARK    9  A    between atoms: C_12  and  C_13
REMARK   10  A    between atoms: C_13  and  C_14
REMARK   11  A    between atoms: C_18  and  O_19
REMARK   12  A    between atoms: O_19  and  C_20
REMARK   13  A    between atoms: C_21  and  O_22
REMARK   14  A    between atoms: O_22  and  C_23
REMARK                            x       y       z     vdW  Elec       q    Type
REMARK                         _______ _______ _______ _____ _____    ______ ____
ROOT
ATOM      1  C   UNL     1       0.787   3.001  20.075  0.00  0.00    +0.000 C 
ENDROOT
BRANCH   1   2
ATOM      2  C   UNL     1       1.839   1.985  19.653  0.00  0.00    +0.000 C 
BRANCH   2   3
ATOM      3  C   UNL     1       2.405   2.280  18.269  0.00  0.00    +0.000 C 
BRANCH   3   4
ATOM      4  C   UNL     1       3.841   2.773  18.367  0.00  0.00    +0.000 C 
BRANCH   4   5
ATOM      5  C   UNL     1       4.283   3.359  17.034  0.00  0.00    +0.000 C 
BRANCH   5   6
ATOM      6  C   UNL     1       3.975   4.851  16.978  0.00  0.00    +0.000 C 
BRANCH   6  10
ATOM      7  C   UNL     1       7.897   7.671  17.619  0.00  0.00    +0.000 C 
ATOM      8  C   UNL     1       6.946   6.736  17.687  0.00  0.00    +0.000 C 
ATOM      9  C   UNL     1       5.571   6.794  17.146  0.00  0.00    +0.000 C 
ATOM     10  C   UNL     1       4.911   5.645  17.886  0.00  0.00    +0.000 C 
ATOM     11  O   UNL     1       5.957   4.782  18.350  0.00  0.00    +0.000 OA
ATOM     12  C   UNL     1       7.152   5.432  18.345  0.00  0.00    +0.000 C 
ATOM     13  O   UNL     1       8.196   4.998  18.786  0.00  0.00    +0.000 OA
ENDBRANCH   6  10
ENDBRANCH   5   6
ENDBRANCH   4   5
ENDBRANCH   3   4
ENDBRANCH   2   3
ENDBRANCH   1   2
BRANCH   1  14
ATOM     14  C   UNL     1       1.359   4.230  20.792  0.00  0.00    +0.000 C 
BRANCH  14  15
ATOM     15  C   UNL     1       1.496   5.361  19.783  0.00  0.00    +0.000 C 
BRANCH  15  16
ATOM     16  C   UNL     1       2.412   6.491  20.251  0.00  0.00    +0.000 C 
BRANCH  16  17
ATOM     17  C   UNL     1       1.898   7.786  19.659  0.00  0.00    +0.000 A 
ATOM     18  C   UNL     1       2.234   7.967  18.293  0.00  0.00    +0.000 A 
ATOM     19  C   UNL     1       1.973   9.152  17.624  0.00  0.00    +0.000 A 
ATOM     20  C   UNL     1       1.360  10.186  18.309  0.00  0.00    +0.000 A 
ATOM     21  C   UNL     1       0.989  10.044  19.656  0.00  0.00    +0.000 A 
ATOM     22  C   UNL     1       1.252   8.835  20.354  0.00  0.00    +0.000 A 
BRANCH  21  23
ATOM     23  O   UNL     1       0.403  11.199  20.122  0.00  0.00    +0.000 OA
ATOM     24  C   UNL     1      -0.884  11.574  19.659  0.00  0.00    +0.000 C 
ENDBRANCH  21  23
BRANCH  22  25
ATOM     25  O   UNL     1       0.806   8.828  21.642  0.00  0.00    +0.000 OA
ATOM     26  C   UNL     1      -0.536   8.680  22.045  0.00  0.00    +0.000 C 
ENDBRANCH  22  25
ENDBRANCH  16  17
ENDBRANCH  15  16
ENDBRANCH  14  15
ENDBRANCH   1  14
TORSDOF 12
ENDMDL
MODEL 6
REMARK VINA RESULT:      -6.4      5.113      7.794
REMARK  Name = 
REMARK  14 active torsions:
REMARK  status: ('A' for Active; 'I' for Inactive)
REMARK    1  A    between atoms: C_4  and  C_5
REMARK    2  A    between atoms: C_5  and  C_6
REMARK    3  A    between atoms: C_6  and  C_7
REMARK    4  A    between atoms: C_7  and  C_8
REMARK    5  A    between atoms: C_8  and  C_9
REMARK    6  A    between atoms: C_9  and  C_10
REMARK    7  A    between atoms: C_10  and  C_11
REMARK    8  A    between atoms: C_11  and  C_12
REMARK    9  A    between atoms: C_12  and  C_13
REMARK   10  A    between atoms: C_13  and  C_14
REMARK   11  A    between atoms: C_18  and  O_19
REMARK   12  A    between atoms: O_19  and  C_20
REMARK   13  A    between atoms: C_21  and  O_22
REMARK   14  A    between atoms: O_22  and  C_23
REMARK                            x       y       z     vdW  Elec       q    Type
REMARK                         _______ _______ _______ _____ _____    ______ ____
ROOT
ATOM      1  C   UNL     1       7.434   6.971  18.001  0.00  0.00    +0.000 C 
ENDROOT
BRANCH   1   2
ATOM      2  C   UNL     1       7.285   6.022  16.820  0.00  0.00    +0.000 C 
BRANCH   2   3
ATOM      3  C   UNL     1       6.610   4.713  17.212  0.00  0.00    +0.000 C 
BRANCH   3   4
ATOM      4  C   UNL     1       5.497   4.366  16.236  0.00  0.00    +0.000 C 
BRANCH   4   5
ATOM      5  C   UNL     1       4.215   4.058  16.996  0.00  0.00    +0.000 C 
BRANCH   5   6
ATOM      6  C   UNL     1       3.768   5.272  17.803  0.00  0.00    +0.000 C 
BRANCH   6  10
ATOM      7  C   UNL     1       1.217   2.887  21.201  0.00  0.00    +0.000 C 
ATOM      8  C   UNL     1       1.669   3.463  20.085  0.00  0.00    +0.000 C 
ATOM      9  C   UNL     1       2.699   4.516  19.956  0.00  0.00    +0.000 C 
ATOM     10  C   UNL     1       2.458   4.998  18.538  0.00  0.00    +0.000 C 
ATOM     11  O   UNL     1       1.745   3.960  17.852  0.00  0.00    +0.000 OA
ATOM     12  C   UNL     1       1.180   3.100  18.741  0.00  0.00    +0.000 C 
ATOM     13  O   UNL     1       0.426   2.190  18.465  0.00  0.00    +0.000 OA
ENDBRANCH   6  10
ENDBRANCH   5   6
ENDBRANCH   4   5
ENDBRANCH   3   4
ENDBRANCH   2   3
ENDBRANCH   1   2
BRANCH   1  14
ATOM     14  C   UNL     1       7.608   8.442  17.601  0.00  0.00    +0.000 C 
BRANCH  14  15
ATOM     15  C   UNL     1       8.771   9.025  18.391  0.00  0.00    +0.000 C 
BRANCH  15  16
ATOM     16  C   UNL     1       8.493  10.421  18.948  0.00  0.00    +0.000 C 
BRANCH  16  17
ATOM     17  C   UNL     1       9.652  11.317  18.566  0.00  0.00    +0.000 A 
ATOM     18  C   UNL     1      10.886  10.943  19.155  0.00  0.00    +0.000 A 
ATOM     19  C   UNL     1      12.024  11.725  19.035  0.00  0.00    +0.000 A 
ATOM     20  C   UNL     1      11.952  12.903  18.312  0.00  0.00    +0.000 A 
ATOM     21  C   UNL     1      10.757  13.303  17.694  0.00  0.00    +0.000 A 
ATOM     22  C   UNL     1       9.583  12.511  17.810  0.00  0.00    +0.000 A 
BRANCH  21  23
ATOM     23  O   UNL     1      10.925  14.503  17.040  0.00  0.00    +0.000 OA
ATOM     24  C   UNL     1      10.655  15.719  17.718  0.00  0.00    +0.000 C 
ENDBRANCH  21  23
BRANCH  22  25
ATOM     25  O   UNL     1       8.510  13.004  17.129  0.00  0.00    +0.000 OA
ATOM     26  C   UNL     1       7.470  13.776  17.684  0.00  0.00    +0.000 C 
ENDBRANCH  22  25
ENDBRANCH  16  17
ENDBRANCH  15  16
ENDBRANCH  14  15
ENDBRANCH   1  14
TORSDOF 12
ENDMDL
MODEL 7
REMARK VINA RESULT:      -6.4      1.367      6.631
REMARK  Name = 
REMARK  14 active torsions:
REMARK  status: ('A' for Active; 'I' for Inactive)
REMARK    1  A    between atoms: C_4  and  C_5
REMARK    2  A    between atoms: C_5  and  C_6
REMARK    3  A    between atoms: C_6  and  C_7
REMARK    4  A    between atoms: C_7  and  C_8
REMARK    5  A    between atoms: C_8  and  C_9
REMARK    6  A    between atoms: C_9  and  C_10
REMARK    7  A    between atoms: C_10  and  C_11
REMARK    8  A    between atoms: C_11  and  C_12
REMARK    9  A    between atoms: C_12  and  C_13
REMARK   10  A    between atoms: C_13  and  C_14
REMARK   11  A    between atoms: C_18  and  O_19
REMARK   12  A    between atoms: O_19  and  C_20
REMARK   13  A    between atoms: C_21  and  O_22
REMARK   14  A    between atoms: O_22  and  C_23
REMARK                            x       y       z     vdW  Elec       q    Type
REMARK                         _______ _______ _______ _____ _____    ______ ____
ROOT
ATOM      1  C   UNL     1       1.771   1.925  19.519  0.00  0.00    +0.000 C 
ENDROOT
BRANCH   1   2
ATOM      2  C   UNL     1       2.635   2.589  20.582  0.00  0.00    +0.000 C 
BRANCH   2   3
ATOM      3  C   UNL     1       1.862   3.623  21.392  0.00  0.00    +0.000 C 
BRANCH   3   4
ATOM      4  C   UNL     1       2.457   5.010  21.205  0.00  0.00    +0.000 C 
BRANCH   4   5
ATOM      5  C   UNL     1       1.610   5.813  20.228  0.00  0.00    +0.000 C 
BRANCH   5   6
ATOM      6  C   UNL     1       2.111   7.251  20.143  0.00  0.00    +0.000 C 
BRANCH   6  10
ATOM      7  C   UNL     1       0.546  11.814  20.831  0.00  0.00    +0.000 C 
ATOM      8  C   UNL     1       0.797  10.504  20.900  0.00  0.00    +0.000 C 
ATOM      9  C   UNL     1       1.301   9.616  19.831  0.00  0.00    +0.000 C 
ATOM     10  C   UNL     1       0.984   8.248  20.404  0.00  0.00    +0.000 C 
ATOM     11  O   UNL     1       0.820   8.409  21.819  0.00  0.00    +0.000 OA
ATOM     12  C   UNL     1       0.602   9.714  22.130  0.00  0.00    +0.000 C 
ATOM     13  O   UNL     1       0.317  10.142  23.230  0.00  0.00    +0.000 OA
ENDBRANCH   6  10
ENDBRANCH   5   6
ENDBRANCH   4   5
ENDBRANCH   3   4
ENDBRANCH   2   3
ENDBRANCH   1   2
BRANCH   1  14
ATOM     14  C   UNL     1       1.938   2.523  18.117  0.00  0.00    +0.000 C 
BRANCH  14  15
ATOM     15  C   UNL     1       3.418   2.771  17.867  0.00  0.00    +0.000 C 
BRANCH  15  16
ATOM     16  C   UNL     1       3.694   3.967  16.957  0.00  0.00    +0.000 C 
BRANCH  16  17
ATOM     17  C   UNL     1       4.923   4.679  17.478  0.00  0.00    +0.000 A 
ATOM     18  C   UNL     1       5.094   4.577  18.882  0.00  0.00    +0.000 A 
ATOM     19  C   UNL     1       6.079   5.282  19.555  0.00  0.00    +0.000 A 
ATOM     20  C   UNL     1       6.926   6.104  18.832  0.00  0.00    +0.000 A 
ATOM     21  C   UNL     1       6.807   6.219  17.437  0.00  0.00    +0.000 A 
ATOM     22  C   UNL     1       5.800   5.504  16.736  0.00  0.00    +0.000 A 
BRANCH  21  23
ATOM     23  O   UNL     1       7.749   7.092  16.941  0.00  0.00    +0.000 OA
ATOM     24  C   UNL     1       7.931   8.357  17.555  0.00  0.00    +0.000 C 
ENDBRANCH  21  23
BRANCH  22  25
ATOM     25  O   UNL     1       5.828   5.685  15.385  0.00  0.00    +0.000 OA
ATOM     26  C   UNL     1       6.518   4.875  14.462  0.00  0.00    +0.000 C 
ENDBRANCH  22  25
ENDBRANCH  16  17
ENDBRANCH  15  16
ENDBRANCH  14  15
ENDBRANCH   1  14
TORSDOF 12
ENDMDL
MODEL 8
REMARK VINA RESULT:      -6.4      1.290      1.593
REMARK  Name = 
REMARK  14 active torsions:
REMARK  status: ('A' for Active; 'I' for Inactive)
REMARK    1  A    between atoms: C_4  and  C_5
REMARK    2  A    between atoms: C_5  and  C_6
REMARK    3  A    between atoms: C_6  and  C_7
REMARK    4  A    between atoms: C_7  and  C_8
REMARK    5  A    between atoms: C_8  and  C_9
REMARK    6  A    between atoms: C_9  and  C_10
REMARK    7  A    between atoms: C_10  and  C_11
REMARK    8  A    between atoms: C_11  and  C_12
REMARK    9  A    between atoms: C_12  and  C_13
REMARK   10  A    between atoms: C_13  and  C_14
REMARK   11  A    between atoms: C_18  and  O_19
REMARK   12  A    between atoms: O_19  and  C_20
REMARK   13  A    between atoms: C_21  and  O_22
REMARK   14  A    between atoms: O_22  and  C_23
REMARK                            x       y       z     vdW  Elec       q    Type
REMARK                         _______ _______ _______ _____ _____    ______ ____
ROOT
ATOM      1  C   UNL     1       0.896   2.793  19.661  0.00  0.00    +0.000 C 
ENDROOT
BRANCH   1   2
ATOM      2  C   UNL     1       2.217   2.444  18.990  0.00  0.00    +0.000 C 
BRANCH   2   3
ATOM      3  C   UNL     1       2.085   2.336  17.475  0.00  0.00    +0.000 C 
BRANCH   3   4
ATOM      4  C   UNL     1       3.069   3.265  16.781  0.00  0.00    +0.000 C 
BRANCH   4   5
ATOM      5  C   UNL     1       4.201   3.631  17.732  0.00  0.00    +0.000 C 
BRANCH   5   6
ATOM      6  C   UNL     1       5.150   4.626  17.075  0.00  0.00    +0.000 C 
BRANCH   6  10
ATOM      7  C   UNL     1       8.469   7.937  18.404  0.00  0.00    +0.000 C 
ATOM      8  C   UNL     1       7.621   6.908  18.328  0.00  0.00    +0.000 C 
ATOM      9  C   UNL     1       6.461   6.749  17.424  0.00  0.00    +0.000 C 
ATOM     10  C   UNL     1       5.713   5.612  18.095  0.00  0.00    +0.000 C 
ATOM     11  O   UNL     1       6.649   4.929  18.940  0.00  0.00    +0.000 OA
ATOM     12  C   UNL     1       7.735   5.710  19.180  0.00  0.00    +0.000 C 
ATOM     13  O   UNL     1       8.639   5.449  19.947  0.00  0.00    +0.000 OA
ENDBRANCH   6  10
ENDBRANCH   5   6
ENDBRANCH   4   5
ENDBRANCH   3   4
ENDBRANCH   2   3
ENDBRANCH   1   2
BRANCH   1  14
ATOM     14  C   UNL     1       0.958   4.041  20.549  0.00  0.00    +0.000 C 
BRANCH  14  15
ATOM     15  C   UNL     1       2.239   4.799  20.234  0.00  0.00    +0.000 C 
BRANCH  15  16
ATOM     16  C   UNL     1       2.358   6.134  20.969  0.00  0.00    +0.000 C 
BRANCH  16  17
ATOM     17  C   UNL     1       2.027   7.239  19.991  0.00  0.00    +0.000 A 
ATOM     18  C   UNL     1       2.479   6.992  18.670  0.00  0.00    +0.000 A 
ATOM     19  C   UNL     1       2.393   7.952  17.673  0.00  0.00    +0.000 A 
ATOM     20  C   UNL     1       1.842   9.184  17.977  0.00  0.00    +0.000 A 
ATOM     21  C   UNL     1       1.361   9.466  19.266  0.00  0.00    +0.000 A 
ATOM     22  C   UNL     1       1.445   8.492  20.297  0.00  0.00    +0.000 A 
BRANCH  21  23
ATOM     23  O   UNL     1       0.866  10.748  19.330  0.00  0.00    +0.000 OA
ATOM     24  C   UNL     1       1.563  11.806  18.694  0.00  0.00    +0.000 C 
ENDBRANCH  21  23
BRANCH  22  25
ATOM     25  O   UNL     1       0.907   8.891  21.484  0.00  0.00    +0.000 OA
ATOM     26  C   UNL     1      -0.430   8.702  21.884  0.00  0.00    +0.000 C 
ENDBRANCH  22  25
ENDBRANCH  16  17
ENDBRANCH  15  16
ENDBRANCH  14  15
ENDBRANCH   1  14
TORSDOF 12
ENDMDL
MODEL 9
REMARK VINA RESULT:      -6.3      2.080      4.095
REMARK  Name = 
REMARK  14 active torsions:
REMARK  status: ('A' for Active; 'I' for Inactive)
REMARK    1  A    between atoms: C_4  and  C_5
REMARK    2  A    between atoms: C_5  and  C_6
REMARK    3  A    between atoms: C_6  and  C_7
REMARK    4  A    between atoms: C_7  and  C_8
REMARK    5  A    between atoms: C_8  and  C_9
REMARK    6  A    between atoms: C_9  and  C_10
REMARK    7  A    between atoms: C_10  and  C_11
REMARK    8  A    between atoms: C_11  and  C_12
REMARK    9  A    between atoms: C_12  and  C_13
REMARK   10  A    between atoms: C_13  and  C_14
REMARK   11  A    between atoms: C_18  and  O_19
REMARK   12  A    between atoms: O_19  and  C_20
REMARK   13  A    between atoms: C_21  and  O_22
REMARK   14  A    between atoms: O_22  and  C_23
REMARK                            x       y       z     vdW  Elec       q    Type
REMARK                         _______ _______ _______ _____ _____    ______ ____
ROOT
ATOM      1  C   UNL     1       2.810   8.498  17.470  0.00  0.00    +0.000 C 
ENDROOT
BRANCH   1   2
ATOM      2  C   UNL     1       3.360   7.179  17.993  0.00  0.00    +0.000 C 
BRANCH   2   3
ATOM      3  C   UNL     1       2.299   6.355  18.713  0.00  0.00    +0.000 C 
BRANCH   3   4
ATOM      4  C   UNL     1       2.263   4.933  18.174  0.00  0.00    +0.000 C 
BRANCH   4   5
ATOM      5  C   UNL     1       3.542   4.635  17.404  0.00  0.00    +0.000 C 
BRANCH   5   6
ATOM      6  C   UNL     1       4.435   3.688  18.199  0.00  0.00    +0.000 C 
BRANCH   6  10
ATOM      7  C   UNL     1       7.916   7.099  18.229  0.00  0.00    +0.000 C 
ATOM      8  C   UNL     1       7.112   6.067  17.958  0.00  0.00    +0.000 C 
ATOM      9  C   UNL     1       6.191   5.364  18.876  0.00  0.00    +0.000 C 
ATOM     10  C   UNL     1       5.903   4.094  18.096  0.00  0.00    +0.000 C 
ATOM     11  O   UNL     1       6.222   4.358  16.723  0.00  0.00    +0.000 OA
ATOM     12  C   UNL     1       7.021   5.453  16.620  0.00  0.00    +0.000 C 
ATOM     13  O   UNL     1       7.543   5.854  15.600  0.00  0.00    +0.000 OA
ENDBRANCH   6  10
ENDBRANCH   5   6
ENDBRANCH   4   5
ENDBRANCH   3   4
ENDBRANCH   2   3
ENDBRANCH   1   2
BRANCH   1  14
ATOM     14  C   UNL     1       1.320   8.712  17.762  0.00  0.00    +0.000 C 
BRANCH  14  15
ATOM     15  C   UNL     1       1.172   9.920  18.676  0.00  0.00    +0.000 C 
BRANCH  15  16
ATOM     16  C   UNL     1      -0.282  10.300  18.958  0.00  0.00    +0.000 C 
BRANCH  16  17
ATOM     17  C   UNL     1      -0.441  10.465  20.453  0.00  0.00    +0.000 A 
ATOM     18  C   UNL     1      -0.008   9.344  21.205  0.00  0.00    +0.000 A 
ATOM     19  C   UNL     1      -0.208   9.256  22.574  0.00  0.00    +0.000 A 
ATOM     20  C   UNL     1      -0.843  10.299  23.225  0.00  0.00    +0.000 A 
ATOM     21  C   UNL     1      -1.269  11.439  22.525  0.00  0.00    +0.000 A 
ATOM     22  C   UNL     1      -1.072  11.541  21.121  0.00  0.00    +0.000 A 
BRANCH  21  23
ATOM     23  O   UNL     1      -1.875  12.334  23.377  0.00  0.00    +0.000 OA
ATOM     24  C   UNL     1      -3.264  12.228  23.640  0.00  0.00    +0.000 C 
ENDBRANCH  21  23
BRANCH  22  25
ATOM     25  O   UNL     1      -1.503  12.716  20.584  0.00  0.00    +0.000 OA
ATOM     26  C   UNL     1      -2.796  12.963  20.081  0.00  0.00    +0.000 C 
ENDBRANCH  22  25
ENDBRANCH  16  17
ENDBRANCH  15  16
ENDBRANCH  14  15
ENDBRANCH   1  14
TORSDOF 12
ENDMDL
