MODEL 1
REMARK VINA RESULT:      -7.4      0.000      0.000
REMARK  Name = 
REMARK  4 active torsions:
REMARK  status: ('A' for Active; 'I' for Inactive)
REMARK    1  A    between atoms: S_2  and  N_4
REMARK    2  A    between atoms: S_2  and  N_13
REMARK    3  A    between atoms: N_4  and  C_5
REMARK    4  A    between atoms: N_13  and  C_14
REMARK                            x       y       z     vdW  Elec       q    Type
REMARK                         _______ _______ _______ _____ _____    ______ ____
ROOT
ATOM      1  O   UNL     1       7.914   4.393  17.947  0.00  0.00    +0.000 OA
ATOM      2  S   UNL     1       7.326   5.644  18.363  0.00  0.00    +0.000 S 
ATOM      3  O   UNL     1       8.116   6.832  18.567  0.00  0.00    +0.000 OA
ENDROOT
BRANCH   2   4
ATOM      4  N   UNL     1       6.103   5.992  17.242  0.00  0.00    +0.000 N 
ATOM      5  H   UNL     1       5.215   5.833  17.722  0.00  0.00    +0.000 HD
BRANCH   4   6
ATOM      6  C   UNL     1       6.180   5.279  16.000  0.00  0.00    +0.000 A 
ATOM      7  C   UNL     1       5.268   4.256  15.742  0.00  0.00    +0.000 A 
ATOM      8  C   UNL     1       5.299   3.587  14.514  0.00  0.00    +0.000 A 
ATOM      9  C   UNL     1       6.230   3.956  13.538  0.00  0.00    +0.000 A 
ATOM     10 CL   UNL     1       6.213   3.091  12.043  0.00  0.00    +0.000 Cl
ATOM     11  C   UNL     1       7.130   4.998  13.793  0.00  0.00    +0.000 A 
ATOM     12 CL   UNL     1       8.290   5.526  12.626  0.00  0.00    +0.000 Cl
ATOM     13  C   UNL     1       7.103   5.658  15.026  0.00  0.00    +0.000 A 
ENDBRANCH   4   6
ENDBRANCH   2   4
BRANCH   2  14
ATOM     14  N   UNL     1       6.378   5.309  19.721  0.00  0.00    +0.000 N 
ATOM     15  H   UNL     1       6.353   6.169  20.270  0.00  0.00    +0.000 HD
BRANCH  14  16
ATOM     16  C   UNL     1       5.072   4.802  19.433  0.00  0.00    +0.000 A 
ATOM     17  C   UNL     1       3.976   5.662  19.384  0.00  0.00    +0.000 A 
ATOM     18  C   UNL     1       2.712   5.155  19.065  0.00  0.00    +0.000 A 
ATOM     19  C   UNL     1       2.552   3.794  18.779  0.00  0.00    +0.000 A 
ATOM     20 CL   UNL     1       0.963   3.237  18.391  0.00  0.00    +0.000 Cl
ATOM     21  C   UNL     1       3.660   2.940  18.812  0.00  0.00    +0.000 A 
ATOM     22 CL   UNL     1       3.538   1.250  18.475  0.00  0.00    +0.000 Cl
ATOM     23  C   UNL     1       4.922   3.448  19.133  0.00  0.00    +0.000 A 
ENDBRANCH  14  16
ENDBRANCH   2  14
TORSDOF 4
ENDMDL
MODEL 2
REMARK VINA RESULT:      -7.4      0.173      5.613
REMARK  Name = 
REMARK  4 active torsions:
REMARK  status: ('A' for Active; 'I' for Inactive)
REMARK    1  A    between atoms: S_2  and  N_4
REMARK    2  A    between atoms: S_2  and  N_13
REMARK    3  A    between atoms: N_4  and  C_5
REMARK    4  A    between atoms: N_13  and  C_14
REMARK                            x       y       z     vdW  Elec       q    Type
REMARK                         _______ _______ _______ _____ _____    ______ ____
ROOT
ATOM      1  O   UNL     1       7.931   6.869  18.481  0.00  0.00    +0.000 OA
ATOM      2  S   UNL     1       7.163   5.664  18.274  0.00  0.00    +0.000 S 
ATOM      3  O   UNL     1       7.788   4.397  17.986  0.00  0.00    +0.000 OA
ENDROOT
BRANCH   2   4
ATOM      4  N   UNL     1       6.179   5.485  19.642  0.00  0.00    +0.000 N 
ATOM      5  H   UNL     1       6.740   4.995  20.341  0.00  0.00    +0.000 HD
BRANCH   4   6
ATOM      6  C   UNL     1       4.916   4.843  19.417  0.00  0.00    +0.000 A 
ATOM      7  C   UNL     1       3.747   5.602  19.458  0.00  0.00    +0.000 A 
ATOM      8  C   UNL     1       2.514   4.998  19.191  0.00  0.00    +0.000 A 
ATOM      9  C   UNL     1       2.454   3.640  18.865  0.00  0.00    +0.000 A 
ATOM     10 CL   UNL     1       0.900   2.958  18.544  0.00  0.00    +0.000 Cl
ATOM     11  C   UNL     1       3.632   2.886  18.805  0.00  0.00    +0.000 A 
ATOM     12 CL   UNL     1       3.639   1.210  18.384  0.00  0.00    +0.000 Cl
ATOM     13  C   UNL     1       4.863   3.490  19.082  0.00  0.00    +0.000 A 
ENDBRANCH   4   6
ENDBRANCH   2   4
BRANCH   2  14
ATOM     14  N   UNL     1       5.982   6.029  17.122  0.00  0.00    +0.000 N 
ATOM     15  H   UNL     1       6.029   7.038  16.975  0.00  0.00    +0.000 HD
BRANCH  14  16
ATOM     16  C   UNL     1       6.083   5.291  15.902  0.00  0.00    +0.000 A 
ATOM     17  C   UNL     1       5.205   4.241  15.638  0.00  0.00    +0.000 A 
ATOM     18  C   UNL     1       5.294   3.553  14.423  0.00  0.00    +0.000 A 
ATOM     19  C   UNL     1       6.247   3.929  13.469  0.00  0.00    +0.000 A 
ATOM     20 CL   UNL     1       6.298   3.038  11.991  0.00  0.00    +0.000 Cl
ATOM     21  C   UNL     1       7.112   4.997  13.733  0.00  0.00    +0.000 A 
ATOM     22 CL   UNL     1       8.315   5.515  12.607  0.00  0.00    +0.000 Cl
ATOM     23  C   UNL     1       7.023   5.682  14.949  0.00  0.00    +0.000 A 
ENDBRANCH  14  16
ENDBRANCH   2  14
TORSDOF 4
ENDMDL
MODEL 3
REMARK VINA RESULT:      -7.3      3.843      4.617
REMARK  Name = 
REMARK  4 active torsions:
REMARK  status: ('A' for Active; 'I' for Inactive)
REMARK    1  A    between atoms: S_2  and  N_4
REMARK    2  A    between atoms: S_2  and  N_13
REMARK    3  A    between atoms: N_4  and  C_5
REMARK    4  A    between atoms: N_13  and  C_14
REMARK                            x       y       z     vdW  Elec       q    Type
REMARK                         _______ _______ _______ _____ _____    ______ ____
ROOT
ATOM      1  O   UNL     1       3.593   1.323  18.316  0.00  0.00    +0.000 OA
ATOM      2  S   UNL     1       3.817   2.745  18.424  0.00  0.00    +0.000 S 
ATOM      3  O   UNL     1       4.459   3.335  19.572  0.00  0.00    +0.000 OA
ENDROOT
BRANCH   2   4
ATOM      4  N   UNL     1       4.668   3.201  17.032  0.00  0.00    +0.000 N 
ATOM      5  H   UNL     1       5.243   2.399  16.767  0.00  0.00    +0.000 HD
BRANCH   4   6
ATOM      6  C   UNL     1       5.441   4.404  17.144  0.00  0.00    +0.000 A 
ATOM      7  C   UNL     1       5.163   5.477  16.298  0.00  0.00    +0.000 A 
ATOM      8  C   UNL     1       5.875   6.673  16.431  0.00  0.00    +0.000 A 
ATOM      9  C   UNL     1       6.852   6.802  17.423  0.00  0.00    +0.000 A 
ATOM     10 CL   UNL     1       7.692   8.306  17.533  0.00  0.00    +0.000 Cl
ATOM     11  C   UNL     1       7.114   5.730  18.284  0.00  0.00    +0.000 A 
ATOM     12 CL   UNL     1       8.288   5.824  19.548  0.00  0.00    +0.000 Cl
ATOM     13  C   UNL     1       6.407   4.530  18.142  0.00  0.00    +0.000 A 
ENDBRANCH   4   6
ENDBRANCH   2   4
BRANCH   2  14
ATOM     14  N   UNL     1       2.337   3.497  18.109  0.00  0.00    +0.000 N 
ATOM     15  H   UNL     1       1.616   2.802  18.304  0.00  0.00    +0.000 HD
BRANCH  14  16
ATOM     16  C   UNL     1       2.122   4.724  18.813  0.00  0.00    +0.000 A 
ATOM     17  C   UNL     1       1.693   4.711  20.139  0.00  0.00    +0.000 A 
ATOM     18  C   UNL     1       1.525   5.918  20.824  0.00  0.00    +0.000 A 
ATOM     19  C   UNL     1       1.803   7.133  20.187  0.00  0.00    +0.000 A 
ATOM     20 CL   UNL     1       1.575   8.586  21.093  0.00  0.00    +0.000 Cl
ATOM     21  C   UNL     1       2.252   7.138  18.861  0.00  0.00    +0.000 A 
ATOM     22 CL   UNL     1       2.611   8.597  18.010  0.00  0.00    +0.000 Cl
ATOM     23  C   UNL     1       2.418   5.929  18.178  0.00  0.00    +0.000 A 
ENDBRANCH  14  16
ENDBRANCH   2  14
TORSDOF 4
ENDMDL
MODEL 4
REMARK VINA RESULT:      -7.2      4.231      5.168
REMARK  Name = 
REMARK  4 active torsions:
REMARK  status: ('A' for Active; 'I' for Inactive)
REMARK    1  A    between atoms: S_2  and  N_4
REMARK    2  A    between atoms: S_2  and  N_13
REMARK    3  A    between atoms: N_4  and  C_5
REMARK    4  A    between atoms: N_13  and  C_14
REMARK                            x       y       z     vdW  Elec       q    Type
REMARK                         _______ _______ _______ _____ _____    ______ ____
ROOT
ATOM      1  O   UNL     1       1.304   4.528  19.050  0.00  0.00    +0.000 OA
ATOM      2  S   UNL     1       2.250   4.395  20.132  0.00  0.00    +0.000 S 
ATOM      3  O   UNL     1       1.837   4.086  21.478  0.00  0.00    +0.000 OA
ENDROOT
BRANCH   2   4
ATOM      4  N   UNL     1       3.386   3.241  19.634  0.00  0.00    +0.000 N 
ATOM      5  H   UNL     1       3.876   2.934  20.476  0.00  0.00    +0.000 HD
BRANCH   4   6
ATOM      6  C   UNL     1       4.292   3.664  18.606  0.00  0.00    +0.000 A 
ATOM      7  C   UNL     1       3.891   3.599  17.272  0.00  0.00    +0.000 A 
ATOM      8  C   UNL     1       4.746   4.056  16.264  0.00  0.00    +0.000 A 
ATOM      9  C   UNL     1       5.993   4.596  16.593  0.00  0.00    +0.000 A 
ATOM     10 CL   UNL     1       6.998   5.143  15.300  0.00  0.00    +0.000 Cl
ATOM     11  C   UNL     1       6.383   4.678  17.934  0.00  0.00    +0.000 A 
ATOM     12 CL   UNL     1       7.898   5.356  18.419  0.00  0.00    +0.000 Cl
ATOM     13  C   UNL     1       5.531   4.211  18.941  0.00  0.00    +0.000 A 
ENDBRANCH   4   6
ENDBRANCH   2   4
BRANCH   2  14
ATOM     14  N   UNL     1       3.222   5.778  20.102  0.00  0.00    +0.000 N 
ATOM     15  H   UNL     1       4.021   5.552  19.509  0.00  0.00    +0.000 HD
BRANCH  14  16
ATOM     16  C   UNL     1       2.554   6.974  19.693  0.00  0.00    +0.000 A 
ATOM     17  C   UNL     1       2.651   7.422  18.376  0.00  0.00    +0.000 A 
ATOM     18  C   UNL     1       1.961   8.573  17.984  0.00  0.00    +0.000 A 
ATOM     19  C   UNL     1       1.162   9.263  18.904  0.00  0.00    +0.000 A 
ATOM     20 CL   UNL     1       0.337  10.676  18.351  0.00  0.00    +0.000 Cl
ATOM     21  C   UNL     1       1.054   8.797  20.219  0.00  0.00    +0.000 A 
ATOM     22 CL   UNL     1       0.092   9.597  21.410  0.00  0.00    +0.000 Cl
ATOM     23  C   UNL     1       1.746   7.646  20.610  0.00  0.00    +0.000 A 
ENDBRANCH  14  16
ENDBRANCH   2  14
TORSDOF 4
ENDMDL
MODEL 5
REMARK VINA RESULT:      -7.2      4.256      6.771
REMARK  Name = 
REMARK  4 active torsions:
REMARK  status: ('A' for Active; 'I' for Inactive)
REMARK    1  A    between atoms: S_2  and  N_4
REMARK    2  A    between atoms: S_2  and  N_13
REMARK    3  A    between atoms: N_4  and  C_5
REMARK    4  A    between atoms: N_13  and  C_14
REMARK                            x       y       z     vdW  Elec       q    Type
REMARK                         _______ _______ _______ _____ _____    ______ ____
ROOT
ATOM      1  O   UNL     1       2.105   4.502  21.467  0.00  0.00    +0.000 OA
ATOM      2  S   UNL     1       2.353   4.589  20.047  0.00  0.00    +0.000 S 
ATOM      3  O   UNL     1       1.284   4.562  19.080  0.00  0.00    +0.000 OA
ENDROOT
BRANCH   2   4
ATOM      4  N   UNL     1       3.265   5.997  19.807  0.00  0.00    +0.000 N 
ATOM      5  H   UNL     1       3.867   6.096  20.626  0.00  0.00    +0.000 HD
BRANCH   4   6
ATOM      6  C   UNL     1       2.510   7.188  19.545  0.00  0.00    +0.000 A 
ATOM      7  C   UNL     1       2.492   7.716  18.255  0.00  0.00    +0.000 A 
ATOM      8  C   UNL     1       1.719   8.848  17.975  0.00  0.00    +0.000 A 
ATOM      9  C   UNL     1       0.951   9.439  18.982  0.00  0.00    +0.000 A 
ATOM     10 CL   UNL     1       0.019  10.833  18.569  0.00  0.00    +0.000 Cl
ATOM     11  C   UNL     1       0.956   8.894  20.272  0.00  0.00    +0.000 A 
ATOM     12 CL   UNL     1       0.012   9.555  21.560  0.00  0.00    +0.000 Cl
ATOM     13  C   UNL     1       1.737   7.768  20.551  0.00  0.00    +0.000 A 
ENDBRANCH   4   6
ENDBRANCH   2   4
BRANCH   2  14
ATOM     14  N   UNL     1       3.524   3.428  19.684  0.00  0.00    +0.000 N 
ATOM     15  H   UNL     1       3.018   2.565  19.483  0.00  0.00    +0.000 HD
BRANCH  14  16
ATOM     16  C   UNL     1       4.429   3.791  18.637  0.00  0.00    +0.000 A 
ATOM     17  C   UNL     1       4.132   3.487  17.310  0.00  0.00    +0.000 A 
ATOM     18  C   UNL     1       5.009   3.883  16.296  0.00  0.00    +0.000 A 
ATOM     19  C   UNL     1       6.172   4.597  16.610  0.00  0.00    +0.000 A 
ATOM     20 CL   UNL     1       7.209   5.056  15.308  0.00  0.00    +0.000 Cl
ATOM     21  C   UNL     1       6.454   4.915  17.943  0.00  0.00    +0.000 A 
ATOM     22 CL   UNL     1       7.870   5.789  18.407  0.00  0.00    +0.000 Cl
ATOM     23  C   UNL     1       5.576   4.517  18.956  0.00  0.00    +0.000 A 
ENDBRANCH  14  16
ENDBRANCH   2  14
TORSDOF 4
ENDMDL
MODEL 6
REMARK VINA RESULT:      -7.2      3.826      6.183
REMARK  Name = 
REMARK  4 active torsions:
REMARK  status: ('A' for Active; 'I' for Inactive)
REMARK    1  A    between atoms: S_2  and  N_4
REMARK    2  A    between atoms: S_2  and  N_13
REMARK    3  A    between atoms: N_4  and  C_5
REMARK    4  A    between atoms: N_13  and  C_14
REMARK                            x       y       z     vdW  Elec       q    Type
REMARK                         _______ _______ _______ _____ _____    ______ ____
ROOT
ATOM      1  O   UNL     1       4.432   3.384  19.486  0.00  0.00    +0.000 OA
ATOM      2  S   UNL     1       3.844   2.668  18.380  0.00  0.00    +0.000 S 
ATOM      3  O   UNL     1       3.621   1.244  18.421  0.00  0.00    +0.000 OA
ENDROOT
BRANCH   2   4
ATOM      4  N   UNL     1       2.373   3.437  18.040  0.00  0.00    +0.000 N 
ATOM      5  H   UNL     1       2.338   3.561  17.026  0.00  0.00    +0.000 HD
BRANCH   4   6
ATOM      6  C   UNL     1       2.138   4.665  18.742  0.00  0.00    +0.000 A 
ATOM      7  C   UNL     1       1.679   4.623  20.058  0.00  0.00    +0.000 A 
ATOM      8  C   UNL     1       1.495   5.811  20.771  0.00  0.00    +0.000 A 
ATOM      9  C   UNL     1       1.788   7.041  20.173  0.00  0.00    +0.000 A 
ATOM     10 CL   UNL     1       1.540   8.470  21.110  0.00  0.00    +0.000 Cl
ATOM     11  C   UNL     1       2.269   7.078  18.859  0.00  0.00    +0.000 A 
ATOM     12 CL   UNL     1       2.677   8.557  18.063  0.00  0.00    +0.000 Cl
ATOM     13  C   UNL     1       2.443   5.888  18.144  0.00  0.00    +0.000 A 
ENDBRANCH   4   6
ENDBRANCH   2   4
BRANCH   2  14
ATOM     14  N   UNL     1       4.716   3.101  16.999  0.00  0.00    +0.000 N 
ATOM     15  H   UNL     1       4.048   3.099  16.227  0.00  0.00    +0.000 HD
BRANCH  14  16
ATOM     16  C   UNL     1       5.433   4.334  17.102  0.00  0.00    +0.000 A 
ATOM     17  C   UNL     1       5.130   5.400  16.257  0.00  0.00    +0.000 A 
ATOM     18  C   UNL     1       5.816   6.611  16.397  0.00  0.00    +0.000 A 
ATOM     19  C   UNL     1       6.789   6.758  17.392  0.00  0.00    +0.000 A 
ATOM     20 CL   UNL     1       7.595   8.281  17.509  0.00  0.00    +0.000 Cl
ATOM     21  C   UNL     1       7.075   5.689  18.249  0.00  0.00    +0.000 A 
ATOM     22 CL   UNL     1       8.265   5.795  19.497  0.00  0.00    +0.000 Cl
ATOM     23  C   UNL     1       6.389   4.479  18.107  0.00  0.00    +0.000 A 
ENDBRANCH  14  16
ENDBRANCH   2  14
TORSDOF 4
ENDMDL
MODEL 7
REMARK VINA RESULT:      -7.1      0.998      5.683
REMARK  Name = 
REMARK  4 active torsions:
REMARK  status: ('A' for Active; 'I' for Inactive)
REMARK    1  A    between atoms: S_2  and  N_4
REMARK    2  A    between atoms: S_2  and  N_13
REMARK    3  A    between atoms: N_4  and  C_5
REMARK    4  A    between atoms: N_13  and  C_14
REMARK                            x       y       z     vdW  Elec       q    Type
REMARK                         _______ _______ _______ _____ _____    ______ ____
ROOT
ATOM      1  O   UNL     1       5.500   6.508  17.082  0.00  0.00    +0.000 OA
ATOM      2  S   UNL     1       6.732   6.309  17.808  0.00  0.00    +0.000 S 
ATOM      3  O   UNL     1       7.652   7.388  18.067  0.00  0.00    +0.000 OA
ENDROOT
BRANCH   2   4
ATOM      4  N   UNL     1       6.306   5.594  19.284  0.00  0.00    +0.000 N 
ATOM      5  H   UNL     1       7.056   4.941  19.518  0.00  0.00    +0.000 HD
BRANCH   4   6
ATOM      6  C   UNL     1       5.015   4.970  19.322  0.00  0.00    +0.000 A 
ATOM      7  C   UNL     1       3.898   5.730  19.666  0.00  0.00    +0.000 A 
ATOM      8  C   UNL     1       2.627   5.146  19.657  0.00  0.00    +0.000 A 
ATOM      9  C   UNL     1       2.474   3.807  19.285  0.00  0.00    +0.000 A 
ATOM     10 CL   UNL     1       0.877   3.148  19.294  0.00  0.00    +0.000 Cl
ATOM     11  C   UNL     1       3.595   3.053  18.921  0.00  0.00    +0.000 A 
ATOM     12 CL   UNL     1       3.480   1.401  18.426  0.00  0.00    +0.000 Cl
ATOM     13  C   UNL     1       4.867   3.637  18.940  0.00  0.00    +0.000 A 
ENDBRANCH   4   6
ENDBRANCH   2   4
BRANCH   2  14
ATOM     14  N   UNL     1       7.522   5.005  17.080  0.00  0.00    +0.000 N 
ATOM     15  H   UNL     1       7.534   4.255  17.773  0.00  0.00    +0.000 HD
BRANCH  14  16
ATOM     16  C   UNL     1       6.969   4.588  15.829  0.00  0.00    +0.000 A 
ATOM     17  C   UNL     1       5.845   3.763  15.793  0.00  0.00    +0.000 A 
ATOM     18  C   UNL     1       5.295   3.396  14.561  0.00  0.00    +0.000 A 
ATOM     19  C   UNL     1       5.859   3.868  13.370  0.00  0.00    +0.000 A 
ATOM     20 CL   UNL     1       5.126   3.376  11.885  0.00  0.00    +0.000 Cl
ATOM     21  C   UNL     1       6.975   4.711  13.414  0.00  0.00    +0.000 A 
ATOM     22 CL   UNL     1       7.726   5.329  11.987  0.00  0.00    +0.000 Cl
ATOM     23  C   UNL     1       7.524   5.076  14.647  0.00  0.00    +0.000 A 
ENDBRANCH  14  16
ENDBRANCH   2  14
TORSDOF 4
ENDMDL
MODEL 8
REMARK VINA RESULT:      -7.0      1.273      5.822
REMARK  Name = 
REMARK  4 active torsions:
REMARK  status: ('A' for Active; 'I' for Inactive)
REMARK    1  A    between atoms: S_2  and  N_4
REMARK    2  A    between atoms: S_2  and  N_13
REMARK    3  A    between atoms: N_4  and  C_5
REMARK    4  A    between atoms: N_13  and  C_14
REMARK                            x       y       z     vdW  Elec       q    Type
REMARK                         _______ _______ _______ _____ _____    ______ ____
ROOT
ATOM      1  O   UNL     1       5.703   6.424  17.151  0.00  0.00    +0.000 OA
ATOM      2  S   UNL     1       6.912   6.103  17.871  0.00  0.00    +0.000 S 
ATOM      3  O   UNL     1       7.883   7.109  18.225  0.00  0.00    +0.000 OA
ENDROOT
BRANCH   2   4
ATOM      4  N   UNL     1       6.430   5.296  19.280  0.00  0.00    +0.000 N 
ATOM      5  H   UNL     1       7.112   4.551  19.436  0.00  0.00    +0.000 HD
BRANCH   4   6
ATOM      6  C   UNL     1       5.084   4.802  19.282  0.00  0.00    +0.000 A 
ATOM      7  C   UNL     1       4.831   3.501  18.850  0.00  0.00    +0.000 A 
ATOM      8  C   UNL     1       3.530   2.991  18.895  0.00  0.00    +0.000 A 
ATOM      9  C   UNL     1       2.485   3.777  19.390  0.00  0.00    +0.000 A 
ATOM     10 CL   UNL     1       0.903   3.085  19.420  0.00  0.00    +0.000 Cl
ATOM     11  C   UNL     1       2.746   5.075  19.842  0.00  0.00    +0.000 A 
ATOM     12 CL   UNL     1       1.511   6.096  20.491  0.00  0.00    +0.000 Cl
ATOM     13  C   UNL     1       4.047   5.587  19.787  0.00  0.00    +0.000 A 
ENDBRANCH   4   6
ENDBRANCH   2   4
BRANCH   2  14
ATOM     14  N   UNL     1       7.645   4.823  17.047  0.00  0.00    +0.000 N 
ATOM     15  H   UNL     1       7.671   4.040  17.701  0.00  0.00    +0.000 HD
BRANCH  14  16
ATOM     16  C   UNL     1       7.032   4.478  15.802  0.00  0.00    +0.000 A 
ATOM     17  C   UNL     1       5.860   3.724  15.777  0.00  0.00    +0.000 A 
ATOM     18  C   UNL     1       5.253   3.428  14.552  0.00  0.00    +0.000 A 
ATOM     19  C   UNL     1       5.810   3.902  13.358  0.00  0.00    +0.000 A 
ATOM     20 CL   UNL     1       5.007   3.500  11.883  0.00  0.00    +0.000 Cl
ATOM     21  C   UNL     1       6.976   4.674  13.392  0.00  0.00    +0.000 A 
ATOM     22 CL   UNL     1       7.722   5.290  11.961  0.00  0.00    +0.000 Cl
ATOM     23  C   UNL     1       7.582   4.968  14.618  0.00  0.00    +0.000 A 
ENDBRANCH  14  16
ENDBRANCH   2  14
TORSDOF 4
ENDMDL
MODEL 9
REMARK VINA RESULT:      -6.9      4.301      6.714
REMARK  Name = 
REMARK  4 active torsions:
REMARK  status: ('A' for Active; 'I' for Inactive)
REMARK    1  A    between atoms: S_2  and  N_4
REMARK    2  A    between atoms: S_2  and  N_13
REMARK    3  A    between atoms: N_4  and  C_5
REMARK    4  A    between atoms: N_13  and  C_14
REMARK                            x       y       z     vdW  Elec       q    Type
REMARK                         _______ _______ _______ _____ _____    ______ ____
ROOT
ATOM      1  O   UNL     1       1.836   3.938  21.466  0.00  0.00    +0.000 OA
ATOM      2  S   UNL     1       2.193   4.226  20.097  0.00  0.00    +0.000 S 
ATOM      3  O   UNL     1       1.208   4.291  19.046  0.00  0.00    +0.000 OA
ENDROOT
BRANCH   2   4
ATOM      4  N   UNL     1       3.055   5.684  20.123  0.00  0.00    +0.000 N 
ATOM      5  H   UNL     1       3.650   5.655  20.953  0.00  0.00    +0.000 HD
BRANCH   4   6
ATOM      6  C   UNL     1       2.258   6.876  20.072  0.00  0.00    +0.000 A 
ATOM      7  C   UNL     1       1.446   7.203  21.158  0.00  0.00    +0.000 A 
ATOM      8  C   UNL     1       0.704   8.387  21.142  0.00  0.00    +0.000 A 
ATOM      9  C   UNL     1       0.789   9.254  20.048  0.00  0.00    +0.000 A 
ATOM     10 CL   UNL     1      -0.152  10.701  20.093  0.00  0.00    +0.000 Cl
ATOM     11  C   UNL     1       1.621   8.933  18.969  0.00  0.00    +0.000 A 
ATOM     12 CL   UNL     1       1.798   9.966  17.595  0.00  0.00    +0.000 Cl
ATOM     13  C   UNL     1       2.355   7.741  18.983  0.00  0.00    +0.000 A 
ENDBRANCH   4   6
ENDBRANCH   2   4
BRANCH   2  14
ATOM     14  N   UNL     1       3.443   3.166  19.686  0.00  0.00    +0.000 N 
ATOM     15  H   UNL     1       2.999   2.277  19.451  0.00  0.00    +0.000 HD
BRANCH  14  16
ATOM     16  C   UNL     1       4.315   3.634  18.654  0.00  0.00    +0.000 A 
ATOM     17  C   UNL     1       3.957   3.501  17.313  0.00  0.00    +0.000 A 
ATOM     18  C   UNL     1       4.805   3.999  16.318  0.00  0.00    +0.000 A 
ATOM     19  C   UNL     1       5.998   4.643  16.667  0.00  0.00    +0.000 A 
ATOM     20 CL   UNL     1       6.994   5.234  15.386  0.00  0.00    +0.000 Cl
ATOM     21  C   UNL     1       6.341   4.789  18.015  0.00  0.00    +0.000 A 
ATOM     22 CL   UNL     1       7.797   5.569  18.521  0.00  0.00    +0.000 Cl
ATOM     23  C   UNL     1       5.493   4.290  19.009  0.00  0.00    +0.000 A 
ENDBRANCH  14  16
ENDBRANCH   2  14
TORSDOF 4
ENDMDL
