MODEL 1
REMARK VINA RESULT:      -7.5      0.000      0.000
REMARK  Name = 
REMARK  13 active torsions:
REMARK  status: ('A' for Active; 'I' for Inactive)
REMARK    1  A    between atoms: C_1  and  O_2
REMARK    2  A    between atoms: O_2  and  C_3
REMARK    3  A    between atoms: C_5  and  C_6
REMARK    4  A    between atoms: C_7  and  C_8
REMARK    5  A    between atoms: C_17  and  O_18
REMARK    6  A    between atoms: O_18  and  C_19
REMARK    7  A    between atoms: C_19  and  C_20
REMARK    8  A    between atoms: C_20  and  C_21
REMARK    9  A    between atoms: C_21  and  N_22
REMARK   10  A    between atoms: N_22  and  C_23
REMARK   11  A    between atoms: N_22  and  C_24
REMARK   12  A    between atoms: C_26  and  O_27
REMARK   13  A    between atoms: O_27  and  C_28
REMARK                            x       y       z     vdW  Elec       q    Type
REMARK                         _______ _______ _______ _____ _____    ______ ____
ROOT
ATOM      1  C   UNL     1       3.090   7.221  18.309  0.00  0.00    +0.000 A 
ATOM      2  N   UNL     1       4.026   7.342  17.333  0.00  0.00    +0.000 NA
ATOM      3  C   UNL     1       5.049   6.472  17.343  0.00  0.00    +0.000 A 
ATOM      4  N   UNL     1       5.989   6.543  16.391  0.00  0.00    +0.000 NA
ATOM      5  C   UNL     1       6.997   5.639  16.401  0.00  0.00    +0.000 A 
ATOM      6  C   UNL     1       7.124   4.639  17.342  0.00  0.00    +0.000 A 
ATOM      7  C   UNL     1       6.159   4.573  18.334  0.00  0.00    +0.000 A 
ATOM      8  C   UNL     1       5.115   5.482  18.355  0.00  0.00    +0.000 A 
ATOM      9  N   UNL     1       4.205   5.374  19.334  0.00  0.00    +0.000 NA
ATOM     10  C   UNL     1       3.185   6.259  19.310  0.00  0.00    +0.000 A 
ENDROOT
BRANCH   1  12
ATOM     11  C   UNL     1       1.115   8.964  18.188  0.00  0.00    +0.000 C 
ATOM     12  C   UNL     1       1.998   8.150  18.224  0.00  0.00    +0.000 C 
BRANCH  11  15
ATOM     13  C   UNL     1      -2.040  10.829  17.458  0.00  0.00    +0.000 A 
ATOM     14  C   UNL     1      -1.097   9.800  17.551  0.00  0.00    +0.000 A 
ATOM     15  C   UNL     1       0.122  10.005  18.199  0.00  0.00    +0.000 A 
ATOM     16  C   UNL     1       0.378  11.241  18.800  0.00  0.00    +0.000 A 
ATOM     17  C   UNL     1      -0.566  12.274  18.729  0.00  0.00    +0.000 A 
ATOM     18  C   UNL     1      -1.767  12.067  18.043  0.00  0.00    +0.000 A 
BRANCH  13  20
ATOM     19  C   UNL     1      -4.251  11.440  16.821  0.00  0.00    +0.000 C 
ATOM     20  O   UNL     1      -3.178  10.506  16.770  0.00  0.00    +0.000 OA
ENDBRANCH  13  20
BRANCH  17  21
ATOM     21  O   UNL     1      -0.206  13.438  19.358  0.00  0.00    +0.000 OA
ATOM     22  C   UNL     1       0.369  13.322  20.656  0.00  0.00    +0.000 C 
ENDBRANCH  17  21
ENDBRANCH  11  15
ENDBRANCH   1  12
BRANCH  10  23
ATOM     23  O   UNL     1       2.217   6.146  20.290  0.00  0.00    +0.000 OA
BRANCH  23  24
ATOM     24  C   UNL     1       2.192   4.822  20.834  0.00  0.00    +0.000 C 
BRANCH  24  25
ATOM     25  C   UNL     1       1.069   3.999  20.213  0.00  0.00    +0.000 C 
BRANCH  25  26
ATOM     26  C   UNL     1       1.551   2.550  20.044  0.00  0.00    +0.000 C 
BRANCH  26  27
ATOM     27  N   UNL     1       1.975   2.193  18.682  0.00  0.00    +0.000 NA
ATOM     28  C   UNL     1       1.771   3.290  17.734  0.00  0.00    +0.000 C 
ATOM     29  C   UNL     1       3.394   1.818  18.695  0.00  0.00    +0.000 C 
ENDBRANCH  26  27
ENDBRANCH  25  26
ENDBRANCH  24  25
ENDBRANCH  23  24
ENDBRANCH  10  23
TORSDOF 9
ENDMDL
MODEL 2
REMARK VINA RESULT:      -7.5      0.472      2.212
REMARK  Name = 
REMARK  13 active torsions:
REMARK  status: ('A' for Active; 'I' for Inactive)
REMARK    1  A    between atoms: C_1  and  O_2
REMARK    2  A    between atoms: O_2  and  C_3
REMARK    3  A    between atoms: C_5  and  C_6
REMARK    4  A    between atoms: C_7  and  C_8
REMARK    5  A    between atoms: C_17  and  O_18
REMARK    6  A    between atoms: O_18  and  C_19
REMARK    7  A    between atoms: C_19  and  C_20
REMARK    8  A    between atoms: C_20  and  C_21
REMARK    9  A    between atoms: C_21  and  N_22
REMARK   10  A    between atoms: N_22  and  C_23
REMARK   11  A    between atoms: N_22  and  C_24
REMARK   12  A    between atoms: C_26  and  O_27
REMARK   13  A    between atoms: O_27  and  C_28
REMARK                            x       y       z     vdW  Elec       q    Type
REMARK                         _______ _______ _______ _____ _____    ______ ____
ROOT
ATOM      1  C   UNL     1       3.044   7.239  18.371  0.00  0.00    +0.000 A 
ATOM      2  N   UNL     1       3.988   7.390  17.406  0.00  0.00    +0.000 NA
ATOM      3  C   UNL     1       5.000   6.508  17.384  0.00  0.00    +0.000 A 
ATOM      4  N   UNL     1       5.945   6.609  16.440  0.00  0.00    +0.000 NA
ATOM      5  C   UNL     1       6.942   5.693  16.417  0.00  0.00    +0.000 A 
ATOM      6  C   UNL     1       7.052   4.651  17.314  0.00  0.00    +0.000 A 
ATOM      7  C   UNL     1       6.081   4.554  18.297  0.00  0.00    +0.000 A 
ATOM      8  C   UNL     1       5.048   5.474  18.352  0.00  0.00    +0.000 A 
ATOM      9  N   UNL     1       4.131   5.335  19.321  0.00  0.00    +0.000 NA
ATOM     10  C   UNL     1       3.122   6.234  19.330  0.00  0.00    +0.000 A 
ENDROOT
BRANCH   1  12
ATOM     11  C   UNL     1       1.102   9.019  18.276  0.00  0.00    +0.000 C 
ATOM     12  C   UNL     1       1.965   8.184  18.321  0.00  0.00    +0.000 C 
BRANCH  11  15
ATOM     13  C   UNL     1      -0.533  12.326  18.875  0.00  0.00    +0.000 A 
ATOM     14  C   UNL     1       0.421  11.303  18.842  0.00  0.00    +0.000 A 
ATOM     15  C   UNL     1       0.145  10.091  18.204  0.00  0.00    +0.000 A 
ATOM     16  C   UNL     1      -1.082   9.923  17.556  0.00  0.00    +0.000 A 
ATOM     17  C   UNL     1      -2.038  10.947  17.569  0.00  0.00    +0.000 A 
ATOM     18  C   UNL     1      -1.764  12.141  18.243  0.00  0.00    +0.000 A 
BRANCH  13  20
ATOM     19  C   UNL     1      -0.046  14.655  18.811  0.00  0.00    +0.000 C 
ATOM     20  O   UNL     1      -0.148  13.448  19.558  0.00  0.00    +0.000 OA
ENDBRANCH  13  20
BRANCH  17  21
ATOM     21  O   UNL     1      -3.201  10.668  16.897  0.00  0.00    +0.000 OA
ATOM     22  C   UNL     1      -4.418  11.094  17.504  0.00  0.00    +0.000 C 
ENDBRANCH  17  21
ENDBRANCH  11  15
ENDBRANCH   1  12
BRANCH  10  23
ATOM     23  O   UNL     1       2.148   6.090  20.299  0.00  0.00    +0.000 OA
BRANCH  23  24
ATOM     24  C   UNL     1       2.229   4.802  20.921  0.00  0.00    +0.000 C 
BRANCH  24  25
ATOM     25  C   UNL     1       1.116   3.887  20.422  0.00  0.00    +0.000 C 
BRANCH  25  26
ATOM     26  C   UNL     1       1.694   2.482  20.196  0.00  0.00    +0.000 C 
BRANCH  26  27
ATOM     27  N   UNL     1       1.955   2.137  18.790  0.00  0.00    +0.000 NA
ATOM     28  C   UNL     1       1.610   3.231  17.880  0.00  0.00    +0.000 C 
ATOM     29  C   UNL     1       3.373   1.797  18.625  0.00  0.00    +0.000 C 
ENDBRANCH  26  27
ENDBRANCH  25  26
ENDBRANCH  24  25
ENDBRANCH  23  24
ENDBRANCH  10  23
TORSDOF 9
ENDMDL
MODEL 3
REMARK VINA RESULT:      -7.5      1.778      2.149
REMARK  Name = 
REMARK  13 active torsions:
REMARK  status: ('A' for Active; 'I' for Inactive)
REMARK    1  A    between atoms: C_1  and  O_2
REMARK    2  A    between atoms: O_2  and  C_3
REMARK    3  A    between atoms: C_5  and  C_6
REMARK    4  A    between atoms: C_7  and  C_8
REMARK    5  A    between atoms: C_17  and  O_18
REMARK    6  A    between atoms: O_18  and  C_19
REMARK    7  A    between atoms: C_19  and  C_20
REMARK    8  A    between atoms: C_20  and  C_21
REMARK    9  A    between atoms: C_21  and  N_22
REMARK   10  A    between atoms: N_22  and  C_23
REMARK   11  A    between atoms: N_22  and  C_24
REMARK   12  A    between atoms: C_26  and  O_27
REMARK   13  A    between atoms: O_27  and  C_28
REMARK                            x       y       z     vdW  Elec       q    Type
REMARK                         _______ _______ _______ _____ _____    ______ ____
ROOT
ATOM      1  C   UNL     1       3.202   6.714  17.763  0.00  0.00    +0.000 A 
ATOM      2  N   UNL     1       4.389   7.065  17.204  0.00  0.00    +0.000 NA
ATOM      3  C   UNL     1       5.144   6.083  16.684  0.00  0.00    +0.000 A 
ATOM      4  N   UNL     1       6.315   6.384  16.108  0.00  0.00    +0.000 NA
ATOM      5  C   UNL     1       7.049   5.384  15.564  0.00  0.00    +0.000 A 
ATOM      6  C   UNL     1       6.666   4.059  15.567  0.00  0.00    +0.000 A 
ATOM      7  C   UNL     1       5.460   3.747  16.173  0.00  0.00    +0.000 A 
ATOM      8  C   UNL     1       4.685   4.743  16.741  0.00  0.00    +0.000 A 
ATOM      9  N   UNL     1       3.525   4.391  17.313  0.00  0.00    +0.000 NA
ATOM     10  C   UNL     1       2.780   5.391  17.834  0.00  0.00    +0.000 A 
ENDROOT
BRANCH   1  12
ATOM     11  C   UNL     1       1.716   8.687  18.687  0.00  0.00    +0.000 C 
ATOM     12  C   UNL     1       2.418   7.808  18.265  0.00  0.00    +0.000 C 
BRANCH  11  15
ATOM     13  C   UNL     1      -0.868  11.385  18.777  0.00  0.00    +0.000 A 
ATOM     14  C   UNL     1      -0.038  10.357  18.319  0.00  0.00    +0.000 A 
ATOM     15  C   UNL     1       0.796   9.667  19.201  0.00  0.00    +0.000 A 
ATOM     16  C   UNL     1       0.762   9.981  20.563  0.00  0.00    +0.000 A 
ATOM     17  C   UNL     1      -0.078  10.998  21.036  0.00  0.00    +0.000 A 
ATOM     18  C   UNL     1      -0.880  11.707  20.136  0.00  0.00    +0.000 A 
BRANCH  13  20
ATOM     19  C   UNL     1      -2.424  11.167  16.989  0.00  0.00    +0.000 C 
ATOM     20  O   UNL     1      -1.611  12.001  17.806  0.00  0.00    +0.000 OA
ENDBRANCH  13  20
BRANCH  17  21
ATOM     21  O   UNL     1      -0.028  11.213  22.389  0.00  0.00    +0.000 OA
ATOM     22  C   UNL     1      -1.250  11.089  23.111  0.00  0.00    +0.000 C 
ENDBRANCH  17  21
ENDBRANCH  11  15
ENDBRANCH   1  12
BRANCH  10  23
ATOM     23  O   UNL     1       1.564   5.054  18.399  0.00  0.00    +0.000 OA
BRANCH  23  24
ATOM     24  C   UNL     1       1.226   3.692  18.114  0.00  0.00    +0.000 C 
BRANCH  24  25
ATOM     25  C   UNL     1       0.837   2.950  19.388  0.00  0.00    +0.000 C 
BRANCH  25  26
ATOM     26  C   UNL     1       1.957   1.962  19.747  0.00  0.00    +0.000 C 
BRANCH  26  27
ATOM     27  N   UNL     1       2.853   2.406  20.826  0.00  0.00    +0.000 NA
ATOM     28  C   UNL     1       4.191   2.736  20.332  0.00  0.00    +0.000 C 
ATOM     29  C   UNL     1       2.274   3.582  21.488  0.00  0.00    +0.000 C 
ENDBRANCH  26  27
ENDBRANCH  25  26
ENDBRANCH  24  25
ENDBRANCH  23  24
ENDBRANCH  10  23
TORSDOF 9
ENDMDL
MODEL 4
REMARK VINA RESULT:      -7.4      0.952      2.404
REMARK  Name = 
REMARK  13 active torsions:
REMARK  status: ('A' for Active; 'I' for Inactive)
REMARK    1  A    between atoms: C_1  and  O_2
REMARK    2  A    between atoms: O_2  and  C_3
REMARK    3  A    between atoms: C_5  and  C_6
REMARK    4  A    between atoms: C_7  and  C_8
REMARK    5  A    between atoms: C_17  and  O_18
REMARK    6  A    between atoms: O_18  and  C_19
REMARK    7  A    between atoms: C_19  and  C_20
REMARK    8  A    between atoms: C_20  and  C_21
REMARK    9  A    between atoms: C_21  and  N_22
REMARK   10  A    between atoms: N_22  and  C_23
REMARK   11  A    between atoms: N_22  and  C_24
REMARK   12  A    between atoms: C_26  and  O_27
REMARK   13  A    between atoms: O_27  and  C_28
REMARK                            x       y       z     vdW  Elec       q    Type
REMARK                         _______ _______ _______ _____ _____    ______ ____
ROOT
ATOM      1  C   UNL     1       2.978   7.339  18.147  0.00  0.00    +0.000 A 
ATOM      2  N   UNL     1       3.954   7.510  17.219  0.00  0.00    +0.000 NA
ATOM      3  C   UNL     1       4.959   6.619  17.205  0.00  0.00    +0.000 A 
ATOM      4  N   UNL     1       5.936   6.739  16.296  0.00  0.00    +0.000 NA
ATOM      5  C   UNL     1       6.926   5.815  16.278  0.00  0.00    +0.000 A 
ATOM      6  C   UNL     1       6.997   4.747  17.148  0.00  0.00    +0.000 A 
ATOM      7  C   UNL     1       5.994   4.630  18.096  0.00  0.00    +0.000 A 
ATOM      8  C   UNL     1       4.967   5.557  18.143  0.00  0.00    +0.000 A 
ATOM      9  N   UNL     1       4.017   5.399  19.077  0.00  0.00    +0.000 NA
ATOM     10  C   UNL     1       3.016   6.306  19.079  0.00  0.00    +0.000 A 
ENDROOT
BRANCH   1  12
ATOM     11  C   UNL     1       1.003   9.086  18.100  0.00  0.00    +0.000 C 
ATOM     12  C   UNL     1       1.908   8.295  18.090  0.00  0.00    +0.000 C 
BRANCH  11  15
ATOM     13  C   UNL     1      -1.190  11.782  19.473  0.00  0.00    +0.000 A 
ATOM     14  C   UNL     1      -0.097  10.932  19.275  0.00  0.00    +0.000 A 
ATOM     15  C   UNL     1      -0.085  10.020  18.217  0.00  0.00    +0.000 A 
ATOM     16  C   UNL     1      -1.160   9.993  17.324  0.00  0.00    +0.000 A 
ATOM     17  C   UNL     1      -2.253  10.852  17.503  0.00  0.00    +0.000 A 
ATOM     18  C   UNL     1      -2.269  11.734  18.587  0.00  0.00    +0.000 A 
BRANCH  13  20
ATOM     19  C   UNL     1      -2.117  12.511  21.541  0.00  0.00    +0.000 C 
ATOM     20  O   UNL     1      -1.089  12.605  20.562  0.00  0.00    +0.000 OA
ENDBRANCH  13  20
BRANCH  17  21
ATOM     21  O   UNL     1      -3.244  10.737  16.563  0.00  0.00    +0.000 OA
ATOM     22  C   UNL     1      -2.943   9.984  15.391  0.00  0.00    +0.000 C 
ENDBRANCH  17  21
ENDBRANCH  11  15
ENDBRANCH   1  12
BRANCH  10  23
ATOM     23  O   UNL     1       2.008   6.143  20.011  0.00  0.00    +0.000 OA
BRANCH  23  24
ATOM     24  C   UNL     1       2.235   4.977  20.811  0.00  0.00    +0.000 C 
BRANCH  24  25
ATOM     25  C   UNL     1       1.159   3.926  20.557  0.00  0.00    +0.000 C 
BRANCH  25  26
ATOM     26  C   UNL     1       1.837   2.566  20.339  0.00  0.00    +0.000 C 
BRANCH  26  27
ATOM     27  N   UNL     1       3.101   2.616  19.588  0.00  0.00    +0.000 NA
ATOM     28  C   UNL     1       4.215   2.039  20.343  0.00  0.00    +0.000 C 
ATOM     29  C   UNL     1       2.945   1.893  18.320  0.00  0.00    +0.000 C 
ENDBRANCH  26  27
ENDBRANCH  25  26
ENDBRANCH  24  25
ENDBRANCH  23  24
ENDBRANCH  10  23
TORSDOF 9
ENDMDL
MODEL 5
REMARK VINA RESULT:      -7.3      1.976      2.672
REMARK  Name = 
REMARK  13 active torsions:
REMARK  status: ('A' for Active; 'I' for Inactive)
REMARK    1  A    between atoms: C_1  and  O_2
REMARK    2  A    between atoms: O_2  and  C_3
REMARK    3  A    between atoms: C_5  and  C_6
REMARK    4  A    between atoms: C_7  and  C_8
REMARK    5  A    between atoms: C_17  and  O_18
REMARK    6  A    between atoms: O_18  and  C_19
REMARK    7  A    between atoms: C_19  and  C_20
REMARK    8  A    between atoms: C_20  and  C_21
REMARK    9  A    between atoms: C_21  and  N_22
REMARK   10  A    between atoms: N_22  and  C_23
REMARK   11  A    between atoms: N_22  and  C_24
REMARK   12  A    between atoms: C_26  and  O_27
REMARK   13  A    between atoms: O_27  and  C_28
REMARK                            x       y       z     vdW  Elec       q    Type
REMARK                         _______ _______ _______ _____ _____    ______ ____
ROOT
ATOM      1  C   UNL     1       3.347   6.598  17.576  0.00  0.00    +0.000 A 
ATOM      2  N   UNL     1       4.481   6.950  16.917  0.00  0.00    +0.000 NA
ATOM      3  C   UNL     1       5.231   5.962  16.401  0.00  0.00    +0.000 A 
ATOM      4  N   UNL     1       6.350   6.264  15.728  0.00  0.00    +0.000 NA
ATOM      5  C   UNL     1       7.077   5.256  15.192  0.00  0.00    +0.000 A 
ATOM      6  C   UNL     1       6.741   3.923  15.296  0.00  0.00    +0.000 A 
ATOM      7  C   UNL     1       5.591   3.611  16.002  0.00  0.00    +0.000 A 
ATOM      8  C   UNL     1       4.823   4.615  16.566  0.00  0.00    +0.000 A 
ATOM      9  N   UNL     1       3.717   4.262  17.237  0.00  0.00    +0.000 NA
ATOM     10  C   UNL     1       2.976   5.268  17.751  0.00  0.00    +0.000 A 
ENDROOT
BRANCH   1  12
ATOM     11  C   UNL     1       1.903   8.585  18.534  0.00  0.00    +0.000 C 
ATOM     12  C   UNL     1       2.563   7.695  18.070  0.00  0.00    +0.000 C 
BRANCH  11  15
ATOM     13  C   UNL     1      -0.206  10.301  21.098  0.00  0.00    +0.000 A 
ATOM     14  C   UNL     1       0.644   9.378  20.480  0.00  0.00    +0.000 A 
ATOM     15  C   UNL     1       1.117   9.599  19.185  0.00  0.00    +0.000 A 
ATOM     16  C   UNL     1       0.769  10.780  18.522  0.00  0.00    +0.000 A 
ATOM     17  C   UNL     1      -0.068  11.720  19.138  0.00  0.00    +0.000 A 
ATOM     18  C   UNL     1      -0.565  11.468  20.420  0.00  0.00    +0.000 A 
BRANCH  13  20
ATOM     19  C   UNL     1      -1.249  10.961  23.134  0.00  0.00    +0.000 C 
ATOM     20  O   UNL     1      -0.622   9.949  22.354  0.00  0.00    +0.000 OA
ENDBRANCH  13  20
BRANCH  17  21
ATOM     21  O   UNL     1      -0.336  12.839  18.392  0.00  0.00    +0.000 OA
ATOM     22  C   UNL     1      -0.215  14.099  19.048  0.00  0.00    +0.000 C 
ENDBRANCH  17  21
ENDBRANCH  11  15
ENDBRANCH   1  12
BRANCH  10  23
ATOM     23  O   UNL     1       1.814   4.930  18.419  0.00  0.00    +0.000 OA
BRANCH  23  24
ATOM     24  C   UNL     1       1.221   3.756  17.851  0.00  0.00    +0.000 C 
BRANCH  24  25
ATOM     25  C   UNL     1       0.839   2.759  18.939  0.00  0.00    +0.000 C 
BRANCH  25  26
ATOM     26  C   UNL     1       2.102   2.011  19.391  0.00  0.00    +0.000 C 
BRANCH  26  27
ATOM     27  N   UNL     1       2.971   2.761  20.311  0.00  0.00    +0.000 NA
ATOM     28  C   UNL     1       2.491   2.705  21.693  0.00  0.00    +0.000 C 
ATOM     29  C   UNL     1       4.334   2.218  20.247  0.00  0.00    +0.000 C 
ENDBRANCH  26  27
ENDBRANCH  25  26
ENDBRANCH  24  25
ENDBRANCH  23  24
ENDBRANCH  10  23
TORSDOF 9
ENDMDL
MODEL 6
REMARK VINA RESULT:      -7.3      1.388      1.509
REMARK  Name = 
REMARK  13 active torsions:
REMARK  status: ('A' for Active; 'I' for Inactive)
REMARK    1  A    between atoms: C_1  and  O_2
REMARK    2  A    between atoms: O_2  and  C_3
REMARK    3  A    between atoms: C_5  and  C_6
REMARK    4  A    between atoms: C_7  and  C_8
REMARK    5  A    between atoms: C_17  and  O_18
REMARK    6  A    between atoms: O_18  and  C_19
REMARK    7  A    between atoms: C_19  and  C_20
REMARK    8  A    between atoms: C_20  and  C_21
REMARK    9  A    between atoms: C_21  and  N_22
REMARK   10  A    between atoms: N_22  and  C_23
REMARK   11  A    between atoms: N_22  and  C_24
REMARK   12  A    between atoms: C_26  and  O_27
REMARK   13  A    between atoms: O_27  and  C_28
REMARK                            x       y       z     vdW  Elec       q    Type
REMARK                         _______ _______ _______ _____ _____    ______ ____
ROOT
ATOM      1  C   UNL     1       3.199   7.160  17.757  0.00  0.00    +0.000 A 
ATOM      2  N   UNL     1       4.166   7.322  16.817  0.00  0.00    +0.000 NA
ATOM      3  C   UNL     1       4.866   6.235  16.454  0.00  0.00    +0.000 A 
ATOM      4  N   UNL     1       5.820   6.344  15.519  0.00  0.00    +0.000 NA
ATOM      5  C   UNL     1       6.495   5.231  15.145  0.00  0.00    +0.000 A 
ATOM      6  C   UNL     1       6.265   3.978  15.672  0.00  0.00    +0.000 A 
ATOM      7  C   UNL     1       5.288   3.867  16.647  0.00  0.00    +0.000 A 
ATOM      8  C   UNL     1       4.579   4.984  17.055  0.00  0.00    +0.000 A 
ATOM      9  N   UNL     1       3.641   4.825  18.000  0.00  0.00    +0.000 NA
ATOM     10  C   UNL     1       2.949   5.930  18.356  0.00  0.00    +0.000 A 
ENDROOT
BRANCH   1  12
ATOM     11  C   UNL     1       1.857   9.365  18.295  0.00  0.00    +0.000 C 
ATOM     12  C   UNL     1       2.456   8.346  18.076  0.00  0.00    +0.000 C 
BRANCH  11  15
ATOM     13  C   UNL     1      -0.906  11.856  18.647  0.00  0.00    +0.000 A 
ATOM     14  C   UNL     1      -0.212  10.643  18.583  0.00  0.00    +0.000 A 
ATOM     15  C   UNL     1       1.179  10.622  18.466  0.00  0.00    +0.000 A 
ATOM     16  C   UNL     1       1.883  11.830  18.459  0.00  0.00    +0.000 A 
ATOM     17  C   UNL     1       1.200  13.051  18.541  0.00  0.00    +0.000 A 
ATOM     18  C   UNL     1      -0.196  13.058  18.620  0.00  0.00    +0.000 A 
BRANCH  13  20
ATOM     19  C   UNL     1      -2.961  11.414  17.529  0.00  0.00    +0.000 C 
ATOM     20  O   UNL     1      -2.267  11.736  18.729  0.00  0.00    +0.000 OA
ENDBRANCH  13  20
BRANCH  17  21
ATOM     21  O   UNL     1       1.996  14.167  18.529  0.00  0.00    +0.000 OA
ATOM     22  C   UNL     1       2.754  14.435  19.706  0.00  0.00    +0.000 C 
ENDBRANCH  17  21
ENDBRANCH  11  15
ENDBRANCH   1  12
BRANCH  10  23
ATOM     23  O   UNL     1       1.954   5.783  19.304  0.00  0.00    +0.000 OA
BRANCH  23  24
ATOM     24  C   UNL     1       2.453   5.117  20.470  0.00  0.00    +0.000 C 
BRANCH  24  25
ATOM     25  C   UNL     1       1.566   3.934  20.842  0.00  0.00    +0.000 C 
BRANCH  25  26
ATOM     26  C   UNL     1       2.356   2.635  20.625  0.00  0.00    +0.000 C 
BRANCH  26  27
ATOM     27  N   UNL     1       1.914   1.825  19.480  0.00  0.00    +0.000 NA
ATOM     28  C   UNL     1       0.840   2.474  18.726  0.00  0.00    +0.000 C 
ATOM     29  C   UNL     1       3.054   1.578  18.588  0.00  0.00    +0.000 C 
ENDBRANCH  26  27
ENDBRANCH  25  26
ENDBRANCH  24  25
ENDBRANCH  23  24
ENDBRANCH  10  23
TORSDOF 9
ENDMDL
MODEL 7
REMARK VINA RESULT:      -7.3      1.930      3.016
REMARK  Name = 
REMARK  13 active torsions:
REMARK  status: ('A' for Active; 'I' for Inactive)
REMARK    1  A    between atoms: C_1  and  O_2
REMARK    2  A    between atoms: O_2  and  C_3
REMARK    3  A    between atoms: C_5  and  C_6
REMARK    4  A    between atoms: C_7  and  C_8
REMARK    5  A    between atoms: C_17  and  O_18
REMARK    6  A    between atoms: O_18  and  C_19
REMARK    7  A    between atoms: C_19  and  C_20
REMARK    8  A    between atoms: C_20  and  C_21
REMARK    9  A    between atoms: C_21  and  N_22
REMARK   10  A    between atoms: N_22  and  C_23
REMARK   11  A    between atoms: N_22  and  C_24
REMARK   12  A    between atoms: C_26  and  O_27
REMARK   13  A    between atoms: O_27  and  C_28
REMARK                            x       y       z     vdW  Elec       q    Type
REMARK                         _______ _______ _______ _____ _____    ______ ____
ROOT
ATOM      1  C   UNL     1       3.261   6.493  17.786  0.00  0.00    +0.000 A 
ATOM      2  N   UNL     1       4.386   6.960  17.186  0.00  0.00    +0.000 NA
ATOM      3  C   UNL     1       5.199   6.060  16.607  0.00  0.00    +0.000 A 
ATOM      4  N   UNL     1       6.313   6.477  15.989  0.00  0.00    +0.000 NA
ATOM      5  C   UNL     1       7.105   5.559  15.387  0.00  0.00    +0.000 A 
ATOM      6  C   UNL     1       6.840   4.205  15.370  0.00  0.00    +0.000 A 
ATOM      7  C   UNL     1       5.695   3.774  16.020  0.00  0.00    +0.000 A 
ATOM      8  C   UNL     1       4.863   4.685  16.648  0.00  0.00    +0.000 A 
ATOM      9  N   UNL     1       3.765   4.218  17.260  0.00  0.00    +0.000 NA
ATOM     10  C   UNL     1       2.961   5.135  17.840  0.00  0.00    +0.000 A 
ENDROOT
BRANCH   1  12
ATOM     11  C   UNL     1       1.742   8.383  18.822  0.00  0.00    +0.000 C 
ATOM     12  C   UNL     1       2.409   7.501  18.351  0.00  0.00    +0.000 C 
BRANCH  11  15
ATOM     13  C   UNL     1       0.223  10.709  21.321  0.00  0.00    +0.000 A 
ATOM     14  C   UNL     1       0.993   9.689  20.754  0.00  0.00    +0.000 A 
ATOM     15  C   UNL     1       1.026   9.504  19.370  0.00  0.00    +0.000 A 
ATOM     16  C   UNL     1       0.314  10.380  18.546  0.00  0.00    +0.000 A 
ATOM     17  C   UNL     1      -0.448  11.416  19.101  0.00  0.00    +0.000 A 
ATOM     18  C   UNL     1      -0.502  11.567  20.490  0.00  0.00    +0.000 A 
BRANCH  13  20
ATOM     19  C   UNL     1      -0.171   9.599  23.390  0.00  0.00    +0.000 C 
ATOM     20  O   UNL     1       0.254  10.762  22.688  0.00  0.00    +0.000 OA
ENDBRANCH  13  20
BRANCH  17  21
ATOM     21  O   UNL     1      -1.098  12.212  18.194  0.00  0.00    +0.000 OA
ATOM     22  C   UNL     1      -2.189  11.630  17.485  0.00  0.00    +0.000 C 
ENDBRANCH  17  21
ENDBRANCH  11  15
ENDBRANCH   1  12
BRANCH  10  23
ATOM     23  O   UNL     1       1.806   4.680  18.448  0.00  0.00    +0.000 OA
BRANCH  23  24
ATOM     24  C   UNL     1       1.341   3.476  17.828  0.00  0.00    +0.000 C 
BRANCH  24  25
ATOM     25  C   UNL     1       1.678   2.259  18.682  0.00  0.00    +0.000 C 
BRANCH  25  26
ATOM     26  C   UNL     1       1.265   2.543  20.134  0.00  0.00    +0.000 C 
BRANCH  26  27
ATOM     27  N   UNL     1       2.382   2.662  21.083  0.00  0.00    +0.000 NA
ATOM     28  C   UNL     1       3.679   2.446  20.440  0.00  0.00    +0.000 C 
ATOM     29  C   UNL     1       2.360   3.995  21.698  0.00  0.00    +0.000 C 
ENDBRANCH  26  27
ENDBRANCH  25  26
ENDBRANCH  24  25
ENDBRANCH  23  24
ENDBRANCH  10  23
TORSDOF 9
ENDMDL
MODEL 8
REMARK VINA RESULT:      -7.2      1.556      1.716
REMARK  Name = 
REMARK  13 active torsions:
REMARK  status: ('A' for Active; 'I' for Inactive)
REMARK    1  A    between atoms: C_1  and  O_2
REMARK    2  A    between atoms: O_2  and  C_3
REMARK    3  A    between atoms: C_5  and  C_6
REMARK    4  A    between atoms: C_7  and  C_8
REMARK    5  A    between atoms: C_17  and  O_18
REMARK    6  A    between atoms: O_18  and  C_19
REMARK    7  A    between atoms: C_19  and  C_20
REMARK    8  A    between atoms: C_20  and  C_21
REMARK    9  A    between atoms: C_21  and  N_22
REMARK   10  A    between atoms: N_22  and  C_23
REMARK   11  A    between atoms: N_22  and  C_24
REMARK   12  A    between atoms: C_26  and  O_27
REMARK   13  A    between atoms: O_27  and  C_28
REMARK                            x       y       z     vdW  Elec       q    Type
REMARK                         _______ _______ _______ _____ _____    ______ ____
ROOT
ATOM      1  C   UNL     1       3.446   6.943  18.156  0.00  0.00    +0.000 A 
ATOM      2  N   UNL     1       3.976   7.097  16.915  0.00  0.00    +0.000 NA
ATOM      3  C   UNL     1       4.838   6.159  16.488  0.00  0.00    +0.000 A 
ATOM      4  N   UNL     1       5.374   6.262  15.264  0.00  0.00    +0.000 NA
ATOM      5  C   UNL     1       6.219   5.292  14.840  0.00  0.00    +0.000 A 
ATOM      6  C   UNL     1       6.571   4.194  15.596  0.00  0.00    +0.000 A 
ATOM      7  C   UNL     1       6.027   4.094  16.866  0.00  0.00    +0.000 A 
ATOM      8  C   UNL     1       5.161   5.068  17.333  0.00  0.00    +0.000 A 
ATOM      9  N   UNL     1       4.658   4.925  18.568  0.00  0.00    +0.000 NA
ATOM     10  C   UNL     1       3.795   5.879  18.982  0.00  0.00    +0.000 A 
ENDROOT
BRANCH   1  12
ATOM     11  C   UNL     1       1.664   8.758  18.849  0.00  0.00    +0.000 C 
ATOM     12  C   UNL     1       2.500   7.951  18.544  0.00  0.00    +0.000 C 
BRANCH  11  15
ATOM     13  C   UNL     1      -1.196  11.132  18.462  0.00  0.00    +0.000 A 
ATOM     14  C   UNL     1      -0.211  10.182  18.173  0.00  0.00    +0.000 A 
ATOM     15  C   UNL     1       0.590   9.653  19.188  0.00  0.00    +0.000 A 
ATOM     16  C   UNL     1       0.368  10.048  20.510  0.00  0.00    +0.000 A 
ATOM     17  C   UNL     1      -0.628  10.986  20.814  0.00  0.00    +0.000 A 
ATOM     18  C   UNL     1      -1.397  11.535  19.784  0.00  0.00    +0.000 A 
BRANCH  13  20
ATOM     19  C   UNL     1      -2.828  10.701  16.783  0.00  0.00    +0.000 C 
ATOM     20  O   UNL     1      -1.888  11.591  17.375  0.00  0.00    +0.000 OA
ENDBRANCH  13  20
BRANCH  17  21
ATOM     21  O   UNL     1      -0.755  11.292  22.144  0.00  0.00    +0.000 OA
ATOM     22  C   UNL     1      -0.761  10.202  23.063  0.00  0.00    +0.000 C 
ENDBRANCH  17  21
ENDBRANCH  11  15
ENDBRANCH   1  12
BRANCH  10  23
ATOM     23  O   UNL     1       3.239   5.734  20.239  0.00  0.00    +0.000 OA
BRANCH  23  24
ATOM     24  C   UNL     1       1.965   5.082  20.163  0.00  0.00    +0.000 C 
BRANCH  24  25
ATOM     25  C   UNL     1       1.899   3.905  21.130  0.00  0.00    +0.000 C 
BRANCH  25  26
ATOM     26  C   UNL     1       2.360   2.636  20.397  0.00  0.00    +0.000 C 
BRANCH  26  27
ATOM     27  N   UNL     1       2.093   2.624  18.951  0.00  0.00    +0.000 NA
ATOM     28  C   UNL     1       3.046   1.787  18.220  0.00  0.00    +0.000 C 
ATOM     29  C   UNL     1       0.730   2.135  18.709  0.00  0.00    +0.000 C 
ENDBRANCH  26  27
ENDBRANCH  25  26
ENDBRANCH  24  25
ENDBRANCH  23  24
ENDBRANCH  10  23
TORSDOF 9
ENDMDL
MODEL 9
REMARK VINA RESULT:      -7.2      1.323      2.621
REMARK  Name = 
REMARK  13 active torsions:
REMARK  status: ('A' for Active; 'I' for Inactive)
REMARK    1  A    between atoms: C_1  and  O_2
REMARK    2  A    between atoms: O_2  and  C_3
REMARK    3  A    between atoms: C_5  and  C_6
REMARK    4  A    between atoms: C_7  and  C_8
REMARK    5  A    between atoms: C_17  and  O_18
REMARK    6  A    between atoms: O_18  and  C_19
REMARK    7  A    between atoms: C_19  and  C_20
REMARK    8  A    between atoms: C_20  and  C_21
REMARK    9  A    between atoms: C_21  and  N_22
REMARK   10  A    between atoms: N_22  and  C_23
REMARK   11  A    between atoms: N_22  and  C_24
REMARK   12  A    between atoms: C_26  and  O_27
REMARK   13  A    between atoms: O_27  and  C_28
REMARK                            x       y       z     vdW  Elec       q    Type
REMARK                         _______ _______ _______ _____ _____    ______ ____
ROOT
ATOM      1  C   UNL     1       3.064   7.020  17.896  0.00  0.00    +0.000 A 
ATOM      2  N   UNL     1       4.122   7.300  17.093  0.00  0.00    +0.000 NA
ATOM      3  C   UNL     1       4.879   6.268  16.682  0.00  0.00    +0.000 A 
ATOM      4  N   UNL     1       5.924   6.495  15.875  0.00  0.00    +0.000 NA
ATOM      5  C   UNL     1       6.657   5.439  15.448  0.00  0.00    +0.000 A 
ATOM      6  C   UNL     1       6.398   4.130  15.797  0.00  0.00    +0.000 A 
ATOM      7  C   UNL     1       5.324   3.898  16.641  0.00  0.00    +0.000 A 
ATOM      8  C   UNL     1       4.554   4.953  17.098  0.00  0.00    +0.000 A 
ATOM      9  N   UNL     1       3.524   4.676  17.910  0.00  0.00    +0.000 NA
ATOM     10  C   UNL     1       2.776   5.725  18.316  0.00  0.00    +0.000 A 
ENDROOT
BRANCH   1  12
ATOM     11  C   UNL     1       1.553   9.067  18.590  0.00  0.00    +0.000 C 
ATOM     12  C   UNL     1       2.267   8.155  18.270  0.00  0.00    +0.000 C 
BRANCH  11  15
ATOM     13  C   UNL     1      -0.010  11.824  20.570  0.00  0.00    +0.000 A 
ATOM     14  C   UNL     1       0.919  10.893  20.094  0.00  0.00    +0.000 A 
ATOM     15  C   UNL     1       0.623  10.088  18.993  0.00  0.00    +0.000 A 
ATOM     16  C   UNL     1      -0.601  10.251  18.336  0.00  0.00    +0.000 A 
ATOM     17  C   UNL     1      -1.532  11.192  18.793  0.00  0.00    +0.000 A 
ATOM     18  C   UNL     1      -1.238  11.965  19.920  0.00  0.00    +0.000 A 
BRANCH  13  20
ATOM     19  C   UNL     1      -0.625  13.135  22.459  0.00  0.00    +0.000 C 
ATOM     20  O   UNL     1       0.393  12.527  21.673  0.00  0.00    +0.000 OA
ENDBRANCH  13  20
BRANCH  17  21
ATOM     21  O   UNL     1      -2.693  11.263  18.067  0.00  0.00    +0.000 OA
ATOM     22  C   UNL     1      -3.175  10.051  17.493  0.00  0.00    +0.000 C 
ENDBRANCH  17  21
ENDBRANCH  11  15
ENDBRANCH   1  12
BRANCH  10  23
ATOM     23  O   UNL     1       1.689   5.460  19.128  0.00  0.00    +0.000 OA
BRANCH  23  24
ATOM     24  C   UNL     1       2.031   5.617  20.510  0.00  0.00    +0.000 C 
BRANCH  24  25
ATOM     25  C   UNL     1       2.345   4.268  21.148  0.00  0.00    +0.000 C 
BRANCH  25  26
ATOM     26  C   UNL     1       1.191   3.299  20.854  0.00  0.00    +0.000 C 
BRANCH  26  27
ATOM     27  N   UNL     1       1.541   2.163  19.988  0.00  0.00    +0.000 NA
ATOM     28  C   UNL     1       0.941   2.278  18.657  0.00  0.00    +0.000 C 
ATOM     29  C   UNL     1       3.001   2.081  19.857  0.00  0.00    +0.000 C 
ENDBRANCH  26  27
ENDBRANCH  25  26
ENDBRANCH  24  25
ENDBRANCH  23  24
ENDBRANCH  10  23
TORSDOF 9
ENDMDL
