MODEL 1
REMARK VINA RESULT:      -8.0      0.000      0.000
REMARK  Name = 
REMARK  7 active torsions:
REMARK  status: ('A' for Active; 'I' for Inactive)
REMARK    1  A    between atoms: O_1  and  C_2
REMARK    2  A    between atoms: C_7  and  C_8
REMARK    3  A    between atoms: N_11  and  C_12
REMARK    4  A    between atoms: C_15  and  O_16
REMARK    5  A    between atoms: O_16  and  C_17
REMARK    6  A    between atoms: C_17  and  C_18
REMARK    7  A    between atoms: C_18  and  N_19
REMARK                            x       y       z     vdW  Elec       q    Type
REMARK                         _______ _______ _______ _____ _____    ______ ____
ROOT
ATOM      1  C   UNL     1       0.464  13.419  18.743  0.00  0.00    +0.000 A 
ATOM      2  N   UNL     1       1.152  12.420  19.320  0.00  0.00    +0.000 NA
ATOM      3  C   UNL     1       0.621  11.192  19.261  0.00  0.00    +0.000 A 
ATOM      4  N   UNL     1       1.413  10.200  19.867  0.00  0.00    +0.000 N 
ATOM      5  C   UNL     1      -0.627  10.935  18.649  0.00  0.00    +0.000 A 
ATOM      6  C   UNL     1      -1.353   9.709  18.658  0.00  0.00    +0.000 A 
ATOM      7  C   UNL     1      -2.521   9.538  17.921  0.00  0.00    +0.000 A 
ATOM      8  C   UNL     1      -3.023  10.610  17.205  0.00  0.00    +0.000 A 
ATOM      9  C   UNL     1      -2.366  11.842  17.262  0.00  0.00    +0.000 A 
ATOM     10  C   UNL     1      -1.191  12.024  17.983  0.00  0.00    +0.000 A 
ATOM     11  N   UNL     1      -0.662  13.244  18.025  0.00  0.00    +0.000 NA
ATOM     12  H   UNL     1       2.230  10.622  20.295  0.00  0.00    +0.000 HD
ENDROOT
BRANCH   1  18
ATOM     13  C   UNL     1       0.103  15.894  19.171  0.00  0.00    +0.000 A 
ATOM     14  C   UNL     1       0.599  17.198  19.292  0.00  0.00    +0.000 A 
ATOM     15  C   UNL     1       1.962  17.442  19.139  0.00  0.00    +0.000 A 
ATOM     16  C   UNL     1       2.825  16.387  18.868  0.00  0.00    +0.000 A 
ATOM     17  C   UNL     1       2.324  15.086  18.756  0.00  0.00    +0.000 A 
ATOM     18  C   UNL     1       0.950  14.801  18.908  0.00  0.00    +0.000 A 
BRANCH  13  19
ATOM     19  O   UNL     1      -1.251  15.707  19.273  0.00  0.00    +0.000 OA
ATOM     20  H   UNL     1      -1.635  16.407  19.826  0.00  0.00    +0.000 HD
ENDBRANCH  13  19
ENDBRANCH   1  18
BRANCH   4  21
ATOM     21  C   UNL     1       1.566   8.854  19.502  0.00  0.00    +0.000 A 
ATOM     22  C   UNL     1       1.467   7.822  20.441  0.00  0.00    +0.000 A 
ATOM     23  C   UNL     1       1.983   6.559  20.160  0.00  0.00    +0.000 A 
ATOM     24  C   UNL     1       2.509   6.285  18.901  0.00  0.00    +0.000 A 
ATOM     25  C   UNL     1       2.466   7.271  17.913  0.00  0.00    +0.000 A 
ATOM     26  C   UNL     1       1.979   8.547  18.205  0.00  0.00    +0.000 A 
BRANCH  24  27
ATOM     27  O   UNL     1       3.145   5.134  18.534  0.00  0.00    +0.000 OA
BRANCH  27  28
ATOM     28  C   UNL     1       4.137   4.612  19.422  0.00  0.00    +0.000 C 
BRANCH  28  29
ATOM     29  C   UNL     1       5.367   5.517  19.322  0.00  0.00    +0.000 C 
BRANCH  29  30
ATOM     30  N   UNL     1       6.562   4.869  18.749  0.00  0.00    +0.000 NA
ATOM     31  C   UNL     1       7.738   5.764  18.880  0.00  0.00    +0.000 C 
ATOM     32  C   UNL     1       7.710   6.975  17.927  0.00  0.00    +0.000 C 
ATOM     33  O   UNL     1       7.551   6.573  16.559  0.00  0.00    +0.000 OA
ATOM     34  C   UNL     1       6.378   5.767  16.393  0.00  0.00    +0.000 C 
ATOM     35  C   UNL     1       6.429   4.536  17.310  0.00  0.00    +0.000 C 
ENDBRANCH  29  30
ENDBRANCH  28  29
ENDBRANCH  27  28
ENDBRANCH  24  27
ENDBRANCH   4  21
TORSDOF 7
ENDMDL
MODEL 2
REMARK VINA RESULT:      -7.8      2.926      9.522
REMARK  Name = 
REMARK  7 active torsions:
REMARK  status: ('A' for Active; 'I' for Inactive)
REMARK    1  A    between atoms: O_1  and  C_2
REMARK    2  A    between atoms: C_7  and  C_8
REMARK    3  A    between atoms: N_11  and  C_12
REMARK    4  A    between atoms: C_15  and  O_16
REMARK    5  A    between atoms: O_16  and  C_17
REMARK    6  A    between atoms: C_17  and  C_18
REMARK    7  A    between atoms: C_18  and  N_19
REMARK                            x       y       z     vdW  Elec       q    Type
REMARK                         _______ _______ _______ _____ _____    ______ ____
ROOT
ATOM      1  C   UNL     1       2.450   7.783  18.690  0.00  0.00    +0.000 A 
ATOM      2  N   UNL     1       2.249   8.949  18.057  0.00  0.00    +0.000 NA
ATOM      3  C   UNL     1       1.494   9.865  18.678  0.00  0.00    +0.000 A 
ATOM      4  N   UNL     1       1.350  11.065  17.959  0.00  0.00    +0.000 N 
ATOM      5  C   UNL     1       0.895   9.627  19.936  0.00  0.00    +0.000 A 
ATOM      6  C   UNL     1      -0.039  10.460  20.616  0.00  0.00    +0.000 A 
ATOM      7  C   UNL     1      -0.474  10.179  21.907  0.00  0.00    +0.000 A 
ATOM      8  C   UNL     1      -0.029   9.025  22.527  0.00  0.00    +0.000 A 
ATOM      9  C   UNL     1       0.818   8.157  21.835  0.00  0.00    +0.000 A 
ATOM     10  C   UNL     1       1.272   8.430  20.549  0.00  0.00    +0.000 A 
ATOM     11  N   UNL     1       2.033   7.522  19.944  0.00  0.00    +0.000 NA
ATOM     12  H   UNL     1       1.810  10.988  17.059  0.00  0.00    +0.000 HD
ENDROOT
BRANCH   1  18
ATOM     13  C   UNL     1       2.815   5.343  18.092  0.00  0.00    +0.000 A 
ATOM     14  C   UNL     1       3.533   4.343  17.423  0.00  0.00    +0.000 A 
ATOM     15  C   UNL     1       4.626   4.683  16.630  0.00  0.00    +0.000 A 
ATOM     16  C   UNL     1       5.000   6.015  16.505  0.00  0.00    +0.000 A 
ATOM     17  C   UNL     1       4.276   7.009  17.170  0.00  0.00    +0.000 A 
ATOM     18  C   UNL     1       3.160   6.703  17.980  0.00  0.00    +0.000 A 
BRANCH  13  19
ATOM     19  O   UNL     1       1.781   4.961  18.906  0.00  0.00    +0.000 OA
ATOM     20  H   UNL     1       1.201   5.722  19.074  0.00  0.00    +0.000 HD
ENDBRANCH  13  19
ENDBRANCH   1  18
BRANCH   4  21
ATOM     21  C   UNL     1       1.231  12.374  18.450  0.00  0.00    +0.000 A 
ATOM     22  C   UNL     1       2.300  13.024  19.076  0.00  0.00    +0.000 A 
ATOM     23  C   UNL     1       2.077  14.139  19.880  0.00  0.00    +0.000 A 
ATOM     24  C   UNL     1       0.797  14.680  19.983  0.00  0.00    +0.000 A 
ATOM     25  C   UNL     1      -0.241  14.123  19.235  0.00  0.00    +0.000 A 
ATOM     26  C   UNL     1      -0.024  12.984  18.456  0.00  0.00    +0.000 A 
BRANCH  24  27
ATOM     27  O   UNL     1       0.423  15.692  20.819  0.00  0.00    +0.000 OA
BRANCH  27  28
ATOM     28  C   UNL     1       0.773  15.575  22.200  0.00  0.00    +0.000 C 
BRANCH  28  29
ATOM     29  C   UNL     1      -0.496  15.816  23.020  0.00  0.00    +0.000 C 
BRANCH  29  30
ATOM     30  N   UNL     1      -0.816  14.747  23.986  0.00  0.00    +0.000 NA
ATOM     31  C   UNL     1      -1.182  13.504  23.266  0.00  0.00    +0.000 C 
ATOM     32  C   UNL     1      -2.566  13.559  22.588  0.00  0.00    +0.000 C 
ATOM     33  O   UNL     1      -3.602  13.910  23.517  0.00  0.00    +0.000 OA
ATOM     34  C   UNL     1      -3.305  15.149  24.174  0.00  0.00    +0.000 C 
ATOM     35  C   UNL     1      -1.947  15.075  24.888  0.00  0.00    +0.000 C 
ENDBRANCH  29  30
ENDBRANCH  28  29
ENDBRANCH  27  28
ENDBRANCH  24  27
ENDBRANCH   4  21
TORSDOF 7
ENDMDL
MODEL 3
REMARK VINA RESULT:      -7.7      2.915      4.097
REMARK  Name = 
REMARK  7 active torsions:
REMARK  status: ('A' for Active; 'I' for Inactive)
REMARK    1  A    between atoms: O_1  and  C_2
REMARK    2  A    between atoms: C_7  and  C_8
REMARK    3  A    between atoms: N_11  and  C_12
REMARK    4  A    between atoms: C_15  and  O_16
REMARK    5  A    between atoms: O_16  and  C_17
REMARK    6  A    between atoms: C_17  and  C_18
REMARK    7  A    between atoms: C_18  and  N_19
REMARK                            x       y       z     vdW  Elec       q    Type
REMARK                         _______ _______ _______ _____ _____    ______ ____
ROOT
ATOM      1  C   UNL     1      -0.683  12.771  21.926  0.00  0.00    +0.000 A 
ATOM      2  N   UNL     1      -0.708  11.510  21.463  0.00  0.00    +0.000 NA
ATOM      3  C   UNL     1       0.135  11.203  20.469  0.00  0.00    +0.000 A 
ATOM      4  N   UNL     1       0.063   9.861  20.056  0.00  0.00    +0.000 N 
ATOM      5  C   UNL     1       1.005  12.157  19.890  0.00  0.00    +0.000 A 
ATOM      6  C   UNL     1       1.828  11.985  18.741  0.00  0.00    +0.000 A 
ATOM      7  C   UNL     1       2.734  12.957  18.330  0.00  0.00    +0.000 A 
ATOM      8  C   UNL     1       2.795  14.152  19.026  0.00  0.00    +0.000 A 
ATOM      9  C   UNL     1       1.928  14.365  20.101  0.00  0.00    +0.000 A 
ATOM     10  C   UNL     1       1.027  13.397  20.532  0.00  0.00    +0.000 A 
ATOM     11  N   UNL     1       0.202  13.705  21.529  0.00  0.00    +0.000 NA
ATOM     12  H   UNL     1      -0.671   9.381  20.564  0.00  0.00    +0.000 HD
ENDROOT
BRANCH   1  18
ATOM     13  C   UNL     1      -1.515  14.266  23.801  0.00  0.00    +0.000 A 
ATOM     14  C   UNL     1      -2.483  14.605  24.755  0.00  0.00    +0.000 A 
ATOM     15  C   UNL     1      -3.650  13.852  24.862  0.00  0.00    +0.000 A 
ATOM     16  C   UNL     1      -3.849  12.766  24.018  0.00  0.00    +0.000 A 
ATOM     17  C   UNL     1      -2.883  12.437  23.063  0.00  0.00    +0.000 A 
ATOM     18  C   UNL     1      -1.690  13.179  22.924  0.00  0.00    +0.000 A 
BRANCH  13  19
ATOM     19  O   UNL     1      -0.358  14.999  23.767  0.00  0.00    +0.000 OA
ATOM     20  H   UNL     1       0.114  14.823  22.936  0.00  0.00    +0.000 HD
ENDBRANCH  13  19
ENDBRANCH   1  18
BRANCH   4  21
ATOM     21  C   UNL     1       1.090   9.032  19.581  0.00  0.00    +0.000 A 
ATOM     22  C   UNL     1       1.531   9.095  18.255  0.00  0.00    +0.000 A 
ATOM     23  C   UNL     1       2.258   8.044  17.701  0.00  0.00    +0.000 A 
ATOM     24  C   UNL     1       2.644   6.967  18.496  0.00  0.00    +0.000 A 
ATOM     25  C   UNL     1       2.337   6.980  19.858  0.00  0.00    +0.000 A 
ATOM     26  C   UNL     1       1.578   8.017  20.405  0.00  0.00    +0.000 A 
BRANCH  24  27
ATOM     27  O   UNL     1       3.254   5.828  18.056  0.00  0.00    +0.000 OA
BRANCH  27  28
ATOM     28  C   UNL     1       3.902   5.005  19.028  0.00  0.00    +0.000 C 
BRANCH  28  29
ATOM     29  C   UNL     1       5.276   5.616  19.309  0.00  0.00    +0.000 C 
BRANCH  29  30
ATOM     30  N   UNL     1       6.411   4.869  18.735  0.00  0.00    +0.000 NA
ATOM     31  C   UNL     1       7.668   5.635  18.914  0.00  0.00    +0.000 C 
ATOM     32  C   UNL     1       7.781   6.872  18.002  0.00  0.00    +0.000 C 
ATOM     33  O   UNL     1       7.609   6.533  16.618  0.00  0.00    +0.000 OA
ATOM     34  C   UNL     1       6.364   5.855  16.406  0.00  0.00    +0.000 C 
ATOM     35  C   UNL     1       6.273   4.597  17.283  0.00  0.00    +0.000 C 
ENDBRANCH  29  30
ENDBRANCH  28  29
ENDBRANCH  27  28
ENDBRANCH  24  27
ENDBRANCH   4  21
TORSDOF 7
ENDMDL
MODEL 4
REMARK VINA RESULT:      -7.7      1.164      1.531
REMARK  Name = 
REMARK  7 active torsions:
REMARK  status: ('A' for Active; 'I' for Inactive)
REMARK    1  A    between atoms: O_1  and  C_2
REMARK    2  A    between atoms: C_7  and  C_8
REMARK    3  A    between atoms: N_11  and  C_12
REMARK    4  A    between atoms: C_15  and  O_16
REMARK    5  A    between atoms: O_16  and  C_17
REMARK    6  A    between atoms: C_17  and  C_18
REMARK    7  A    between atoms: C_18  and  N_19
REMARK                            x       y       z     vdW  Elec       q    Type
REMARK                         _______ _______ _______ _____ _____    ______ ____
ROOT
ATOM      1  C   UNL     1       0.309  13.432  18.773  0.00  0.00    +0.000 A 
ATOM      2  N   UNL     1       0.958  12.472  19.452  0.00  0.00    +0.000 NA
ATOM      3  C   UNL     1       0.447  11.234  19.405  0.00  0.00    +0.000 A 
ATOM      4  N   UNL     1       1.196  10.283  20.122  0.00  0.00    +0.000 N 
ATOM      5  C   UNL     1      -0.742  10.930  18.703  0.00  0.00    +0.000 A 
ATOM      6  C   UNL     1      -1.453   9.695  18.708  0.00  0.00    +0.000 A 
ATOM      7  C   UNL     1      -2.551   9.474  17.885  0.00  0.00    +0.000 A 
ATOM      8  C   UNL     1      -3.003  10.505  17.079  0.00  0.00    +0.000 A 
ATOM      9  C   UNL     1      -2.368  11.747  17.134  0.00  0.00    +0.000 A 
ATOM     10  C   UNL     1      -1.259  11.980  17.942  0.00  0.00    +0.000 A 
ATOM     11  N   UNL     1      -0.750  13.208  17.972  0.00  0.00    +0.000 NA
ATOM     12  H   UNL     1       1.969  10.736  20.596  0.00  0.00    +0.000 HD
ENDROOT
BRANCH   1  18
ATOM     13  C   UNL     1       2.120  15.205  18.921  0.00  0.00    +0.000 A 
ATOM     14  C   UNL     1       2.512  16.539  19.086  0.00  0.00    +0.000 A 
ATOM     15  C   UNL     1       1.551  17.532  19.259  0.00  0.00    +0.000 A 
ATOM     16  C   UNL     1       0.204  17.194  19.266  0.00  0.00    +0.000 A 
ATOM     17  C   UNL     1      -0.183  15.861  19.095  0.00  0.00    +0.000 A 
ATOM     18  C   UNL     1       0.763  14.828  18.913  0.00  0.00    +0.000 A 
BRANCH  13  19
ATOM     19  O   UNL     1       3.099  14.253  18.810  0.00  0.00    +0.000 OA
ATOM     20  H   UNL     1       3.515  14.112  19.677  0.00  0.00    +0.000 HD
ENDBRANCH  13  19
ENDBRANCH   1  18
BRANCH   4  21
ATOM     21  C   UNL     1       1.394   8.925  19.834  0.00  0.00    +0.000 A 
ATOM     22  C   UNL     1       1.170   7.930  20.791  0.00  0.00    +0.000 A 
ATOM     23  C   UNL     1       1.716   6.659  20.632  0.00  0.00    +0.000 A 
ATOM     24  C   UNL     1       2.406   6.337  19.466  0.00  0.00    +0.000 A 
ATOM     25  C   UNL     1       2.496   7.283  18.443  0.00  0.00    +0.000 A 
ATOM     26  C   UNL     1       1.977   8.568  18.617  0.00  0.00    +0.000 A 
BRANCH  24  27
ATOM     27  O   UNL     1       3.084   5.175  19.234  0.00  0.00    +0.000 OA
BRANCH  27  28
ATOM     28  C   UNL     1       4.498   5.179  19.440  0.00  0.00    +0.000 C 
BRANCH  28  29
ATOM     29  C   UNL     1       5.139   4.455  18.254  0.00  0.00    +0.000 C 
BRANCH  29  30
ATOM     30  N   UNL     1       6.349   5.107  17.716  0.00  0.00    +0.000 NA
ATOM     31  C   UNL     1       6.035   6.495  17.298  0.00  0.00    +0.000 C 
ATOM     32  C   UNL     1       5.190   6.583  16.011  0.00  0.00    +0.000 C 
ATOM     33  O   UNL     1       5.797   5.870  14.924  0.00  0.00    +0.000 OA
ATOM     34  C   UNL     1       6.044   4.504  15.280  0.00  0.00    +0.000 C 
ATOM     35  C   UNL     1       6.924   4.418  16.536  0.00  0.00    +0.000 C 
ENDBRANCH  29  30
ENDBRANCH  28  29
ENDBRANCH  27  28
ENDBRANCH  24  27
ENDBRANCH   4  21
TORSDOF 7
ENDMDL
MODEL 5
REMARK VINA RESULT:      -7.7      1.385      1.654
REMARK  Name = 
REMARK  7 active torsions:
REMARK  status: ('A' for Active; 'I' for Inactive)
REMARK    1  A    between atoms: O_1  and  C_2
REMARK    2  A    between atoms: C_7  and  C_8
REMARK    3  A    between atoms: N_11  and  C_12
REMARK    4  A    between atoms: C_15  and  O_16
REMARK    5  A    between atoms: O_16  and  C_17
REMARK    6  A    between atoms: C_17  and  C_18
REMARK    7  A    between atoms: C_18  and  N_19
REMARK                            x       y       z     vdW  Elec       q    Type
REMARK                         _______ _______ _______ _____ _____    ______ ____
ROOT
ATOM      1  C   UNL     1       0.800  13.399  19.442  0.00  0.00    +0.000 A 
ATOM      2  N   UNL     1       1.334  12.323  20.042  0.00  0.00    +0.000 NA
ATOM      3  C   UNL     1       0.744  11.140  19.823  0.00  0.00    +0.000 A 
ATOM      4  N   UNL     1       1.375  10.062  20.469  0.00  0.00    +0.000 N 
ATOM      5  C   UNL     1      -0.412  11.007  19.021  0.00  0.00    +0.000 A 
ATOM      6  C   UNL     1      -1.204   9.836  18.841  0.00  0.00    +0.000 A 
ATOM      7  C   UNL     1      -2.257   9.791  17.933  0.00  0.00    +0.000 A 
ATOM      8  C   UNL     1      -2.581  10.936  17.226  0.00  0.00    +0.000 A 
ATOM      9  C   UNL     1      -1.867  12.113  17.461  0.00  0.00    +0.000 A 
ATOM     10  C   UNL     1      -0.803  12.170  18.356  0.00  0.00    +0.000 A 
ATOM     11  N   UNL     1      -0.214  13.346  18.558  0.00  0.00    +0.000 NA
ATOM     12  H   UNL     1       2.143  10.400  21.038  0.00  0.00    +0.000 HD
ENDROOT
BRANCH   1  18
ATOM     13  C   UNL     1       1.630  15.151  21.080  0.00  0.00    +0.000 A 
ATOM     14  C   UNL     1       2.113  16.437  21.354  0.00  0.00    +0.000 A 
ATOM     15  C   UNL     1       2.306  17.344  20.314  0.00  0.00    +0.000 A 
ATOM     16  C   UNL     1       2.018  16.967  19.008  0.00  0.00    +0.000 A 
ATOM     17  C   UNL     1       1.543  15.679  18.741  0.00  0.00    +0.000 A 
ATOM     18  C   UNL     1       1.339  14.733  19.768  0.00  0.00    +0.000 A 
BRANCH  13  19
ATOM     19  O   UNL     1       1.402  14.309  22.138  0.00  0.00    +0.000 OA
ATOM     20  H   UNL     1       1.705  13.414  21.912  0.00  0.00    +0.000 HD
ENDBRANCH  13  19
ENDBRANCH   1  18
BRANCH   4  21
ATOM     21  C   UNL     1       1.500   8.733  20.039  0.00  0.00    +0.000 A 
ATOM     22  C   UNL     1       1.256   7.656  20.899  0.00  0.00    +0.000 A 
ATOM     23  C   UNL     1       1.735   6.385  20.594  0.00  0.00    +0.000 A 
ATOM     24  C   UNL     1       2.374   6.153  19.378  0.00  0.00    +0.000 A 
ATOM     25  C   UNL     1       2.480   7.194  18.453  0.00  0.00    +0.000 A 
ATOM     26  C   UNL     1       2.028   8.477  18.774  0.00  0.00    +0.000 A 
BRANCH  24  27
ATOM     27  O   UNL     1       2.988   4.992  19.007  0.00  0.00    +0.000 OA
BRANCH  27  28
ATOM     28  C   UNL     1       2.986   4.654  17.619  0.00  0.00    +0.000 C 
BRANCH  28  29
ATOM     29  C   UNL     1       4.366   4.087  17.279  0.00  0.00    +0.000 C 
BRANCH  29  30
ATOM     30  N   UNL     1       4.995   4.674  16.080  0.00  0.00    +0.000 NA
ATOM     31  C   UNL     1       6.349   4.102  15.885  0.00  0.00    +0.000 C 
ATOM     32  C   UNL     1       7.392   4.603  16.904  0.00  0.00    +0.000 C 
ATOM     33  O   UNL     1       7.465   6.036  16.933  0.00  0.00    +0.000 OA
ATOM     34  C   UNL     1       6.178   6.612  17.194  0.00  0.00    +0.000 C 
ATOM     35  C   UNL     1       5.152   6.147  16.150  0.00  0.00    +0.000 C 
ENDBRANCH  29  30
ENDBRANCH  28  29
ENDBRANCH  27  28
ENDBRANCH  24  27
ENDBRANCH   4  21
TORSDOF 7
ENDMDL
MODEL 6
REMARK VINA RESULT:      -7.7      2.468      5.061
REMARK  Name = 
REMARK  7 active torsions:
REMARK  status: ('A' for Active; 'I' for Inactive)
REMARK    1  A    between atoms: O_1  and  C_2
REMARK    2  A    between atoms: C_7  and  C_8
REMARK    3  A    between atoms: N_11  and  C_12
REMARK    4  A    between atoms: C_15  and  O_16
REMARK    5  A    between atoms: O_16  and  C_17
REMARK    6  A    between atoms: C_17  and  C_18
REMARK    7  A    between atoms: C_18  and  N_19
REMARK                            x       y       z     vdW  Elec       q    Type
REMARK                         _______ _______ _______ _____ _____    ______ ____
ROOT
ATOM      1  C   UNL     1      -2.458  11.855  18.713  0.00  0.00    +0.000 A 
ATOM      2  N   UNL     1      -1.829  10.750  18.279  0.00  0.00    +0.000 NA
ATOM      3  C   UNL     1      -0.493  10.726  18.370  0.00  0.00    +0.000 A 
ATOM      4  N   UNL     1       0.086   9.527  17.916  0.00  0.00    +0.000 N 
ATOM      5  C   UNL     1       0.253  11.819  18.868  0.00  0.00    +0.000 A 
ATOM      6  C   UNL     1       1.670  11.964  18.871  0.00  0.00    +0.000 A 
ATOM      7  C   UNL     1       2.300  13.035  19.496  0.00  0.00    +0.000 A 
ATOM      8  C   UNL     1       1.524  14.019  20.082  0.00  0.00    +0.000 A 
ATOM      9  C   UNL     1       0.132  13.931  20.007  0.00  0.00    +0.000 A 
ATOM     10  C   UNL     1      -0.513  12.860  19.397  0.00  0.00    +0.000 A 
ATOM     11  N   UNL     1      -1.841  12.884  19.324  0.00  0.00    +0.000 NA
ATOM     12  H   UNL     1      -0.631   8.914  17.545  0.00  0.00    +0.000 HD
ENDROOT
BRANCH   1  18
ATOM     13  C   UNL     1      -4.529  11.820  17.247  0.00  0.00    +0.000 A 
ATOM     14  C   UNL     1      -5.913  11.967  17.083  0.00  0.00    +0.000 A 
ATOM     15  C   UNL     1      -6.714  12.281  18.177  0.00  0.00    +0.000 A 
ATOM     16  C   UNL     1      -6.137  12.447  19.430  0.00  0.00    +0.000 A 
ATOM     17  C   UNL     1      -4.756  12.292  19.589  0.00  0.00    +0.000 A 
ATOM     18  C   UNL     1      -3.913  11.971  18.503  0.00  0.00    +0.000 A 
BRANCH  13  19
ATOM     19  O   UNL     1      -3.771  11.566  16.134  0.00  0.00    +0.000 OA
ATOM     20  H   UNL     1      -4.305  11.088  15.478  0.00  0.00    +0.000 HD
ENDBRANCH  13  19
ENDBRANCH   1  18
BRANCH   4  21
ATOM     21  C   UNL     1       1.235   8.875  18.387  0.00  0.00    +0.000 A 
ATOM     22  C   UNL     1       2.294   8.544  17.535  0.00  0.00    +0.000 A 
ATOM     23  C   UNL     1       3.233   7.587  17.913  0.00  0.00    +0.000 A 
ATOM     24  C   UNL     1       3.185   7.026  19.186  0.00  0.00    +0.000 A 
ATOM     25  C   UNL     1       2.219   7.471  20.092  0.00  0.00    +0.000 A 
ATOM     26  C   UNL     1       1.257   8.406  19.701  0.00  0.00    +0.000 A 
BRANCH  24  27
ATOM     27  O   UNL     1       3.967   6.004  19.639  0.00  0.00    +0.000 OA
BRANCH  27  28
ATOM     28  C   UNL     1       4.601   5.172  18.665  0.00  0.00    +0.000 C 
BRANCH  28  29
ATOM     29  C   UNL     1       4.323   3.717  19.050  0.00  0.00    +0.000 C 
BRANCH  29  30
ATOM     30  N   UNL     1       3.773   2.887  17.961  0.00  0.00    +0.000 NA
ATOM     31  C   UNL     1       2.797   3.672  17.166  0.00  0.00    +0.000 C 
ATOM     32  C   UNL     1       1.463   3.928  17.894  0.00  0.00    +0.000 C 
ATOM     33  O   UNL     1       0.858   2.708  18.346  0.00  0.00    +0.000 OA
ATOM     34  C   UNL     1       1.757   1.965  19.178  0.00  0.00    +0.000 C 
ATOM     35  C   UNL     1       3.069   1.670  18.434  0.00  0.00    +0.000 C 
ENDBRANCH  29  30
ENDBRANCH  28  29
ENDBRANCH  27  28
ENDBRANCH  24  27
ENDBRANCH   4  21
TORSDOF 7
ENDMDL
MODEL 7
REMARK VINA RESULT:      -7.7      2.886      9.693
REMARK  Name = 
REMARK  7 active torsions:
REMARK  status: ('A' for Active; 'I' for Inactive)
REMARK    1  A    between atoms: O_1  and  C_2
REMARK    2  A    between atoms: C_7  and  C_8
REMARK    3  A    between atoms: N_11  and  C_12
REMARK    4  A    between atoms: C_15  and  O_16
REMARK    5  A    between atoms: O_16  and  C_17
REMARK    6  A    between atoms: C_17  and  C_18
REMARK    7  A    between atoms: C_18  and  N_19
REMARK                            x       y       z     vdW  Elec       q    Type
REMARK                         _______ _______ _______ _____ _____    ______ ____
ROOT
ATOM      1  C   UNL     1       1.901   7.990  19.535  0.00  0.00    +0.000 A 
ATOM      2  N   UNL     1       1.767   9.055  18.729  0.00  0.00    +0.000 NA
ATOM      3  C   UNL     1       1.090  10.108  19.207  0.00  0.00    +0.000 A 
ATOM      4  N   UNL     1       1.013  11.189  18.311  0.00  0.00    +0.000 N 
ATOM      5  C   UNL     1       0.503  10.110  20.493  0.00  0.00    +0.000 A 
ATOM      6  C   UNL     1      -0.358  11.103  21.044  0.00  0.00    +0.000 A 
ATOM      7  C   UNL     1      -0.783  11.057  22.367  0.00  0.00    +0.000 A 
ATOM      8  C   UNL     1      -0.406   9.985  23.156  0.00  0.00    +0.000 A 
ATOM      9  C   UNL     1       0.365   8.961  22.599  0.00  0.00    +0.000 A 
ATOM     10  C   UNL     1       0.809   8.999  21.281  0.00  0.00    +0.000 A 
ATOM     11  N   UNL     1       1.493   7.957  20.818  0.00  0.00    +0.000 NA
ATOM     12  H   UNL     1       1.448  10.941  17.429  0.00  0.00    +0.000 HD
ENDROOT
BRANCH   1  18
ATOM     13  C   UNL     1       2.266   5.478  19.503  0.00  0.00    +0.000 A 
ATOM     14  C   UNL     1       2.897   4.342  18.981  0.00  0.00    +0.000 A 
ATOM     15  C   UNL     1       3.810   4.469  17.938  0.00  0.00    +0.000 A 
ATOM     16  C   UNL     1       4.091   5.727  17.418  0.00  0.00    +0.000 A 
ATOM     17  C   UNL     1       3.454   6.857  17.938  0.00  0.00    +0.000 A 
ATOM     18  C   UNL     1       2.520   6.765  18.994  0.00  0.00    +0.000 A 
BRANCH  13  19
ATOM     19  O   UNL     1       1.417   5.314  20.566  0.00  0.00    +0.000 OA
ATOM     20  H   UNL     1       0.621   5.855  20.433  0.00  0.00    +0.000 HD
ENDBRANCH  13  19
ENDBRANCH   1  18
BRANCH   4  21
ATOM     21  C   UNL     1       0.995  12.563  18.593  0.00  0.00    +0.000 A 
ATOM     22  C   UNL     1       2.063  13.195  19.239  0.00  0.00    +0.000 A 
ATOM     23  C   UNL     1       1.888  14.437  19.843  0.00  0.00    +0.000 A 
ATOM     24  C   UNL     1       0.674  15.109  19.721  0.00  0.00    +0.000 A 
ATOM     25  C   UNL     1      -0.341  14.547  18.945  0.00  0.00    +0.000 A 
ATOM     26  C   UNL     1      -0.177  13.285  18.367  0.00  0.00    +0.000 A 
BRANCH  24  27
ATOM     27  O   UNL     1       0.336  16.269  20.355  0.00  0.00    +0.000 OA
BRANCH  27  28
ATOM     28  C   UNL     1      -1.031  16.444  20.734  0.00  0.00    +0.000 C 
BRANCH  28  29
ATOM     29  C   UNL     1      -1.132  16.170  22.237  0.00  0.00    +0.000 C 
BRANCH  29  30
ATOM     30  N   UNL     1      -1.373  14.757  22.589  0.00  0.00    +0.000 NA
ATOM     31  C   UNL     1      -2.689  14.319  22.062  0.00  0.00    +0.000 C 
ATOM     32  C   UNL     1      -3.893  14.908  22.823  0.00  0.00    +0.000 C 
ATOM     33  O   UNL     1      -3.817  14.642  24.231  0.00  0.00    +0.000 OA
ATOM     34  C   UNL     1      -2.583  15.123  24.779  0.00  0.00    +0.000 C 
ATOM     35  C   UNL     1      -1.384  14.500  24.050  0.00  0.00    +0.000 C 
ENDBRANCH  29  30
ENDBRANCH  28  29
ENDBRANCH  27  28
ENDBRANCH  24  27
ENDBRANCH   4  21
TORSDOF 7
ENDMDL
MODEL 8
REMARK VINA RESULT:      -7.5      2.783     10.139
REMARK  Name = 
REMARK  7 active torsions:
REMARK  status: ('A' for Active; 'I' for Inactive)
REMARK    1  A    between atoms: O_1  and  C_2
REMARK    2  A    between atoms: C_7  and  C_8
REMARK    3  A    between atoms: N_11  and  C_12
REMARK    4  A    between atoms: C_15  and  O_16
REMARK    5  A    between atoms: O_16  and  C_17
REMARK    6  A    between atoms: C_17  and  C_18
REMARK    7  A    between atoms: C_18  and  N_19
REMARK                            x       y       z     vdW  Elec       q    Type
REMARK                         _______ _______ _______ _____ _____    ______ ____
ROOT
ATOM      1  C   UNL     1       6.062   4.549  15.163  0.00  0.00    +0.000 A 
ATOM      2  N   UNL     1       4.786   4.553  15.580  0.00  0.00    +0.000 NA
ATOM      3  C   UNL     1       4.563   4.815  16.875  0.00  0.00    +0.000 A 
ATOM      4  N   UNL     1       3.201   4.822  17.227  0.00  0.00    +0.000 N 
ATOM      5  C   UNL     1       5.612   5.051  17.793  0.00  0.00    +0.000 A 
ATOM      6  C   UNL     1       5.504   5.189  19.206  0.00  0.00    +0.000 A 
ATOM      7  C   UNL     1       6.594   5.536  19.998  0.00  0.00    +0.000 A 
ATOM      8  C   UNL     1       7.832   5.695  19.402  0.00  0.00    +0.000 A 
ATOM      9  C   UNL     1       7.966   5.473  18.029  0.00  0.00    +0.000 A 
ATOM     10  C   UNL     1       6.883   5.139  17.221  0.00  0.00    +0.000 A 
ATOM     11  N   UNL     1       7.111   4.894  15.934  0.00  0.00    +0.000 NA
ATOM     12  H   UNL     1       2.634   4.566  16.426  0.00  0.00    +0.000 HD
ENDROOT
BRANCH   1  18
ATOM     13  C   UNL     1       7.371   4.705  12.993  0.00  0.00    +0.000 A 
ATOM     14  C   UNL     1       7.598   4.301  11.672  0.00  0.00    +0.000 A 
ATOM     15  C   UNL     1       6.800   3.313  11.099  0.00  0.00    +0.000 A 
ATOM     16  C   UNL     1       5.781   2.733  11.843  0.00  0.00    +0.000 A 
ATOM     17  C   UNL     1       5.563   3.136  13.164  0.00  0.00    +0.000 A 
ATOM     18  C   UNL     1       6.354   4.131  13.779  0.00  0.00    +0.000 A 
BRANCH  13  19
ATOM     19  O   UNL     1       8.142   5.718  13.500  0.00  0.00    +0.000 OA
ATOM     20  H   UNL     1       8.073   6.498  12.925  0.00  0.00    +0.000 HD
ENDBRANCH  13  19
ENDBRANCH   1  18
BRANCH   4  21
ATOM     21  C   UNL     1       2.547   5.610  18.185  0.00  0.00    +0.000 A 
ATOM     22  C   UNL     1       2.459   7.000  18.058  0.00  0.00    +0.000 A 
ATOM     23  C   UNL     1       2.157   7.794  19.162  0.00  0.00    +0.000 A 
ATOM     24  C   UNL     1       1.837   7.201  20.381  0.00  0.00    +0.000 A 
ATOM     25  C   UNL     1       1.773   5.809  20.467  0.00  0.00    +0.000 A 
ATOM     26  C   UNL     1       2.109   5.014  19.369  0.00  0.00    +0.000 A 
BRANCH  24  27
ATOM     27  O   UNL     1       1.636   7.858  21.560  0.00  0.00    +0.000 OA
BRANCH  27  28
ATOM     28  C   UNL     1       0.423   8.599  21.708  0.00  0.00    +0.000 C 
BRANCH  28  29
ATOM     29  C   UNL     1       0.791  10.085  21.745  0.00  0.00    +0.000 C 
BRANCH  29  30
ATOM     30  N   UNL     1      -0.228  10.985  21.173  0.00  0.00    +0.000 NA
ATOM     31  C   UNL     1      -0.386  10.719  19.723  0.00  0.00    +0.000 C 
ATOM     32  C   UNL     1       0.797  11.212  18.866  0.00  0.00    +0.000 C 
ATOM     33  O   UNL     1       1.069  12.604  19.081  0.00  0.00    +0.000 OA
ATOM     34  C   UNL     1       1.298  12.875  20.470  0.00  0.00    +0.000 C 
ATOM     35  C   UNL     1       0.098  12.425  21.317  0.00  0.00    +0.000 C 
ENDBRANCH  29  30
ENDBRANCH  28  29
ENDBRANCH  27  28
ENDBRANCH  24  27
ENDBRANCH   4  21
TORSDOF 7
ENDMDL
MODEL 9
REMARK VINA RESULT:      -7.5      3.155      4.956
REMARK  Name = 
REMARK  7 active torsions:
REMARK  status: ('A' for Active; 'I' for Inactive)
REMARK    1  A    between atoms: O_1  and  C_2
REMARK    2  A    between atoms: C_7  and  C_8
REMARK    3  A    between atoms: N_11  and  C_12
REMARK    4  A    between atoms: C_15  and  O_16
REMARK    5  A    between atoms: O_16  and  C_17
REMARK    6  A    between atoms: C_17  and  C_18
REMARK    7  A    between atoms: C_18  and  N_19
REMARK                            x       y       z     vdW  Elec       q    Type
REMARK                         _______ _______ _______ _____ _____    ______ ____
ROOT
ATOM      1  C   UNL     1      -1.325  12.486  21.200  0.00  0.00    +0.000 A 
ATOM      2  N   UNL     1      -1.166  11.243  20.716  0.00  0.00    +0.000 NA
ATOM      3  C   UNL     1      -0.119  11.026  19.909  0.00  0.00    +0.000 A 
ATOM      4  N   UNL     1      -0.012   9.697  19.462  0.00  0.00    +0.000 N 
ATOM      5  C   UNL     1       0.780  12.054  19.541  0.00  0.00    +0.000 A 
ATOM      6  C   UNL     1       1.830  11.975  18.582  0.00  0.00    +0.000 A 
ATOM      7  C   UNL     1       2.729  13.018  18.386  0.00  0.00    +0.000 A 
ATOM      8  C   UNL     1       2.564  14.189  19.105  0.00  0.00    +0.000 A 
ATOM      9  C   UNL     1       1.484  14.308  19.983  0.00  0.00    +0.000 A 
ATOM     10  C   UNL     1       0.584  13.269  20.199  0.00  0.00    +0.000 A 
ATOM     11  N   UNL     1      -0.445  13.488  21.013  0.00  0.00    +0.000 NA
ATOM     12  H   UNL     1      -0.798   9.153  19.799  0.00  0.00    +0.000 HD
ENDROOT
BRANCH   1  18
ATOM     13  C   UNL     1      -3.523  13.705  21.552  0.00  0.00    +0.000 A 
ATOM     14  C   UNL     1      -4.649  13.992  22.334  0.00  0.00    +0.000 A 
ATOM     15  C   UNL     1      -4.812  13.378  23.574  0.00  0.00    +0.000 A 
ATOM     16  C   UNL     1      -3.854  12.481  24.029  0.00  0.00    +0.000 A 
ATOM     17  C   UNL     1      -2.736  12.193  23.242  0.00  0.00    +0.000 A 
ATOM     18  C   UNL     1      -2.539  12.793  21.979  0.00  0.00    +0.000 A 
BRANCH  13  19
ATOM     19  O   UNL     1      -3.374  14.372  20.365  0.00  0.00    +0.000 OA
ATOM     20  H   UNL     1      -4.184  14.280  19.836  0.00  0.00    +0.000 HD
ENDBRANCH  13  19
ENDBRANCH   1  18
BRANCH   4  21
ATOM     21  C   UNL     1       1.147   8.954  19.190  0.00  0.00    +0.000 A 
ATOM     22  C   UNL     1       1.714   8.919  17.912  0.00  0.00    +0.000 A 
ATOM     23  C   UNL     1       2.610   7.910  17.564  0.00  0.00    +0.000 A 
ATOM     24  C   UNL     1       3.027   6.987  18.519  0.00  0.00    +0.000 A 
ATOM     25  C   UNL     1       2.579   7.117  19.835  0.00  0.00    +0.000 A 
ATOM     26  C   UNL     1       1.655   8.108  20.176  0.00  0.00    +0.000 A 
BRANCH  24  27
ATOM     27  O   UNL     1       3.805   5.890  18.284  0.00  0.00    +0.000 OA
BRANCH  27  28
ATOM     28  C   UNL     1       3.294   4.894  17.395  0.00  0.00    +0.000 C 
BRANCH  28  29
ATOM     29  C   UNL     1       1.979   4.380  17.984  0.00  0.00    +0.000 C 
BRANCH  29  30
ATOM     30  N   UNL     1       1.937   2.924  18.220  0.00  0.00    +0.000 NA
ATOM     31  C   UNL     1       0.854   2.595  19.178  0.00  0.00    +0.000 C 
ATOM     32  C   UNL     1       1.159   3.008  20.632  0.00  0.00    +0.000 C 
ATOM     33  O   UNL     1       2.403   2.462  21.093  0.00  0.00    +0.000 OA
ATOM     34  C   UNL     1       3.480   2.829  20.222  0.00  0.00    +0.000 C 
ATOM     35  C   UNL     1       3.195   2.374  18.782  0.00  0.00    +0.000 C 
ENDBRANCH  29  30
ENDBRANCH  28  29
ENDBRANCH  27  28
ENDBRANCH  24  27
ENDBRANCH   4  21
TORSDOF 7
ENDMDL
