MODEL 1
REMARK VINA RESULT:      -8.2      0.000      0.000
REMARK  Name = 
REMARK  10 active torsions:
REMARK  status: ('A' for Active; 'I' for Inactive)
REMARK    1  A    between atoms: C_1  and  C_2
REMARK    2  A    between atoms: C_2  and  C_3
REMARK    3  A    between atoms: C_2  and  O_4
REMARK    4  A    between atoms: O_4  and  C_5
REMARK    5  A    between atoms: C_8  and  C_9
REMARK    6  A    between atoms: C_11  and  C_12
REMARK    7  A    between atoms: C_20  and  N_21
REMARK    8  A    between atoms: N_21  and  S_22
REMARK    9  A    between atoms: S_22  and  C_25
REMARK   10  A    between atoms: C_31  and  C_32
REMARK                            x       y       z     vdW  Elec       q    Type
REMARK                         _______ _______ _______ _____ _____    ______ ____
ROOT
ATOM      1  C   UNL     1       1.889   8.959  18.453  0.00  0.00    +0.000 A 
ATOM      2  N   UNL     1       0.746   9.221  19.021  0.00  0.00    +0.000 NA
ATOM      3  C   UNL     1       0.532  10.525  18.680  0.00  0.00    +0.000 A 
ATOM      4  N   UNL     1       1.502  11.066  17.926  0.00  0.00    +0.000 NA
ATOM      5  O   UNL     1       2.413  10.010  17.766  0.00  0.00    +0.000 OA
ENDROOT
BRANCH   3   6
ATOM      6  C   UNL     1      -0.676  11.171  19.137  0.00  0.00    +0.000 A 
ATOM      7  C   UNL     1      -0.615  11.874  20.359  0.00  0.00    +0.000 A 
ATOM      8  C   UNL     1      -1.697  12.606  20.825  0.00  0.00    +0.000 A 
ATOM      9  C   UNL     1      -2.876  12.605  20.102  0.00  0.00    +0.000 A 
ATOM     10  C   UNL     1      -2.993  11.823  18.964  0.00  0.00    +0.000 A 
ATOM     11  C   UNL     1      -1.871  11.176  18.431  0.00  0.00    +0.000 A 
ATOM     12  C   UNL     1      -2.205  10.583  17.092  0.00  0.00    +0.000 C 
ATOM     13  C   UNL     1      -3.550  11.284  16.782  0.00  0.00    +0.000 C 
ATOM     14  C   UNL     1      -4.217  11.470  18.160  0.00  0.00    +0.000 C 
BRANCH  14  15
ATOM     15  N   UNL     1      -5.313  12.460  18.170  0.00  0.00    +0.000 NA
ATOM     16  H   UNL     1      -5.033  13.350  18.578  0.00  0.00    +0.000 HD
BRANCH  15  17
ATOM     17  S   UNL     1      -6.782  11.865  18.826  0.00  0.00    +0.000 S 
ATOM     18  O   UNL     1      -7.793  12.876  18.618  0.00  0.00    +0.000 OA
ATOM     19  O   UNL     1      -6.992  10.511  18.375  0.00  0.00    +0.000 OA
BRANCH  17  20
ATOM     20  C   UNL     1      -6.639  11.662  20.608  0.00  0.00    +0.000 C 
ATOM     21  C   UNL     1      -6.384  12.951  21.350  0.00  0.00    +0.000 C 
ATOM     22  C   UNL     1      -7.717  12.257  21.456  0.00  0.00    +0.000 C 
ENDBRANCH  17  20
ENDBRANCH  15  17
ENDBRANCH  14  15
ENDBRANCH   3   6
BRANCH   1  26
ATOM     23  C   UNL     1       4.125   5.333  18.453  0.00  0.00    +0.000 A 
ATOM     24  C   UNL     1       3.195   5.573  19.480  0.00  0.00    +0.000 A 
ATOM     25  C   UNL     1       2.435   6.748  19.512  0.00  0.00    +0.000 A 
ATOM     26  C   UNL     1       2.607   7.705  18.515  0.00  0.00    +0.000 A 
ATOM     27  C   UNL     1       3.510   7.447  17.470  0.00  0.00    +0.000 A 
ATOM     28  C   UNL     1       4.243   6.258  17.417  0.00  0.00    +0.000 A 
BRANCH  28  29
ATOM     29  C   UNL     1       5.031   6.082  16.241  0.00  0.00    +0.000 C 
ATOM     30  N   UNL     1       5.724   5.968  15.318  0.00  0.00    +0.000 NA
ENDBRANCH  28  29
BRANCH  23  31
ATOM     31  O   UNL     1       4.774   4.131  18.562  0.00  0.00    +0.000 OA
BRANCH  31  33
ATOM     32  C   UNL     1       3.552   2.264  19.440  0.00  0.00    +0.000 C 
ATOM     33  C   UNL     1       4.079   2.936  18.177  0.00  0.00    +0.000 C 
ATOM     34  C   UNL     1       2.915   3.331  17.272  0.00  0.00    +0.000 C 
ENDBRANCH  31  33
ENDBRANCH  23  31
ENDBRANCH   1  26
TORSDOF 8
ENDMDL
MODEL 2
REMARK VINA RESULT:      -8.2      3.518      4.310
REMARK  Name = 
REMARK  10 active torsions:
REMARK  status: ('A' for Active; 'I' for Inactive)
REMARK    1  A    between atoms: C_1  and  C_2
REMARK    2  A    between atoms: C_2  and  C_3
REMARK    3  A    between atoms: C_2  and  O_4
REMARK    4  A    between atoms: O_4  and  C_5
REMARK    5  A    between atoms: C_8  and  C_9
REMARK    6  A    between atoms: C_11  and  C_12
REMARK    7  A    between atoms: C_20  and  N_21
REMARK    8  A    between atoms: N_21  and  S_22
REMARK    9  A    between atoms: S_22  and  C_25
REMARK   10  A    between atoms: C_31  and  C_32
REMARK                            x       y       z     vdW  Elec       q    Type
REMARK                         _______ _______ _______ _____ _____    ______ ____
ROOT
ATOM      1  C   UNL     1       2.003   8.450  18.422  0.00  0.00    +0.000 A 
ATOM      2  N   UNL     1       1.573   8.558  19.646  0.00  0.00    +0.000 NA
ATOM      3  C   UNL     1       0.857   9.719  19.613  0.00  0.00    +0.000 A 
ATOM      4  N   UNL     1       0.837  10.323  18.414  0.00  0.00    +0.000 NA
ATOM      5  O   UNL     1       1.602   9.464  17.608  0.00  0.00    +0.000 OA
ENDROOT
BRANCH   3   6
ATOM      6  C   UNL     1       0.207  10.167  20.823  0.00  0.00    +0.000 A 
ATOM      7  C   UNL     1      -0.267   9.178  21.710  0.00  0.00    +0.000 A 
ATOM      8  C   UNL     1      -0.814   9.515  22.940  0.00  0.00    +0.000 A 
ATOM      9  C   UNL     1      -0.942  10.849  23.280  0.00  0.00    +0.000 A 
ATOM     10  C   UNL     1      -0.594  11.835  22.371  0.00  0.00    +0.000 A 
ATOM     11  C   UNL     1       0.061  11.500  21.180  0.00  0.00    +0.000 A 
ATOM     12  C   UNL     1       0.524  12.746  20.478  0.00  0.00    +0.000 C 
ATOM     13  C   UNL     1       0.360  13.799  21.601  0.00  0.00    +0.000 C 
ATOM     14  C   UNL     1      -0.862  13.317  22.409  0.00  0.00    +0.000 C 
BRANCH  14  15
ATOM     15  N   UNL     1      -0.974  13.927  23.750  0.00  0.00    +0.000 NA
ATOM     16  H   UNL     1      -0.555  13.352  24.477  0.00  0.00    +0.000 HD
BRANCH  15  17
ATOM     17  S   UNL     1      -2.561  14.443  24.148  0.00  0.00    +0.000 S 
ATOM     18  O   UNL     1      -2.545  14.878  25.525  0.00  0.00    +0.000 OA
ATOM     19  O   UNL     1      -3.055  15.312  23.107  0.00  0.00    +0.000 OA
BRANCH  17  20
ATOM     20  C   UNL     1      -3.710  13.060  24.075  0.00  0.00    +0.000 C 
ATOM     21  C   UNL     1      -5.152  13.473  23.908  0.00  0.00    +0.000 C 
ATOM     22  C   UNL     1      -4.408  12.813  22.777  0.00  0.00    +0.000 C 
ENDBRANCH  17  20
ENDBRANCH  15  17
ENDBRANCH  14  15
ENDBRANCH   3   6
BRANCH   1  26
ATOM     23  C   UNL     1       4.323   5.193  16.951  0.00  0.00    +0.000 A 
ATOM     24  C   UNL     1       4.780   6.509  16.764  0.00  0.00    +0.000 A 
ATOM     25  C   UNL     1       4.051   7.606  17.239  0.00  0.00    +0.000 A 
ATOM     26  C   UNL     1       2.845   7.395  17.901  0.00  0.00    +0.000 A 
ATOM     27  C   UNL     1       2.408   6.078  18.119  0.00  0.00    +0.000 A 
ATOM     28  C   UNL     1       3.152   4.980  17.678  0.00  0.00    +0.000 A 
BRANCH  28  29
ATOM     29  C   UNL     1       2.647   3.705  18.071  0.00  0.00    +0.000 C 
ATOM     30  N   UNL     1       2.240   2.650  18.325  0.00  0.00    +0.000 NA
ENDBRANCH  28  29
BRANCH  23  31
ATOM     31  O   UNL     1       5.160   4.237  16.439  0.00  0.00    +0.000 OA
BRANCH  31  33
ATOM     32  C   UNL     1       7.546   4.370  16.644  0.00  0.00    +0.000 C 
ATOM     33  C   UNL     1       6.346   4.658  15.749  0.00  0.00    +0.000 C 
ATOM     34  C   UNL     1       6.456   3.855  14.456  0.00  0.00    +0.000 C 
ENDBRANCH  31  33
ENDBRANCH  23  31
ENDBRANCH   1  26
TORSDOF 8
ENDMDL
MODEL 3
REMARK VINA RESULT:      -8.2      7.539     10.625
REMARK  Name = 
REMARK  10 active torsions:
REMARK  status: ('A' for Active; 'I' for Inactive)
REMARK    1  A    between atoms: C_1  and  C_2
REMARK    2  A    between atoms: C_2  and  C_3
REMARK    3  A    between atoms: C_2  and  O_4
REMARK    4  A    between atoms: O_4  and  C_5
REMARK    5  A    between atoms: C_8  and  C_9
REMARK    6  A    between atoms: C_11  and  C_12
REMARK    7  A    between atoms: C_20  and  N_21
REMARK    8  A    between atoms: N_21  and  S_22
REMARK    9  A    between atoms: S_22  and  C_25
REMARK   10  A    between atoms: C_31  and  C_32
REMARK                            x       y       z     vdW  Elec       q    Type
REMARK                         _______ _______ _______ _____ _____    ______ ____
ROOT
ATOM      1  C   UNL     1       8.181   8.664  18.150  0.00  0.00    +0.000 A 
ATOM      2  N   UNL     1       7.274   8.134  17.381  0.00  0.00    +0.000 NA
ATOM      3  C   UNL     1       7.243   6.836  17.801  0.00  0.00    +0.000 A 
ATOM      4  N   UNL     1       8.100   6.555  18.796  0.00  0.00    +0.000 NA
ATOM      5  O   UNL     1       8.727   7.789  19.038  0.00  0.00    +0.000 OA
ENDROOT
BRANCH   3   6
ATOM      6  C   UNL     1       6.322   5.924  17.165  0.00  0.00    +0.000 A 
ATOM      7  C   UNL     1       6.787   5.209  16.040  0.00  0.00    +0.000 A 
ATOM      8  C   UNL     1       6.005   4.240  15.428  0.00  0.00    +0.000 A 
ATOM      9  C   UNL     1       4.726   4.007  15.898  0.00  0.00    +0.000 A 
ATOM     10  C   UNL     1       4.209   4.784  16.922  0.00  0.00    +0.000 A 
ATOM     11  C   UNL     1       5.032   5.681  17.614  0.00  0.00    +0.000 A 
ATOM     12  C   UNL     1       4.304   6.233  18.807  0.00  0.00    +0.000 C 
ATOM     13  C   UNL     1       3.100   5.264  18.897  0.00  0.00    +0.000 C 
ATOM     14  C   UNL     1       2.795   4.887  17.433  0.00  0.00    +0.000 C 
BRANCH  14  15
ATOM     15  N   UNL     1       1.957   3.680  17.284  0.00  0.00    +0.000 NA
ATOM     16  H   UNL     1       1.204   3.807  16.612  0.00  0.00    +0.000 HD
BRANCH  15  17
ATOM     17  S   UNL     1       1.413   3.024  18.773  0.00  0.00    +0.000 S 
ATOM     18  O   UNL     1       1.324   4.111  19.720  0.00  0.00    +0.000 OA
ATOM     19  O   UNL     1       0.280   2.165  18.529  0.00  0.00    +0.000 OA
BRANCH  17  20
ATOM     20  C   UNL     1       2.631   1.879  19.439  0.00  0.00    +0.000 C 
ATOM     21  C   UNL     1       3.643   1.407  18.424  0.00  0.00    +0.000 C 
ATOM     22  C   UNL     1       4.046   2.355  19.523  0.00  0.00    +0.000 C 
ENDBRANCH  17  20
ENDBRANCH  15  17
ENDBRANCH  14  15
ENDBRANCH   3   6
BRANCH   1  26
ATOM     23  C   UNL     1       9.711  12.640  18.164  0.00  0.00    +0.000 A 
ATOM     24  C   UNL     1       8.528  12.356  17.460  0.00  0.00    +0.000 A 
ATOM     25  C   UNL     1       7.989  11.064  17.437  0.00  0.00    +0.000 A 
ATOM     26  C   UNL     1       8.637  10.036  18.115  0.00  0.00    +0.000 A 
ATOM     27  C   UNL     1       9.799  10.330  18.849  0.00  0.00    +0.000 A 
ATOM     28  C   UNL     1      10.319  11.626  18.903  0.00  0.00    +0.000 A 
BRANCH  28  29
ATOM     29  C   UNL     1      11.432  11.799  19.779  0.00  0.00    +0.000 C 
ATOM     30  N   UNL     1      12.333  11.872  20.504  0.00  0.00    +0.000 NA
ENDBRANCH  28  29
BRANCH  23  31
ATOM     31  O   UNL     1      10.095  13.954  18.097  0.00  0.00    +0.000 OA
BRANCH  31  33
ATOM     32  C   UNL     1      10.958  15.924  17.036  0.00  0.00    +0.000 C 
ATOM     33  C   UNL     1      10.759  14.417  16.912  0.00  0.00    +0.000 C 
ATOM     34  C   UNL     1      12.113  13.719  16.820  0.00  0.00    +0.000 C 
ENDBRANCH  31  33
ENDBRANCH  23  31
ENDBRANCH   1  26
TORSDOF 8
ENDMDL
MODEL 4
REMARK VINA RESULT:      -8.1      0.881      1.065
REMARK  Name = 
REMARK  10 active torsions:
REMARK  status: ('A' for Active; 'I' for Inactive)
REMARK    1  A    between atoms: C_1  and  C_2
REMARK    2  A    between atoms: C_2  and  C_3
REMARK    3  A    between atoms: C_2  and  O_4
REMARK    4  A    between atoms: O_4  and  C_5
REMARK    5  A    between atoms: C_8  and  C_9
REMARK    6  A    between atoms: C_11  and  C_12
REMARK    7  A    between atoms: C_20  and  N_21
REMARK    8  A    between atoms: N_21  and  S_22
REMARK    9  A    between atoms: S_22  and  C_25
REMARK   10  A    between atoms: C_31  and  C_32
REMARK                            x       y       z     vdW  Elec       q    Type
REMARK                         _______ _______ _______ _____ _____    ______ ____
ROOT
ATOM      1  C   UNL     1       1.969   8.549  18.103  0.00  0.00    +0.000 A 
ATOM      2  N   UNL     1       0.859   8.911  18.681  0.00  0.00    +0.000 NA
ATOM      3  C   UNL     1       0.827  10.256  18.457  0.00  0.00    +0.000 A 
ATOM      4  N   UNL     1       1.877  10.728  17.766  0.00  0.00    +0.000 NA
ATOM      5  O   UNL     1       2.643   9.577  17.519  0.00  0.00    +0.000 OA
ENDROOT
BRANCH   3   6
ATOM      6  C   UNL     1      -0.294  11.015  18.960  0.00  0.00    +0.000 A 
ATOM      7  C   UNL     1      -0.075  11.827  20.093  0.00  0.00    +0.000 A 
ATOM      8  C   UNL     1      -1.066  12.664  20.583  0.00  0.00    +0.000 A 
ATOM      9  C   UNL     1      -2.310  12.666  19.979  0.00  0.00    +0.000 A 
ATOM     10  C   UNL     1      -2.581  11.787  18.943  0.00  0.00    +0.000 A 
ATOM     11  C   UNL     1      -1.552  11.025  18.374  0.00  0.00    +0.000 A 
ATOM     12  C   UNL     1      -2.049  10.328  17.139  0.00  0.00    +0.000 C 
ATOM     13  C   UNL     1      -3.381  11.077  16.889  0.00  0.00    +0.000 C 
ATOM     14  C   UNL     1      -3.896  11.433  18.298  0.00  0.00    +0.000 C 
BRANCH  14  15
ATOM     15  N   UNL     1      -4.933  12.485  18.312  0.00  0.00    +0.000 NA
ATOM     16  H   UNL     1      -4.773  13.183  19.035  0.00  0.00    +0.000 HD
BRANCH  15  17
ATOM     17  S   UNL     1      -6.538  11.878  18.321  0.00  0.00    +0.000 S 
ATOM     18  O   UNL     1      -7.272  12.575  17.290  0.00  0.00    +0.000 OA
ATOM     19  O   UNL     1      -6.503  10.437  18.353  0.00  0.00    +0.000 OA
BRANCH  17  20
ATOM     20  C   UNL     1      -7.354  12.281  19.873  0.00  0.00    +0.000 C 
ATOM     21  C   UNL     1      -6.418  12.345  21.056  0.00  0.00    +0.000 C 
ATOM     22  C   UNL     1      -7.033  13.601  20.496  0.00  0.00    +0.000 C 
ENDBRANCH  17  20
ENDBRANCH  15  17
ENDBRANCH  14  15
ENDBRANCH   3   6
BRANCH   1  26
ATOM     23  C   UNL     1       3.774   4.695  17.911  0.00  0.00    +0.000 A 
ATOM     24  C   UNL     1       2.442   4.815  18.343  0.00  0.00    +0.000 A 
ATOM     25  C   UNL     1       1.810   6.062  18.414  0.00  0.00    +0.000 A 
ATOM     26  C   UNL     1       2.513   7.210  18.058  0.00  0.00    +0.000 A 
ATOM     27  C   UNL     1       3.832   7.084  17.591  0.00  0.00    +0.000 A 
ATOM     28  C   UNL     1       4.453   5.836  17.486  0.00  0.00    +0.000 A 
BRANCH  28  29
ATOM     29  C   UNL     1       5.748   5.849  16.887  0.00  0.00    +0.000 C 
ATOM     30  N   UNL     1       6.824   5.891  16.458  0.00  0.00    +0.000 NA
ENDBRANCH  28  29
BRANCH  23  31
ATOM     31  O   UNL     1       4.236   3.405  17.887  0.00  0.00    +0.000 OA
BRANCH  31  33
ATOM     32  C   UNL     1       3.639   1.096  18.141  0.00  0.00    +0.000 C 
ATOM     33  C   UNL     1       3.688   2.461  18.819  0.00  0.00    +0.000 C 
ATOM     34  C   UNL     1       4.607   2.405  20.037  0.00  0.00    +0.000 C 
ENDBRANCH  31  33
ENDBRANCH  23  31
ENDBRANCH   1  26
TORSDOF 8
ENDMDL
MODEL 5
REMARK VINA RESULT:      -8.0      1.452      1.688
REMARK  Name = 
REMARK  10 active torsions:
REMARK  status: ('A' for Active; 'I' for Inactive)
REMARK    1  A    between atoms: C_1  and  C_2
REMARK    2  A    between atoms: C_2  and  C_3
REMARK    3  A    between atoms: C_2  and  O_4
REMARK    4  A    between atoms: O_4  and  C_5
REMARK    5  A    between atoms: C_8  and  C_9
REMARK    6  A    between atoms: C_11  and  C_12
REMARK    7  A    between atoms: C_20  and  N_21
REMARK    8  A    between atoms: N_21  and  S_22
REMARK    9  A    between atoms: S_22  and  C_25
REMARK   10  A    between atoms: C_31  and  C_32
REMARK                            x       y       z     vdW  Elec       q    Type
REMARK                         _______ _______ _______ _____ _____    ______ ____
ROOT
ATOM      1  C   UNL     1       2.057   8.550  18.519  0.00  0.00    +0.000 A 
ATOM      2  N   UNL     1       1.216   9.081  19.360  0.00  0.00    +0.000 NA
ATOM      3  C   UNL     1       0.929  10.283  18.780  0.00  0.00    +0.000 A 
ATOM      4  N   UNL     1       1.565  10.504  17.619  0.00  0.00    +0.000 NA
ATOM      5  O   UNL     1       2.319   9.333  17.437  0.00  0.00    +0.000 OA
ENDROOT
BRANCH   3   6
ATOM      6  C   UNL     1      -0.003  11.166  19.443  0.00  0.00    +0.000 A 
ATOM      7  C   UNL     1       0.485  11.937  20.519  0.00  0.00    +0.000 A 
ATOM      8  C   UNL     1      -0.311  12.883  21.148  0.00  0.00    +0.000 A 
ATOM      9  C   UNL     1      -1.626  13.036  20.745  0.00  0.00    +0.000 A 
ATOM     10  C   UNL     1      -2.157  12.202  19.773  0.00  0.00    +0.000 A 
ATOM     11  C   UNL     1      -1.327  11.328  19.060  0.00  0.00    +0.000 A 
ATOM     12  C   UNL     1      -2.089  10.704  17.926  0.00  0.00    +0.000 C 
ATOM     13  C   UNL     1      -3.346  11.607  17.878  0.00  0.00    +0.000 C 
ATOM     14  C   UNL     1      -3.589  12.012  19.346  0.00  0.00    +0.000 C 
BRANCH  14  15
ATOM     15  N   UNL     1      -4.480  13.178  19.509  0.00  0.00    +0.000 NA
ATOM     16  H   UNL     1      -3.974  14.061  19.502  0.00  0.00    +0.000 HD
BRANCH  15  17
ATOM     17  S   UNL     1      -5.561  13.047  20.835  0.00  0.00    +0.000 S 
ATOM     18  O   UNL     1      -6.669  13.939  20.582  0.00  0.00    +0.000 OA
ATOM     19  O   UNL     1      -5.790  11.653  21.127  0.00  0.00    +0.000 OA
BRANCH  17  20
ATOM     20  C   UNL     1      -4.781  13.637  22.345  0.00  0.00    +0.000 C 
ATOM     21  C   UNL     1      -5.689  13.614  23.550  0.00  0.00    +0.000 C 
ATOM     22  C   UNL     1      -4.547  12.639  23.433  0.00  0.00    +0.000 C 
ENDBRANCH  17  20
ENDBRANCH  15  17
ENDBRANCH  14  15
ENDBRANCH   3   6
BRANCH   1  26
ATOM     23  C   UNL     1       4.111   4.825  18.745  0.00  0.00    +0.000 A 
ATOM     24  C   UNL     1       3.152   5.147  19.722  0.00  0.00    +0.000 A 
ATOM     25  C   UNL     1       2.450   6.358  19.679  0.00  0.00    +0.000 A 
ATOM     26  C   UNL     1       2.710   7.267  18.657  0.00  0.00    +0.000 A 
ATOM     27  C   UNL     1       3.641   6.927  17.662  0.00  0.00    +0.000 A 
ATOM     28  C   UNL     1       4.317   5.703  17.683  0.00  0.00    +0.000 A 
BRANCH  28  29
ATOM     29  C   UNL     1       5.143   5.445  16.549  0.00  0.00    +0.000 C 
ATOM     30  N   UNL     1       5.788   5.171  15.625  0.00  0.00    +0.000 NA
ENDBRANCH  28  29
BRANCH  23  31
ATOM     31  O   UNL     1       4.695   3.598  18.926  0.00  0.00    +0.000 OA
BRANCH  31  33
ATOM     32  C   UNL     1       3.508   1.601  18.331  0.00  0.00    +0.000 C 
ATOM     33  C   UNL     1       3.903   2.532  19.471  0.00  0.00    +0.000 C 
ATOM     34  C   UNL     1       4.755   1.778  20.488  0.00  0.00    +0.000 C 
ENDBRANCH  31  33
ENDBRANCH  23  31
ENDBRANCH   1  26
TORSDOF 8
ENDMDL
MODEL 6
REMARK VINA RESULT:      -8.0      1.401      1.687
REMARK  Name = 
REMARK  10 active torsions:
REMARK  status: ('A' for Active; 'I' for Inactive)
REMARK    1  A    between atoms: C_1  and  C_2
REMARK    2  A    between atoms: C_2  and  C_3
REMARK    3  A    between atoms: C_2  and  O_4
REMARK    4  A    between atoms: O_4  and  C_5
REMARK    5  A    between atoms: C_8  and  C_9
REMARK    6  A    between atoms: C_11  and  C_12
REMARK    7  A    between atoms: C_20  and  N_21
REMARK    8  A    between atoms: N_21  and  S_22
REMARK    9  A    between atoms: S_22  and  C_25
REMARK   10  A    between atoms: C_31  and  C_32
REMARK                            x       y       z     vdW  Elec       q    Type
REMARK                         _______ _______ _______ _____ _____    ______ ____
ROOT
ATOM      1  C   UNL     1       2.017   8.391  18.595  0.00  0.00    +0.000 A 
ATOM      2  N   UNL     1       1.124   8.992  19.328  0.00  0.00    +0.000 NA
ATOM      3  C   UNL     1       0.972  10.191  18.696  0.00  0.00    +0.000 A 
ATOM      4  N   UNL     1       1.741  10.344  17.606  0.00  0.00    +0.000 NA
ATOM      5  O   UNL     1       2.440   9.128  17.532  0.00  0.00    +0.000 OA
ENDROOT
BRANCH   3   6
ATOM      6  C   UNL     1       0.028  11.143  19.234  0.00  0.00    +0.000 A 
ATOM      7  C   UNL     1       0.519  12.098  20.151  0.00  0.00    +0.000 A 
ATOM      8  C   UNL     1      -0.292  13.110  20.641  0.00  0.00    +0.000 A 
ATOM      9  C   UNL     1      -1.622  13.154  20.263  0.00  0.00    +0.000 A 
ATOM     10  C   UNL     1      -2.150  12.155  19.461  0.00  0.00    +0.000 A 
ATOM     11  C   UNL     1      -1.311  11.200  18.875  0.00  0.00    +0.000 A 
ATOM     12  C   UNL     1      -2.082  10.373  17.886  0.00  0.00    +0.000 C 
ATOM     13  C   UNL     1      -3.371  11.217  17.732  0.00  0.00    +0.000 C 
ATOM     14  C   UNL     1      -3.586  11.852  19.120  0.00  0.00    +0.000 C 
BRANCH  14  15
ATOM     15  N   UNL     1      -4.513  13.003  19.118  0.00  0.00    +0.000 NA
ATOM     16  H   UNL     1      -4.030  13.895  19.196  0.00  0.00    +0.000 HD
BRANCH  15  17
ATOM     17  S   UNL     1      -5.810  12.853  20.232  0.00  0.00    +0.000 S 
ATOM     18  O   UNL     1      -5.366  11.990  21.302  0.00  0.00    +0.000 OA
ATOM     19  O   UNL     1      -6.348  14.160  20.516  0.00  0.00    +0.000 OA
BRANCH  17  20
ATOM     20  C   UNL     1      -7.206  12.017  19.464  0.00  0.00    +0.000 C 
ATOM     21  C   UNL     1      -7.116  11.938  17.959  0.00  0.00    +0.000 C 
ATOM     22  C   UNL     1      -6.940  10.702  18.803  0.00  0.00    +0.000 C 
ENDBRANCH  17  20
ENDBRANCH  15  17
ENDBRANCH  14  15
ENDBRANCH   3   6
BRANCH   1  26
ATOM     23  C   UNL     1       3.776   4.543  19.093  0.00  0.00    +0.000 A 
ATOM     24  C   UNL     1       2.933   5.054  20.096  0.00  0.00    +0.000 A 
ATOM     25  C   UNL     1       2.330   6.311  19.967  0.00  0.00    +0.000 A 
ATOM     26  C   UNL     1       2.574   7.077  18.830  0.00  0.00    +0.000 A 
ATOM     27  C   UNL     1       3.386   6.549  17.813  0.00  0.00    +0.000 A 
ATOM     28  C   UNL     1       3.961   5.279  17.924  0.00  0.00    +0.000 A 
BRANCH  28  29
ATOM     29  C   UNL     1       4.664   4.827  16.768  0.00  0.00    +0.000 C 
ATOM     30  N   UNL     1       5.192   4.497  15.790  0.00  0.00    +0.000 NA
ENDBRANCH  28  29
BRANCH  23  31
ATOM     31  O   UNL     1       4.273   3.296  19.368  0.00  0.00    +0.000 OA
BRANCH  31  33
ATOM     32  C   UNL     1       2.246   2.394  20.280  0.00  0.00    +0.000 C 
ATOM     33  C   UNL     1       3.386   2.170  19.293  0.00  0.00    +0.000 C 
ATOM     34  C   UNL     1       2.837   2.089  17.871  0.00  0.00    +0.000 C 
ENDBRANCH  31  33
ENDBRANCH  23  31
ENDBRANCH   1  26
TORSDOF 8
ENDMDL
MODEL 7
REMARK VINA RESULT:      -8.0      4.045     11.056
REMARK  Name = 
REMARK  10 active torsions:
REMARK  status: ('A' for Active; 'I' for Inactive)
REMARK    1  A    between atoms: C_1  and  C_2
REMARK    2  A    between atoms: C_2  and  C_3
REMARK    3  A    between atoms: C_2  and  O_4
REMARK    4  A    between atoms: O_4  and  C_5
REMARK    5  A    between atoms: C_8  and  C_9
REMARK    6  A    between atoms: C_11  and  C_12
REMARK    7  A    between atoms: C_20  and  N_21
REMARK    8  A    between atoms: N_21  and  S_22
REMARK    9  A    between atoms: S_22  and  C_25
REMARK   10  A    between atoms: C_31  and  C_32
REMARK                            x       y       z     vdW  Elec       q    Type
REMARK                         _______ _______ _______ _____ _____    ______ ____
ROOT
ATOM      1  C   UNL     1       1.509   9.021  19.201  0.00  0.00    +0.000 A 
ATOM      2  N   UNL     1       1.950   8.176  18.313  0.00  0.00    +0.000 NA
ATOM      3  C   UNL     1       2.271   7.085  19.069  0.00  0.00    +0.000 A 
ATOM      4  N   UNL     1       2.042   7.235  20.383  0.00  0.00    +0.000 NA
ATOM      5  O   UNL     1       1.521   8.536  20.472  0.00  0.00    +0.000 OA
ENDROOT
BRANCH   3   6
ATOM      6  C   UNL     1       2.797   5.915  18.406  0.00  0.00    +0.000 A 
ATOM      7  C   UNL     1       1.908   4.844  18.173  0.00  0.00    +0.000 A 
ATOM      8  C   UNL     1       2.301   3.723  17.456  0.00  0.00    +0.000 A 
ATOM      9  C   UNL     1       3.605   3.632  17.004  0.00  0.00    +0.000 A 
ATOM     10  C   UNL     1       4.523   4.618  17.329  0.00  0.00    +0.000 A 
ATOM     11  C   UNL     1       4.104   5.799  17.952  0.00  0.00    +0.000 A 
ATOM     12  C   UNL     1       5.233   6.790  17.994  0.00  0.00    +0.000 C 
ATOM     13  C   UNL     1       6.231   6.147  17.000  0.00  0.00    +0.000 C 
ATOM     14  C   UNL     1       6.021   4.628  17.167  0.00  0.00    +0.000 C 
BRANCH  14  15
ATOM     15  N   UNL     1       6.564   3.820  16.057  0.00  0.00    +0.000 NA
ATOM     16  H   UNL     1       7.482   3.433  16.266  0.00  0.00    +0.000 HD
BRANCH  15  17
ATOM     17  S   UNL     1       6.510   4.607  14.533  0.00  0.00    +0.000 S 
ATOM     18  O   UNL     1       5.192   5.180  14.386  0.00  0.00    +0.000 OA
ATOM     19  O   UNL     1       7.690   5.422  14.375  0.00  0.00    +0.000 OA
BRANCH  17  20
ATOM     20  C   UNL     1       6.686   3.410  13.200  0.00  0.00    +0.000 C 
ATOM     21  C   UNL     1       5.551   3.435  12.206  0.00  0.00    +0.000 C 
ATOM     22  C   UNL     1       6.916   3.944  11.823  0.00  0.00    +0.000 C 
ENDBRANCH  17  20
ENDBRANCH  15  17
ENDBRANCH  14  15
ENDBRANCH   3   6
BRANCH   1  26
ATOM     23  C   UNL     1      -0.050  12.926  18.516  0.00  0.00    +0.000 A 
ATOM     24  C   UNL     1       1.325  12.689  18.344  0.00  0.00    +0.000 A 
ATOM     25  C   UNL     1       1.875  11.419  18.552  0.00  0.00    +0.000 A 
ATOM     26  C   UNL     1       1.051  10.368  18.945  0.00  0.00    +0.000 A 
ATOM     27  C   UNL     1      -0.329  10.598  19.081  0.00  0.00    +0.000 A 
ATOM     28  C   UNL     1      -0.886  11.857  18.839  0.00  0.00    +0.000 A 
BRANCH  28  29
ATOM     29  C   UNL     1      -2.310  11.915  18.901  0.00  0.00    +0.000 C 
ATOM     30  N   UNL     1      -3.466  11.994  18.890  0.00  0.00    +0.000 NA
ENDBRANCH  28  29
BRANCH  23  31
ATOM     31  O   UNL     1      -0.427  14.218  18.260  0.00  0.00    +0.000 OA
BRANCH  31  33
ATOM     32  C   UNL     1      -0.294  16.603  18.476  0.00  0.00    +0.000 C 
ATOM     33  C   UNL     1       0.084  15.264  19.099  0.00  0.00    +0.000 C 
ATOM     34  C   UNL     1      -0.560  15.129  20.476  0.00  0.00    +0.000 C 
ENDBRANCH  31  33
ENDBRANCH  23  31
ENDBRANCH   1  26
TORSDOF 8
ENDMDL
MODEL 8
REMARK VINA RESULT:      -8.0      1.368      1.505
REMARK  Name = 
REMARK  10 active torsions:
REMARK  status: ('A' for Active; 'I' for Inactive)
REMARK    1  A    between atoms: C_1  and  C_2
REMARK    2  A    between atoms: C_2  and  C_3
REMARK    3  A    between atoms: C_2  and  O_4
REMARK    4  A    between atoms: O_4  and  C_5
REMARK    5  A    between atoms: C_8  and  C_9
REMARK    6  A    between atoms: C_11  and  C_12
REMARK    7  A    between atoms: C_20  and  N_21
REMARK    8  A    between atoms: N_21  and  S_22
REMARK    9  A    between atoms: S_22  and  C_25
REMARK   10  A    between atoms: C_31  and  C_32
REMARK                            x       y       z     vdW  Elec       q    Type
REMARK                         _______ _______ _______ _____ _____    ______ ____
ROOT
ATOM      1  C   UNL     1       2.092   8.329  18.419  0.00  0.00    +0.000 A 
ATOM      2  N   UNL     1       0.999   8.772  18.971  0.00  0.00    +0.000 NA
ATOM      3  C   UNL     1       0.869  10.016  18.426  0.00  0.00    +0.000 A 
ATOM      4  N   UNL     1       1.843  10.348  17.565  0.00  0.00    +0.000 NA
ATOM      5  O   UNL     1       2.664   9.209  17.552  0.00  0.00    +0.000 OA
ENDROOT
BRANCH   3   6
ATOM      6  C   UNL     1      -0.266  10.824  18.809  0.00  0.00    +0.000 A 
ATOM      7  C   UNL     1      -0.086  11.738  19.869  0.00  0.00    +0.000 A 
ATOM      8  C   UNL     1      -1.089  12.623  20.237  0.00  0.00    +0.000 A 
ATOM      9  C   UNL     1      -2.308  12.572  19.584  0.00  0.00    +0.000 A 
ATOM     10  C   UNL     1      -2.543  11.600  18.625  0.00  0.00    +0.000 A 
ATOM     11  C   UNL     1      -1.499  10.784  18.173  0.00  0.00    +0.000 A 
ATOM     12  C   UNL     1      -1.951   9.975  16.990  0.00  0.00    +0.000 C 
ATOM     13  C   UNL     1      -3.266  10.703  16.616  0.00  0.00    +0.000 C 
ATOM     14  C   UNL     1      -3.834  11.193  17.963  0.00  0.00    +0.000 C 
BRANCH  14  15
ATOM     15  N   UNL     1      -4.862  12.246  17.835  0.00  0.00    +0.000 NA
ATOM     16  H   UNL     1      -4.487  13.181  17.981  0.00  0.00    +0.000 HD
BRANCH  15  17
ATOM     17  S   UNL     1      -6.278  11.950  18.758  0.00  0.00    +0.000 S 
ATOM     18  O   UNL     1      -6.846  10.704  18.296  0.00  0.00    +0.000 OA
ATOM     19  O   UNL     1      -5.988  12.154  20.156  0.00  0.00    +0.000 OA
BRANCH  17  20
ATOM     20  C   UNL     1      -7.518  13.214  18.431  0.00  0.00    +0.000 C 
ATOM     21  C   UNL     1      -6.973  14.621  18.446  0.00  0.00    +0.000 C 
ATOM     22  C   UNL     1      -7.399  13.978  17.152  0.00  0.00    +0.000 C 
ENDBRANCH  17  20
ENDBRANCH  15  17
ENDBRANCH  14  15
ENDBRANCH   3   6
BRANCH   1  26
ATOM     23  C   UNL     1       4.046   4.580  18.944  0.00  0.00    +0.000 A 
ATOM     24  C   UNL     1       3.190   5.061  19.950  0.00  0.00    +0.000 A 
ATOM     25  C   UNL     1       2.524   6.285  19.813  0.00  0.00    +0.000 A 
ATOM     26  C   UNL     1       2.716   7.047  18.664  0.00  0.00    +0.000 A 
ATOM     27  C   UNL     1       3.542   6.547  17.644  0.00  0.00    +0.000 A 
ATOM     28  C   UNL     1       4.180   5.308  17.763  0.00  0.00    +0.000 A 
BRANCH  28  29
ATOM     29  C   UNL     1       4.891   4.876  16.605  0.00  0.00    +0.000 C 
ATOM     30  N   UNL     1       5.490   4.590  15.654  0.00  0.00    +0.000 NA
ENDBRANCH  28  29
BRANCH  23  31
ATOM     31  O   UNL     1       4.607   3.363  19.229  0.00  0.00    +0.000 OA
BRANCH  31  33
ATOM     32  C   UNL     1       2.728   2.347  20.321  0.00  0.00    +0.000 C 
ATOM     33  C   UNL     1       3.768   2.198  19.216  0.00  0.00    +0.000 C 
ATOM     34  C   UNL     1       3.077   2.122  17.857  0.00  0.00    +0.000 C 
ENDBRANCH  31  33
ENDBRANCH  23  31
ENDBRANCH   1  26
TORSDOF 8
ENDMDL
MODEL 9
REMARK VINA RESULT:      -8.0      2.626      3.399
REMARK  Name = 
REMARK  10 active torsions:
REMARK  status: ('A' for Active; 'I' for Inactive)
REMARK    1  A    between atoms: C_1  and  C_2
REMARK    2  A    between atoms: C_2  and  C_3
REMARK    3  A    between atoms: C_2  and  O_4
REMARK    4  A    between atoms: O_4  and  C_5
REMARK    5  A    between atoms: C_8  and  C_9
REMARK    6  A    between atoms: C_11  and  C_12
REMARK    7  A    between atoms: C_20  and  N_21
REMARK    8  A    between atoms: N_21  and  S_22
REMARK    9  A    between atoms: S_22  and  C_25
REMARK   10  A    between atoms: C_31  and  C_32
REMARK                            x       y       z     vdW  Elec       q    Type
REMARK                         _______ _______ _______ _____ _____    ______ ____
ROOT
ATOM      1  C   UNL     1       1.953   8.502  18.478  0.00  0.00    +0.000 A 
ATOM      2  N   UNL     1       1.409   8.572  19.659  0.00  0.00    +0.000 NA
ATOM      3  C   UNL     1       0.752   9.768  19.617  0.00  0.00    +0.000 A 
ATOM      4  N   UNL     1       0.876  10.428  18.455  0.00  0.00    +0.000 NA
ATOM      5  O   UNL     1       1.679   9.572  17.683  0.00  0.00    +0.000 OA
ENDROOT
BRANCH   3   6
ATOM      6  C   UNL     1       0.006  10.189  20.781  0.00  0.00    +0.000 A 
ATOM      7  C   UNL     1       0.271   9.525  21.998  0.00  0.00    +0.000 A 
ATOM      8  C   UNL     1      -0.325   9.929  23.184  0.00  0.00    +0.000 A 
ATOM      9  C   UNL     1      -1.234  10.970  23.164  0.00  0.00    +0.000 A 
ATOM     10  C   UNL     1      -1.598  11.553  21.960  0.00  0.00    +0.000 A 
ATOM     11  C   UNL     1      -0.917  11.225  20.781  0.00  0.00    +0.000 A 
ATOM     12  C   UNL     1      -1.341  12.142  19.668  0.00  0.00    +0.000 C 
ATOM     13  C   UNL     1      -2.079  13.249  20.459  0.00  0.00    +0.000 C 
ATOM     14  C   UNL     1      -2.718  12.512  21.654  0.00  0.00    +0.000 C 
BRANCH  14  15
ATOM     15  N   UNL     1      -3.135  13.402  22.757  0.00  0.00    +0.000 NA
ATOM     16  H   UNL     1      -2.782  13.097  23.661  0.00  0.00    +0.000 HD
BRANCH  15  17
ATOM     17  S   UNL     1      -4.817  13.738  22.781  0.00  0.00    +0.000 S 
ATOM     18  O   UNL     1      -5.323  13.332  24.072  0.00  0.00    +0.000 OA
ATOM     19  O   UNL     1      -5.044  15.075  22.288  0.00  0.00    +0.000 OA
BRANCH  17  20
ATOM     20  C   UNL     1      -5.678  12.726  21.567  0.00  0.00    +0.000 C 
ATOM     21  C   UNL     1      -7.150  13.037  21.447  0.00  0.00    +0.000 C 
ATOM     22  C   UNL     1      -6.195  13.411  20.343  0.00  0.00    +0.000 C 
ENDBRANCH  17  20
ENDBRANCH  15  17
ENDBRANCH  14  15
ENDBRANCH   3   6
BRANCH   1  26
ATOM     23  C   UNL     1       4.258   5.213  17.058  0.00  0.00    +0.000 A 
ATOM     24  C   UNL     1       4.815   6.504  17.048  0.00  0.00    +0.000 A 
ATOM     25  C   UNL     1       4.093   7.610  17.513  0.00  0.00    +0.000 A 
ATOM     26  C   UNL     1       2.796   7.434  17.986  0.00  0.00    +0.000 A 
ATOM     27  C   UNL     1       2.255   6.138  18.030  0.00  0.00    +0.000 A 
ATOM     28  C   UNL     1       2.987   5.027  17.600  0.00  0.00    +0.000 A 
BRANCH  28  29
ATOM     29  C   UNL     1       2.357   3.765  17.811  0.00  0.00    +0.000 C 
ATOM     30  N   UNL     1       1.784   2.771  17.981  0.00  0.00    +0.000 NA
ENDBRANCH  28  29
BRANCH  23  31
ATOM     31  O   UNL     1       5.100   4.242  16.583  0.00  0.00    +0.000 OA
BRANCH  31  33
ATOM     32  C   UNL     1       7.494   4.347  16.686  0.00  0.00    +0.000 C 
ATOM     33  C   UNL     1       6.261   4.641  15.839  0.00  0.00    +0.000 C 
ATOM     34  C   UNL     1       6.307   3.824  14.551  0.00  0.00    +0.000 C 
ENDBRANCH  31  33
ENDBRANCH  23  31
ENDBRANCH   1  26
TORSDOF 8
ENDMDL
