MODEL 1
REMARK VINA RESULT:      -8.4      0.000      0.000
REMARK  Name = 
REMARK  6 active torsions:
REMARK  status: ('A' for Active; 'I' for Inactive)
REMARK    1  A    between atoms: C_2  and  C_27
REMARK    2  A    between atoms: N_3  and  C_4
REMARK    3  A    between atoms: C_6  and  C_7
REMARK    4  A    between atoms: N_9  and  C_10
REMARK    5  A    between atoms: N_16  and  C_17
REMARK    6  A    between atoms: C_20  and  C_21
REMARK                            x       y       z     vdW  Elec       q    Type
REMARK                         _______ _______ _______ _____ _____    ______ ____
ROOT
ATOM      1  C   UNL     1       1.103  11.653  18.913  0.00  0.00    +0.000 A 
ATOM      2  C   UNL     1       1.826  10.650  18.301  0.00  0.00    +0.000 A 
ATOM      3  C   UNL     1       1.391   9.446  18.880  0.00  0.00    +0.000 A 
ATOM      4  N   UNL     1       0.548   9.663  19.888  0.00  0.00    +0.000 NA
ATOM      5  N   UNL     1       0.290  10.996  19.852  0.00  0.00    +0.000 N 
ENDROOT
BRANCH   5   6
ATOM      6  C   UNL     1      -0.754  11.510  20.656  0.00  0.00    +0.000 A 
ATOM      7  C   UNL     1      -0.720  11.302  22.042  0.00  0.00    +0.000 A 
ATOM      8  C   UNL     1      -1.750  11.797  22.850  0.00  0.00    +0.000 A 
ATOM      9  C   UNL     1      -2.854  12.465  22.300  0.00  0.00    +0.000 A 
ATOM     10  C   UNL     1      -2.897  12.601  20.903  0.00  0.00    +0.000 A 
ATOM     11  C   UNL     1      -1.854  12.150  20.097  0.00  0.00    +0.000 A 
ATOM     12  F   UNL     1      -1.984  12.286  18.771  0.00  0.00    +0.000 F 
BRANCH   9  13
ATOM     13  C   UNL     1      -3.977  12.978  23.168  0.00  0.00    +0.000 C 
ATOM     14  C   UNL     1      -4.108  12.523  24.603  0.00  0.00    +0.000 C 
ATOM     15  C   UNL     1      -3.657  13.920  24.307  0.00  0.00    +0.000 C 
ENDBRANCH   9  13
ENDBRANCH   5   6
BRANCH   1  18
ATOM     16  O   UNL     1       2.772  13.493  20.293  0.00  0.00    +0.000 OA
ATOM     17  C   UNL     1       2.085  13.882  19.362  0.00  0.00    +0.000 C 
ATOM     18  N   UNL     1       1.193  13.026  18.644  0.00  0.00    +0.000 N 
ATOM     19  H   UNL     1       0.707  13.406  17.832  0.00  0.00    +0.000 HD
BRANCH  17  20
ATOM     20  C   UNL     1       2.199  15.190  18.782  0.00  0.00    +0.000 A 
ATOM     21  C   UNL     1       3.418  15.792  18.439  0.00  0.00    +0.000 A 
ATOM     22  N   UNL     1       3.272  16.972  17.842  0.00  0.00    +0.000 NA
ATOM     23  N   UNL     1       1.938  17.159  17.788  0.00  0.00    +0.000 N 
ATOM     24  C   UNL     1       1.261  18.198  17.171  0.00  0.00    +0.000 A 
ATOM     25  C   UNL     1      -0.080  18.261  17.233  0.00  0.00    +0.000 A 
ATOM     26  C   UNL     1      -0.720  17.196  18.053  0.00  0.00    +0.000 A 
ATOM     27  N   UNL     1      -0.127  16.152  18.578  0.00  0.00    +0.000 NA
ATOM     28  C   UNL     1       1.240  16.114  18.421  0.00  0.00    +0.000 A 
ENDBRANCH  17  20
ENDBRANCH   1  18
BRANCH   3  29
ATOM     29  C   UNL     1       1.773   8.040  18.426  0.00  0.00    +0.000 C 
ATOM     30  C   UNL     1       3.189   7.883  17.831  0.00  0.00    +0.000 C 
ATOM     31  N   UNL     1       3.365   6.603  18.569  0.00  0.00    +0.000 NA
ATOM     32  C   UNL     1       2.326   7.103  19.525  0.00  0.00    +0.000 C 
BRANCH  31  33
ATOM     33  C   UNL     1       2.913   5.400  17.839  0.00  0.00    +0.000 C 
ATOM     34  C   UNL     1       4.071   4.721  17.059  0.00  0.00    +0.000 C 
ATOM     35  C   UNL     1       3.601   3.377  17.629  0.00  0.00    +0.000 C 
ATOM     36  C   UNL     1       2.985   4.174  18.802  0.00  0.00    +0.000 C 
ENDBRANCH  31  33
ENDBRANCH   3  29
TORSDOF 6
ENDMDL
MODEL 2
REMARK VINA RESULT:      -8.2      0.841      1.169
REMARK  Name = 
REMARK  6 active torsions:
REMARK  status: ('A' for Active; 'I' for Inactive)
REMARK    1  A    between atoms: C_2  and  C_27
REMARK    2  A    between atoms: N_3  and  C_4
REMARK    3  A    between atoms: C_6  and  C_7
REMARK    4  A    between atoms: N_9  and  C_10
REMARK    5  A    between atoms: N_16  and  C_17
REMARK    6  A    between atoms: C_20  and  C_21
REMARK                            x       y       z     vdW  Elec       q    Type
REMARK                         _______ _______ _______ _____ _____    ______ ____
ROOT
ATOM      1  C   UNL     1       1.224  11.497  18.694  0.00  0.00    +0.000 A 
ATOM      2  C   UNL     1       1.968  10.503  18.089  0.00  0.00    +0.000 A 
ATOM      3  C   UNL     1       1.559   9.295  18.678  0.00  0.00    +0.000 A 
ATOM      4  N   UNL     1       0.712   9.503  19.684  0.00  0.00    +0.000 NA
ATOM      5  N   UNL     1       0.426  10.829  19.639  0.00  0.00    +0.000 N 
ENDROOT
BRANCH   5   6
ATOM      6  C   UNL     1      -0.628  11.328  20.440  0.00  0.00    +0.000 A 
ATOM      7  C   UNL     1      -1.654  12.071  19.840  0.00  0.00    +0.000 A 
ATOM      8  C   UNL     1      -2.699  12.578  20.620  0.00  0.00    +0.000 A 
ATOM      9  C   UNL     1      -2.726  12.400  22.012  0.00  0.00    +0.000 A 
ATOM     10  C   UNL     1      -1.653  11.709  22.595  0.00  0.00    +0.000 A 
ATOM     11  C   UNL     1      -0.632  11.164  21.820  0.00  0.00    +0.000 A 
ATOM     12  F   UNL     1       0.375  10.548  22.453  0.00  0.00    +0.000 F 
BRANCH   9  13
ATOM     13  C   UNL     1      -3.841  12.967  22.857  0.00  0.00    +0.000 C 
ATOM     14  C   UNL     1      -3.925  12.648  24.331  0.00  0.00    +0.000 C 
ATOM     15  C   UNL     1      -3.519  14.021  23.892  0.00  0.00    +0.000 C 
ENDBRANCH   9  13
ENDBRANCH   5   6
BRANCH   1  18
ATOM     16  O   UNL     1       2.439  13.459  20.352  0.00  0.00    +0.000 OA
ATOM     17  C   UNL     1       1.947  13.790  19.286  0.00  0.00    +0.000 C 
ATOM     18  N   UNL     1       1.286  12.869  18.415  0.00  0.00    +0.000 N 
ATOM     19  H   UNL     1       0.965  13.206  17.508  0.00  0.00    +0.000 HD
BRANCH  17  20
ATOM     20  C   UNL     1       2.102  15.096  18.709  0.00  0.00    +0.000 A 
ATOM     21  C   UNL     1       3.335  15.639  18.320  0.00  0.00    +0.000 A 
ATOM     22  N   UNL     1       3.225  16.829  17.737  0.00  0.00    +0.000 NA
ATOM     23  N   UNL     1       1.901  17.084  17.739  0.00  0.00    +0.000 N 
ATOM     24  C   UNL     1       1.252  18.160  17.157  0.00  0.00    +0.000 A 
ATOM     25  C   UNL     1      -0.080  18.290  17.274  0.00  0.00    +0.000 A 
ATOM     26  C   UNL     1      -0.739  17.252  18.114  0.00  0.00    +0.000 A 
ATOM     27  N   UNL     1      -0.178  16.175  18.607  0.00  0.00    +0.000 NA
ATOM     28  C   UNL     1       1.178  16.070  18.394  0.00  0.00    +0.000 A 
ENDBRANCH  17  20
ENDBRANCH   1  18
BRANCH   3  29
ATOM     29  C   UNL     1       1.969   7.895  18.234  0.00  0.00    +0.000 C 
ATOM     30  C   UNL     1       3.421   7.743  17.731  0.00  0.00    +0.000 C 
ATOM     31  N   UNL     1       3.549   6.455  18.465  0.00  0.00    +0.000 NA
ATOM     32  C   UNL     1       2.449   6.945  19.356  0.00  0.00    +0.000 C 
BRANCH  31  33
ATOM     33  C   UNL     1       3.146   5.260  17.693  0.00  0.00    +0.000 C 
ATOM     34  C   UNL     1       4.334   4.643  16.909  0.00  0.00    +0.000 C 
ATOM     35  C   UNL     1       3.902   3.268  17.432  0.00  0.00    +0.000 C 
ATOM     36  C   UNL     1       3.246   4.009  18.620  0.00  0.00    +0.000 C 
ENDBRANCH  31  33
ENDBRANCH   3  29
TORSDOF 6
ENDMDL
MODEL 3
REMARK VINA RESULT:      -7.8      1.054      1.467
REMARK  Name = 
REMARK  6 active torsions:
REMARK  status: ('A' for Active; 'I' for Inactive)
REMARK    1  A    between atoms: C_2  and  C_27
REMARK    2  A    between atoms: N_3  and  C_4
REMARK    3  A    between atoms: C_6  and  C_7
REMARK    4  A    between atoms: N_9  and  C_10
REMARK    5  A    between atoms: N_16  and  C_17
REMARK    6  A    between atoms: C_20  and  C_21
REMARK                            x       y       z     vdW  Elec       q    Type
REMARK                         _______ _______ _______ _____ _____    ______ ____
ROOT
ATOM      1  C   UNL     1       0.806  11.929  18.908  0.00  0.00    +0.000 A 
ATOM      2  C   UNL     1       1.595  10.910  18.413  0.00  0.00    +0.000 A 
ATOM      3  C   UNL     1       1.072   9.719  18.942  0.00  0.00    +0.000 A 
ATOM      4  N   UNL     1       0.102   9.957  19.822  0.00  0.00    +0.000 NA
ATOM      5  N   UNL     1      -0.134  11.291  19.735  0.00  0.00    +0.000 N 
ENDROOT
BRANCH   5   6
ATOM      6  C   UNL     1      -1.272  11.826  20.383  0.00  0.00    +0.000 A 
ATOM      7  C   UNL     1      -2.343  12.298  19.612  0.00  0.00    +0.000 A 
ATOM      8  C   UNL     1      -3.473  12.838  20.237  0.00  0.00    +0.000 A 
ATOM      9  C   UNL     1      -3.546  12.963  21.633  0.00  0.00    +0.000 A 
ATOM     10  C   UNL     1      -2.433  12.544  22.378  0.00  0.00    +0.000 A 
ATOM     11  C   UNL     1      -1.324  11.966  21.765  0.00  0.00    +0.000 A 
ATOM     12  F   UNL     1      -0.287  11.622  22.541  0.00  0.00    +0.000 F 
BRANCH   9  13
ATOM     13  C   UNL     1      -4.754  13.567  22.307  0.00  0.00    +0.000 C 
ATOM     14  C   UNL     1      -6.007  13.862  21.517  0.00  0.00    +0.000 C 
ATOM     15  C   UNL     1      -5.995  12.723  22.490  0.00  0.00    +0.000 C 
ENDBRANCH   9  13
ENDBRANCH   5   6
BRANCH   1  18
ATOM     16  O   UNL     1       2.783  13.633  20.034  0.00  0.00    +0.000 OA
ATOM     17  C   UNL     1       1.992  14.081  19.219  0.00  0.00    +0.000 C 
ATOM     18  N   UNL     1       0.947  13.297  18.638  0.00  0.00    +0.000 N 
ATOM     19  H   UNL     1       0.372  13.721  17.910  0.00  0.00    +0.000 HD
BRANCH  17  20
ATOM     20  C   UNL     1       2.105  15.388  18.637  0.00  0.00    +0.000 A 
ATOM     21  C   UNL     1       3.322  15.979  18.267  0.00  0.00    +0.000 A 
ATOM     22  N   UNL     1       3.174  17.160  17.673  0.00  0.00    +0.000 NA
ATOM     23  N   UNL     1       1.841  17.360  17.649  0.00  0.00    +0.000 N 
ATOM     24  C   UNL     1       1.160  18.405  17.048  0.00  0.00    +0.000 A 
ATOM     25  C   UNL     1      -0.178  18.481  17.139  0.00  0.00    +0.000 A 
ATOM     26  C   UNL     1      -0.810  17.422  17.974  0.00  0.00    +0.000 A 
ATOM     27  N   UNL     1      -0.215  16.373  18.484  0.00  0.00    +0.000 NA
ATOM     28  C   UNL     1       1.147  16.321  18.298  0.00  0.00    +0.000 A 
ENDBRANCH  17  20
ENDBRANCH   1  18
BRANCH   3  29
ATOM     29  C   UNL     1       1.497   8.303  18.561  0.00  0.00    +0.000 C 
ATOM     30  C   UNL     1       2.878   8.171  17.884  0.00  0.00    +0.000 C 
ATOM     31  N   UNL     1       3.168   6.957  18.695  0.00  0.00    +0.000 NA
ATOM     32  C   UNL     1       2.167   7.475  19.682  0.00  0.00    +0.000 C 
BRANCH  31  33
ATOM     33  C   UNL     1       2.734   5.685  18.082  0.00  0.00    +0.000 C 
ATOM     34  C   UNL     1       3.864   5.021  17.251  0.00  0.00    +0.000 C 
ATOM     35  C   UNL     1       3.526   3.694  17.940  0.00  0.00    +0.000 C 
ATOM     36  C   UNL     1       2.959   4.532  19.110  0.00  0.00    +0.000 C 
ENDBRANCH  31  33
ENDBRANCH   3  29
TORSDOF 6
ENDMDL
MODEL 4
REMARK VINA RESULT:      -7.7      1.354      1.778
REMARK  Name = 
REMARK  6 active torsions:
REMARK  status: ('A' for Active; 'I' for Inactive)
REMARK    1  A    between atoms: C_2  and  C_27
REMARK    2  A    between atoms: N_3  and  C_4
REMARK    3  A    between atoms: C_6  and  C_7
REMARK    4  A    between atoms: N_9  and  C_10
REMARK    5  A    between atoms: N_16  and  C_17
REMARK    6  A    between atoms: C_20  and  C_21
REMARK                            x       y       z     vdW  Elec       q    Type
REMARK                         _______ _______ _______ _____ _____    ______ ____
ROOT
ATOM      1  C   UNL     1       0.762  11.784  18.445  0.00  0.00    +0.000 A 
ATOM      2  C   UNL     1       1.696  10.802  18.180  0.00  0.00    +0.000 A 
ATOM      3  C   UNL     1       1.079   9.581  18.496  0.00  0.00    +0.000 A 
ATOM      4  N   UNL     1      -0.117   9.764  19.052  0.00  0.00    +0.000 NA
ATOM      5  N   UNL     1      -0.360  11.095  18.936  0.00  0.00    +0.000 N 
ENDROOT
BRANCH   5   6
ATOM      6  C   UNL     1      -1.657  11.579  19.229  0.00  0.00    +0.000 A 
ATOM      7  C   UNL     1      -1.882  12.252  20.438  0.00  0.00    +0.000 A 
ATOM      8  C   UNL     1      -3.161  12.729  20.746  0.00  0.00    +0.000 A 
ATOM      9  C   UNL     1      -4.250  12.510  19.888  0.00  0.00    +0.000 A 
ATOM     10  C   UNL     1      -4.011  11.776  18.715  0.00  0.00    +0.000 A 
ATOM     11  C   UNL     1      -2.731  11.337  18.381  0.00  0.00    +0.000 A 
ATOM     12  F   UNL     1      -2.590  10.613  17.263  0.00  0.00    +0.000 F 
BRANCH   9  13
ATOM     13  C   UNL     1      -5.634  13.004  20.230  0.00  0.00    +0.000 C 
ATOM     14  C   UNL     1      -6.856  12.322  19.660  0.00  0.00    +0.000 C 
ATOM     15  C   UNL     1      -6.523  12.155  21.111  0.00  0.00    +0.000 C 
ENDBRANCH   9  13
ENDBRANCH   5   6
BRANCH   1  18
ATOM     16  O   UNL     1       2.204  13.503  20.190  0.00  0.00    +0.000 OA
ATOM     17  C   UNL     1       1.702  13.956  19.173  0.00  0.00    +0.000 C 
ATOM     18  N   UNL     1       0.931  13.163  18.267  0.00  0.00    +0.000 N 
ATOM     19  H   UNL     1       0.607  13.596  17.402  0.00  0.00    +0.000 HD
BRANCH  17  20
ATOM     20  C   UNL     1       1.949  15.285  18.690  0.00  0.00    +0.000 A 
ATOM     21  C   UNL     1       3.229  15.815  18.472  0.00  0.00    +0.000 A 
ATOM     22  N   UNL     1       3.210  17.036  17.945  0.00  0.00    +0.000 NA
ATOM     23  N   UNL     1       1.899  17.325  17.812  0.00  0.00    +0.000 N 
ATOM     24  C   UNL     1       1.342  18.446  17.219  0.00  0.00    +0.000 A 
ATOM     25  C   UNL     1       0.009  18.604  17.193  0.00  0.00    +0.000 A 
ATOM     26  C   UNL     1      -0.763  17.542  17.896  0.00  0.00    +0.000 A 
ATOM     27  N   UNL     1      -0.283  16.427  18.390  0.00  0.00    +0.000 NA
ATOM     28  C   UNL     1       1.086  16.298  18.326  0.00  0.00    +0.000 A 
ENDBRANCH  17  20
ENDBRANCH   1  18
BRANCH   3  29
ATOM     29  C   UNL     1       1.644   8.190  18.220  0.00  0.00    +0.000 C 
ATOM     30  C   UNL     1       3.106   8.141  17.726  0.00  0.00    +0.000 C 
ATOM     31  N   UNL     1       3.374   6.973  18.608  0.00  0.00    +0.000 NA
ATOM     32  C   UNL     1       2.222   7.442  19.444  0.00  0.00    +0.000 C 
BRANCH  31  33
ATOM     33  C   UNL     1       3.109   5.657  17.991  0.00  0.00    +0.000 C 
ATOM     34  C   UNL     1       4.280   5.189  17.087  0.00  0.00    +0.000 C 
ATOM     35  C   UNL     1       4.191   3.817  17.763  0.00  0.00    +0.000 C 
ATOM     36  C   UNL     1       3.566   4.539  18.979  0.00  0.00    +0.000 C 
ENDBRANCH  31  33
ENDBRANCH   3  29
TORSDOF 6
ENDMDL
MODEL 5
REMARK VINA RESULT:      -7.5      1.904      2.451
REMARK  Name = 
REMARK  6 active torsions:
REMARK  status: ('A' for Active; 'I' for Inactive)
REMARK    1  A    between atoms: C_2  and  C_27
REMARK    2  A    between atoms: N_3  and  C_4
REMARK    3  A    between atoms: C_6  and  C_7
REMARK    4  A    between atoms: N_9  and  C_10
REMARK    5  A    between atoms: N_16  and  C_17
REMARK    6  A    between atoms: C_20  and  C_21
REMARK                            x       y       z     vdW  Elec       q    Type
REMARK                         _______ _______ _______ _____ _____    ______ ____
ROOT
ATOM      1  C   UNL     1       1.195  11.581  18.261  0.00  0.00    +0.000 A 
ATOM      2  C   UNL     1       2.270  10.715  18.249  0.00  0.00    +0.000 A 
ATOM      3  C   UNL     1       1.743   9.434  18.481  0.00  0.00    +0.000 A 
ATOM      4  N   UNL     1       0.441   9.483  18.758  0.00  0.00    +0.000 NA
ATOM      5  N   UNL     1       0.079  10.771  18.530  0.00  0.00    +0.000 N 
ENDROOT
BRANCH   5   6
ATOM      6  C   UNL     1      -1.297  11.100  18.515  0.00  0.00    +0.000 A 
ATOM      7  C   UNL     1      -1.809  11.960  19.496  0.00  0.00    +0.000 A 
ATOM      8  C   UNL     1      -3.169  12.288  19.500  0.00  0.00    +0.000 A 
ATOM      9  C   UNL     1      -4.057  11.737  18.563  0.00  0.00    +0.000 A 
ATOM     10  C   UNL     1      -3.531  10.828  17.632  0.00  0.00    +0.000 A 
ATOM     11  C   UNL     1      -2.170  10.531  17.596  0.00  0.00    +0.000 A 
ATOM     12  F   UNL     1      -1.750   9.627  16.700  0.00  0.00    +0.000 F 
BRANCH   9  13
ATOM     13  C   UNL     1      -5.528  12.072  18.580  0.00  0.00    +0.000 C 
ATOM     14  C   UNL     1      -6.564  10.994  18.366  0.00  0.00    +0.000 C 
ATOM     15  C   UNL     1      -6.382  11.587  19.730  0.00  0.00    +0.000 C 
ENDBRANCH   9  13
ENDBRANCH   5   6
BRANCH   1  18
ATOM     16  O   UNL     1       1.454  13.533  20.310  0.00  0.00    +0.000 OA
ATOM     17  C   UNL     1       1.408  13.885  19.143  0.00  0.00    +0.000 C 
ATOM     18  N   UNL     1       1.241  12.967  18.060  0.00  0.00    +0.000 N 
ATOM     19  H   UNL     1       1.286  13.330  17.108  0.00  0.00    +0.000 HD
BRANCH  17  20
ATOM     20  C   UNL     1       1.667  15.229  18.707  0.00  0.00    +0.000 A 
ATOM     21  C   UNL     1       2.951  15.750  18.492  0.00  0.00    +0.000 A 
ATOM     22  N   UNL     1       2.941  16.990  18.012  0.00  0.00    +0.000 NA
ATOM     23  N   UNL     1       1.633  17.301  17.909  0.00  0.00    +0.000 N 
ATOM     24  C   UNL     1       1.084  18.452  17.368  0.00  0.00    +0.000 A 
ATOM     25  C   UNL     1      -0.247  18.629  17.367  0.00  0.00    +0.000 A 
ATOM     26  C   UNL     1      -1.024  17.551  18.039  0.00  0.00    +0.000 A 
ATOM     27  N   UNL     1      -0.553  16.412  18.483  0.00  0.00    +0.000 NA
ATOM     28  C   UNL     1       0.813  16.266  18.395  0.00  0.00    +0.000 A 
ENDBRANCH  17  20
ENDBRANCH   1  18
BRANCH   3  29
ATOM     29  C   UNL     1       2.509   8.118  18.398  0.00  0.00    +0.000 C 
ATOM     30  C   UNL     1       2.416   7.202  19.637  0.00  0.00    +0.000 C 
ATOM     31  N   UNL     1       2.273   6.011  18.757  0.00  0.00    +0.000 NA
ATOM     32  C   UNL     1       1.770   6.950  17.703  0.00  0.00    +0.000 C 
BRANCH  31  33
ATOM     33  C   UNL     1       3.547   5.372  18.367  0.00  0.00    +0.000 C 
ATOM     34  C   UNL     1       3.988   4.282  19.380  0.00  0.00    +0.000 C 
ATOM     35  C   UNL     1       4.270   3.358  18.190  0.00  0.00    +0.000 C 
ATOM     36  C   UNL     1       3.239   4.191  17.394  0.00  0.00    +0.000 C 
ENDBRANCH  31  33
ENDBRANCH   3  29
TORSDOF 6
ENDMDL
MODEL 6
REMARK VINA RESULT:      -7.5      1.738      2.427
REMARK  Name = 
REMARK  6 active torsions:
REMARK  status: ('A' for Active; 'I' for Inactive)
REMARK    1  A    between atoms: C_2  and  C_27
REMARK    2  A    between atoms: N_3  and  C_4
REMARK    3  A    between atoms: C_6  and  C_7
REMARK    4  A    between atoms: N_9  and  C_10
REMARK    5  A    between atoms: N_16  and  C_17
REMARK    6  A    between atoms: C_20  and  C_21
REMARK                            x       y       z     vdW  Elec       q    Type
REMARK                         _______ _______ _______ _____ _____    ______ ____
ROOT
ATOM      1  C   UNL     1       1.141  11.736  18.373  0.00  0.00    +0.000 A 
ATOM      2  C   UNL     1       2.227  10.888  18.285  0.00  0.00    +0.000 A 
ATOM      3  C   UNL     1       1.730   9.593  18.502  0.00  0.00    +0.000 A 
ATOM      4  N   UNL     1       0.442   9.612  18.840  0.00  0.00    +0.000 NA
ATOM      5  N   UNL     1       0.051  10.901  18.669  0.00  0.00    +0.000 N 
ENDROOT
BRANCH   5   6
ATOM      6  C   UNL     1      -1.329  11.208  18.727  0.00  0.00    +0.000 A 
ATOM      7  C   UNL     1      -2.182  10.732  17.721  0.00  0.00    +0.000 A 
ATOM      8  C   UNL     1      -3.547  11.035  17.760  0.00  0.00    +0.000 A 
ATOM      9  C   UNL     1      -4.088  11.850  18.766  0.00  0.00    +0.000 A 
ATOM     10  C   UNL     1      -3.202  12.367  19.723  0.00  0.00    +0.000 A 
ATOM     11  C   UNL     1      -1.849  12.034  19.716  0.00  0.00    +0.000 A 
ATOM     12  F   UNL     1      -1.061  12.596  20.643  0.00  0.00    +0.000 F 
BRANCH   9  13
ATOM     13  C   UNL     1      -5.557  12.196  18.795  0.00  0.00    +0.000 C 
ATOM     14  C   UNL     1      -6.577  11.268  18.179  0.00  0.00    +0.000 C 
ATOM     15  C   UNL     1      -6.488  11.387  19.669  0.00  0.00    +0.000 C 
ENDBRANCH   9  13
ENDBRANCH   5   6
BRANCH   1  18
ATOM     16  O   UNL     1       2.464  13.575  20.090  0.00  0.00    +0.000 OA
ATOM     17  C   UNL     1       1.877  13.986  19.102  0.00  0.00    +0.000 C 
ATOM     18  N   UNL     1       1.157  13.128  18.212  0.00  0.00    +0.000 N 
ATOM     19  H   UNL     1       0.755  13.535  17.369  0.00  0.00    +0.000 HD
BRANCH  17  20
ATOM     20  C   UNL     1       1.962  15.340  18.632  0.00  0.00    +0.000 A 
ATOM     21  C   UNL     1       3.165  15.980  18.303  0.00  0.00    +0.000 A 
ATOM     22  N   UNL     1       2.992  17.205  17.813  0.00  0.00    +0.000 NA
ATOM     23  N   UNL     1       1.655  17.384  17.819  0.00  0.00    +0.000 N 
ATOM     24  C   UNL     1       0.951  18.465  17.316  0.00  0.00    +0.000 A 
ATOM     25  C   UNL     1      -0.387  18.510  17.426  0.00  0.00    +0.000 A 
ATOM     26  C   UNL     1      -0.993  17.373  18.174  0.00  0.00    +0.000 A 
ATOM     27  N   UNL     1      -0.375  16.294  18.587  0.00  0.00    +0.000 NA
ATOM     28  C   UNL     1       0.986  16.282  18.384  0.00  0.00    +0.000 A 
ENDBRANCH  17  20
ENDBRANCH   1  18
BRANCH   3  29
ATOM     29  C   UNL     1       2.511   8.292  18.343  0.00  0.00    +0.000 C 
ATOM     30  C   UNL     1       2.412   7.296  19.519  0.00  0.00    +0.000 C 
ATOM     31  N   UNL     1       2.292   6.164  18.561  0.00  0.00    +0.000 NA
ATOM     32  C   UNL     1       1.793   7.165  17.564  0.00  0.00    +0.000 C 
BRANCH  31  33
ATOM     33  C   UNL     1       3.577   5.564  18.147  0.00  0.00    +0.000 C 
ATOM     34  C   UNL     1       4.228   4.734  19.286  0.00  0.00    +0.000 C 
ATOM     35  C   UNL     1       4.478   3.618  18.265  0.00  0.00    +0.000 C 
ATOM     36  C   UNL     1       3.291   4.194  17.457  0.00  0.00    +0.000 C 
ENDBRANCH  31  33
ENDBRANCH   3  29
TORSDOF 6
ENDMDL
MODEL 7
REMARK VINA RESULT:      -7.5      1.325      1.767
REMARK  Name = 
REMARK  6 active torsions:
REMARK  status: ('A' for Active; 'I' for Inactive)
REMARK    1  A    between atoms: C_2  and  C_27
REMARK    2  A    between atoms: N_3  and  C_4
REMARK    3  A    between atoms: C_6  and  C_7
REMARK    4  A    between atoms: N_9  and  C_10
REMARK    5  A    between atoms: N_16  and  C_17
REMARK    6  A    between atoms: C_20  and  C_21
REMARK                            x       y       z     vdW  Elec       q    Type
REMARK                         _______ _______ _______ _____ _____    ______ ____
ROOT
ATOM      1  C   UNL     1       0.933  11.664  18.387  0.00  0.00    +0.000 A 
ATOM      2  C   UNL     1       1.866  10.691  18.091  0.00  0.00    +0.000 A 
ATOM      3  C   UNL     1       1.261   9.462  18.405  0.00  0.00    +0.000 A 
ATOM      4  N   UNL     1       0.076   9.633  18.988  0.00  0.00    +0.000 NA
ATOM      5  N   UNL     1      -0.176  10.964  18.893  0.00  0.00    +0.000 N 
ENDROOT
BRANCH   5   6
ATOM      6  C   UNL     1      -1.468  11.438  19.218  0.00  0.00    +0.000 A 
ATOM      7  C   UNL     1      -2.525  11.222  18.323  0.00  0.00    +0.000 A 
ATOM      8  C   UNL     1      -3.808  11.692  18.626  0.00  0.00    +0.000 A 
ATOM      9  C   UNL     1      -4.061  12.424  19.796  0.00  0.00    +0.000 A 
ATOM     10  C   UNL     1      -2.972  12.684  20.643  0.00  0.00    +0.000 A 
ATOM     11  C   UNL     1      -1.702  12.181  20.369  0.00  0.00    +0.000 A 
ATOM     12  F   UNL     1      -0.707  12.500  21.208  0.00  0.00    +0.000 F 
BRANCH   9  13
ATOM     13  C   UNL     1      -5.438  12.951  20.113  0.00  0.00    +0.000 C 
ATOM     14  C   UNL     1      -5.729  13.586  21.453  0.00  0.00    +0.000 C 
ATOM     15  C   UNL     1      -5.648  14.444  20.228  0.00  0.00    +0.000 C 
ENDBRANCH   9  13
ENDBRANCH   5   6
BRANCH   1  18
ATOM     16  O   UNL     1       2.419  13.366  20.111  0.00  0.00    +0.000 OA
ATOM     17  C   UNL     1       1.886  13.830  19.116  0.00  0.00    +0.000 C 
ATOM     18  N   UNL     1       1.092  13.046  18.222  0.00  0.00    +0.000 N 
ATOM     19  H   UNL     1       0.741  13.489  17.373  0.00  0.00    +0.000 HD
BRANCH  17  20
ATOM     20  C   UNL     1       2.113  15.166  18.642  0.00  0.00    +0.000 A 
ATOM     21  C   UNL     1       3.385  15.715  18.424  0.00  0.00    +0.000 A 
ATOM     22  N   UNL     1       3.349  16.940  17.907  0.00  0.00    +0.000 NA
ATOM     23  N   UNL     1       2.034  17.213  17.782  0.00  0.00    +0.000 N 
ATOM     24  C   UNL     1       1.460  18.332  17.201  0.00  0.00    +0.000 A 
ATOM     25  C   UNL     1       0.125  18.473  17.182  0.00  0.00    +0.000 A 
ATOM     26  C   UNL     1      -0.630  17.395  17.879  0.00  0.00    +0.000 A 
ATOM     27  N   UNL     1      -0.134  16.283  18.361  0.00  0.00    +0.000 NA
ATOM     28  C   UNL     1       1.236  16.171  18.290  0.00  0.00    +0.000 A 
ENDBRANCH  17  20
ENDBRANCH   1  18
BRANCH   3  29
ATOM     29  C   UNL     1       1.827   8.078  18.101  0.00  0.00    +0.000 C 
ATOM     30  C   UNL     1       3.309   8.033  17.670  0.00  0.00    +0.000 C 
ATOM     31  N   UNL     1       3.528   6.830  18.518  0.00  0.00    +0.000 NA
ATOM     32  C   UNL     1       2.344   7.278  19.320  0.00  0.00    +0.000 C 
BRANCH  31  33
ATOM     33  C   UNL     1       3.280   5.541  17.839  0.00  0.00    +0.000 C 
ATOM     34  C   UNL     1       4.438   5.154  16.880  0.00  0.00    +0.000 C 
ATOM     35  C   UNL     1       4.404   3.746  17.485  0.00  0.00    +0.000 C 
ATOM     36  C   UNL     1       3.794   4.386  18.754  0.00  0.00    +0.000 C 
ENDBRANCH  31  33
ENDBRANCH   3  29
TORSDOF 6
ENDMDL
MODEL 8
REMARK VINA RESULT:      -7.4      2.665      7.850
REMARK  Name = 
REMARK  6 active torsions:
REMARK  status: ('A' for Active; 'I' for Inactive)
REMARK    1  A    between atoms: C_2  and  C_27
REMARK    2  A    between atoms: N_3  and  C_4
REMARK    3  A    between atoms: C_6  and  C_7
REMARK    4  A    between atoms: N_9  and  C_10
REMARK    5  A    between atoms: N_16  and  C_17
REMARK    6  A    between atoms: C_20  and  C_21
REMARK                            x       y       z     vdW  Elec       q    Type
REMARK                         _______ _______ _______ _____ _____    ______ ____
ROOT
ATOM      1  C   UNL     1       0.662  12.403  20.491  0.00  0.00    +0.000 A 
ATOM      2  C   UNL     1      -0.443  13.074  20.976  0.00  0.00    +0.000 A 
ATOM      3  C   UNL     1      -1.524  12.186  20.854  0.00  0.00    +0.000 A 
ATOM      4  N   UNL     1      -1.174  11.072  20.212  0.00  0.00    +0.000 NA
ATOM      5  N   UNL     1       0.174  11.153  20.075  0.00  0.00    +0.000 N 
ENDROOT
BRANCH   5   6
ATOM      6  C   UNL     1       0.883  10.011  19.633  0.00  0.00    +0.000 A 
ATOM      7  C   UNL     1       1.254   9.911  18.285  0.00  0.00    +0.000 A 
ATOM      8  C   UNL     1       1.948   8.784  17.830  0.00  0.00    +0.000 A 
ATOM      9  C   UNL     1       2.248   7.715  18.688  0.00  0.00    +0.000 A 
ATOM     10  C   UNL     1       1.807   7.811  20.018  0.00  0.00    +0.000 A 
ATOM     11  C   UNL     1       1.155   8.949  20.487  0.00  0.00    +0.000 A 
ATOM     12  F   UNL     1       0.735   8.950  21.759  0.00  0.00    +0.000 F 
BRANCH   9  13
ATOM     13  C   UNL     1       2.976   6.489  18.194  0.00  0.00    +0.000 C 
ATOM     14  C   UNL     1       3.209   5.312  19.111  0.00  0.00    +0.000 C 
ATOM     15  C   UNL     1       2.207   5.201  18.003  0.00  0.00    +0.000 C 
ENDBRANCH   9  13
ENDBRANCH   5   6
BRANCH   1  18
ATOM     16  O   UNL     1       1.584  14.391  18.682  0.00  0.00    +0.000 OA
ATOM     17  C   UNL     1       2.351  13.924  19.508  0.00  0.00    +0.000 C 
ATOM     18  N   UNL     1       1.972  12.895  20.426  0.00  0.00    +0.000 N 
ATOM     19  H   UNL     1       2.646  12.608  21.135  0.00  0.00    +0.000 HD
BRANCH  17  20
ATOM     20  C   UNL     1       3.663  14.448  19.761  0.00  0.00    +0.000 A 
ATOM     21  C   UNL     1       4.490  15.002  18.772  0.00  0.00    +0.000 A 
ATOM     22  N   UNL     1       5.627  15.496  19.254  0.00  0.00    +0.000 NA
ATOM     23  N   UNL     1       5.558  15.267  20.581  0.00  0.00    +0.000 N 
ATOM     24  C   UNL     1       6.456  15.680  21.552  0.00  0.00    +0.000 A 
ATOM     25  C   UNL     1       6.263  15.343  22.838  0.00  0.00    +0.000 A 
ATOM     26  C   UNL     1       5.086  14.464  23.085  0.00  0.00    +0.000 A 
ATOM     27  N   UNL     1       4.169  14.125  22.214  0.00  0.00    +0.000 NA
ATOM     28  C   UNL     1       4.393  14.559  20.927  0.00  0.00    +0.000 A 
ENDBRANCH  17  20
ENDBRANCH   1  18
BRANCH   3  29
ATOM     29  C   UNL     1      -2.931  12.401  21.404  0.00  0.00    +0.000 C 
ATOM     30  C   UNL     1      -3.038  12.582  22.934  0.00  0.00    +0.000 C 
ATOM     31  N   UNL     1      -4.035  13.670  22.744  0.00  0.00    +0.000 NA
ATOM     32  C   UNL     1      -3.450  13.858  21.377  0.00  0.00    +0.000 C 
BRANCH  31  33
ATOM     33  C   UNL     1      -5.441  13.220  22.688  0.00  0.00    +0.000 C 
ATOM     34  C   UNL     1      -5.951  12.724  24.067  0.00  0.00    +0.000 C 
ATOM     35  C   UNL     1      -7.215  13.562  23.846  0.00  0.00    +0.000 C 
ATOM     36  C   UNL     1      -6.371  14.453  22.906  0.00  0.00    +0.000 C 
ENDBRANCH  31  33
ENDBRANCH   3  29
TORSDOF 6
ENDMDL
MODEL 9
REMARK VINA RESULT:      -7.4      2.467      5.464
REMARK  Name = 
REMARK  6 active torsions:
REMARK  status: ('A' for Active; 'I' for Inactive)
REMARK    1  A    between atoms: C_2  and  C_27
REMARK    2  A    between atoms: N_3  and  C_4
REMARK    3  A    between atoms: C_6  and  C_7
REMARK    4  A    between atoms: N_9  and  C_10
REMARK    5  A    between atoms: N_16  and  C_17
REMARK    6  A    between atoms: C_20  and  C_21
REMARK                            x       y       z     vdW  Elec       q    Type
REMARK                         _______ _______ _______ _____ _____    ______ ____
ROOT
ATOM      1  C   UNL     1      -0.295  11.113  20.213  0.00  0.00    +0.000 A 
ATOM      2  C   UNL     1      -0.229   9.768  19.908  0.00  0.00    +0.000 A 
ATOM      3  C   UNL     1       0.855   9.619  19.028  0.00  0.00    +0.000 A 
ATOM      4  N   UNL     1       1.370  10.797  18.680  0.00  0.00    +0.000 NA
ATOM      5  N   UNL     1       0.741  11.705  19.471  0.00  0.00    +0.000 N 
ENDROOT
BRANCH   5   6
ATOM      6  C   UNL     1       1.230  13.032  19.506  0.00  0.00    +0.000 A 
ATOM      7  C   UNL     1       2.323  13.340  20.328  0.00  0.00    +0.000 A 
ATOM      8  C   UNL     1       2.813  14.650  20.381  0.00  0.00    +0.000 A 
ATOM      9  C   UNL     1       2.204  15.688  19.659  0.00  0.00    +0.000 A 
ATOM     10  C   UNL     1       1.071  15.366  18.896  0.00  0.00    +0.000 A 
ATOM     11  C   UNL     1       0.605  14.056  18.804  0.00  0.00    +0.000 A 
ATOM     12  F   UNL     1      -0.502  13.834  18.083  0.00  0.00    +0.000 F 
BRANCH   9  13
ATOM     13  C   UNL     1       2.717  17.105  19.733  0.00  0.00    +0.000 C 
ATOM     14  C   UNL     1       1.760  18.273  19.676  0.00  0.00    +0.000 C 
ATOM     15  C   UNL     1       2.433  17.929  20.969  0.00  0.00    +0.000 C 
ENDBRANCH   9  13
ENDBRANCH   5   6
BRANCH   1  18
ATOM     16  O   UNL     1      -0.190  11.064  23.053  0.00  0.00    +0.000 OA
ATOM     17  C   UNL     1      -1.077  11.687  22.492  0.00  0.00    +0.000 C 
ATOM     18  N   UNL     1      -1.218  11.728  21.069  0.00  0.00    +0.000 N 
ATOM     19  H   UNL     1      -1.939  12.330  20.673  0.00  0.00    +0.000 HD
BRANCH  17  20
ATOM     20  C   UNL     1      -1.982  12.568  23.173  0.00  0.00    +0.000 A 
ATOM     21  C   UNL     1      -3.334  12.277  23.404  0.00  0.00    +0.000 A 
ATOM     22  N   UNL     1      -3.957  13.205  24.125  0.00  0.00    +0.000 NA
ATOM     23  N   UNL     1      -3.008  14.130  24.375  0.00  0.00    +0.000 N 
ATOM     24  C   UNL     1      -3.123  15.256  25.173  0.00  0.00    +0.000 A 
ATOM     25  C   UNL     1      -2.088  16.103  25.298  0.00  0.00    +0.000 A 
ATOM     26  C   UNL     1      -0.895  15.763  24.473  0.00  0.00    +0.000 A 
ATOM     27  N   UNL     1      -0.716  14.667  23.778  0.00  0.00    +0.000 NA
ATOM     28  C   UNL     1      -1.791  13.809  23.745  0.00  0.00    +0.000 A 
ENDBRANCH  17  20
ENDBRANCH   1  18
BRANCH   3  29
ATOM     29  C   UNL     1       1.437   8.298  18.534  0.00  0.00    +0.000 C 
ATOM     30  C   UNL     1       2.816   8.383  17.844  0.00  0.00    +0.000 C 
ATOM     31  N   UNL     1       3.256   7.151  18.555  0.00  0.00    +0.000 NA
ATOM     32  C   UNL     1       2.213   7.469  19.583  0.00  0.00    +0.000 C 
BRANCH  31  33
ATOM     33  C   UNL     1       2.965   5.889  17.843  0.00  0.00    +0.000 C 
ATOM     34  C   UNL     1       4.213   5.334  17.107  0.00  0.00    +0.000 C 
ATOM     35  C   UNL     1       3.888   3.956  17.697  0.00  0.00    +0.000 C 
ATOM     36  C   UNL     1       3.153   4.700  18.836  0.00  0.00    +0.000 C 
ENDBRANCH  31  33
ENDBRANCH   3  29
TORSDOF 6
ENDMDL
