MODEL 1
REMARK VINA RESULT:      -8.2      0.000      0.000
REMARK  Name = 
REMARK  11 active torsions:
REMARK  status: ('A' for Active; 'I' for Inactive)
REMARK    1  A    between atoms: C_1  and  C_2
REMARK    2  A    between atoms: C_2  and  C_3
REMARK    3  A    between atoms: C_2  and  O_4
REMARK    4  A    between atoms: O_4  and  C_5
REMARK    5  A    between atoms: C_7  and  O_8
REMARK    6  A    between atoms: O_8  and  C_9
REMARK    7  A    between atoms: C_9  and  C_10
REMARK    8  A    between atoms: C_10  and  C_11
REMARK    9  A    between atoms: C_18  and  C_19
REMARK   10  A    between atoms: C_25  and  C_26
REMARK   11  A    between atoms: C_26  and  O_28
REMARK                            x       y       z     vdW  Elec       q    Type
REMARK                         _______ _______ _______ _____ _____    ______ ____
ROOT
ATOM      1  C   UNL     1       3.139   5.098  19.283  0.00  0.00    +0.000 A 
ATOM      2  C   UNL     1       4.228   5.002  18.408  0.00  0.00    +0.000 A 
ATOM      3  C   UNL     1       4.598   6.088  17.606  0.00  0.00    +0.000 A 
ATOM      4  C   UNL     1       3.808   7.237  17.604  0.00  0.00    +0.000 A 
ATOM      5  C   UNL     1       2.716   7.343  18.471  0.00  0.00    +0.000 A 
ATOM      6  C   UNL     1       2.418   6.286  19.337  0.00  0.00    +0.000 A 
ENDROOT
BRANCH   5   7
ATOM      7  C   UNL     1       1.922   8.604  18.430  0.00  0.00    +0.000 C 
ATOM      8  O   UNL     1       1.900   9.259  17.392  0.00  0.00    +0.000 OA
ATOM      9  N   UNL     1       1.268   8.961  19.592  0.00  0.00    +0.000 N 
ATOM     10  C   UNL     1       0.551  10.145  19.704  0.00  0.00    +0.000 A 
ATOM     11  C   UNL     1      -0.375  10.536  18.743  0.00  0.00    +0.000 A 
ATOM     12  C   UNL     1      -1.044  11.745  18.909  0.00  0.00    +0.000 A 
ATOM     13  C   UNL     1      -0.718  12.552  20.001  0.00  0.00    +0.000 A 
ATOM     14  C   UNL     1       0.192  12.057  20.926  0.00  0.00    +0.000 A 
ATOM     15  N   UNL     1       0.798  10.853  20.822  0.00  0.00    +0.000 NA
ATOM     16  H   UNL     1       1.622   8.648  20.480  0.00  0.00    +0.000 HD
BRANCH  13  17
ATOM     17  C   UNL     1      -1.321  13.876  20.250  0.00  0.00    +0.000 C 
ATOM     18  O   UNL     1      -0.668  14.818  20.660  0.00  0.00    +0.000 OA
BRANCH  17  19
ATOM     19  O   UNL     1      -2.631  13.964  19.955  0.00  0.00    +0.000 OA
ATOM     20  H   UNL     1      -3.245  13.550  20.590  0.00  0.00    +0.000 HD
ENDBRANCH  17  19
ENDBRANCH  13  17
ENDBRANCH   5   7
BRANCH   1  21
ATOM     21  O   UNL     1       2.911   4.034  20.115  0.00  0.00    +0.000 OA
BRANCH  21  23
ATOM     22  C   UNL     1       1.058   2.869  19.172  0.00  0.00    +0.000 C 
ATOM     23  C   UNL     1       1.544   3.665  20.387  0.00  0.00    +0.000 C 
ATOM     24  C   UNL     1       1.419   2.769  21.620  0.00  0.00    +0.000 C 
ENDBRANCH  21  23
ENDBRANCH   1  21
BRANCH   3  25
ATOM     25  O   UNL     1       5.749   5.952  16.867  0.00  0.00    +0.000 OA
BRANCH  25  26
ATOM     26  C   UNL     1       6.231   4.598  16.756  0.00  0.00    +0.000 C 
BRANCH  26  27
ATOM     27  C   UNL     1       5.508   3.883  15.613  0.00  0.00    +0.000 C 
BRANCH  27  28
ATOM     28  C   UNL     1       6.199   4.096  14.293  0.00  0.00    +0.000 A 
ATOM     29  C   UNL     1       7.249   5.014  14.166  0.00  0.00    +0.000 A 
ATOM     30  C   UNL     1       7.834   5.195  12.925  0.00  0.00    +0.000 A 
ATOM     31  N   UNL     1       7.461   4.543  11.812  0.00  0.00    +0.000 NA
ATOM     32  C   UNL     1       6.441   3.659  11.942  0.00  0.00    +0.000 A 
ATOM     33  C   UNL     1       5.792   3.410  13.142  0.00  0.00    +0.000 A 
ENDBRANCH  27  28
ENDBRANCH  26  27
ENDBRANCH  25  26
ENDBRANCH   3  25
TORSDOF 9
ENDMDL
MODEL 2
REMARK VINA RESULT:      -7.9      2.902      5.261
REMARK  Name = 
REMARK  11 active torsions:
REMARK  status: ('A' for Active; 'I' for Inactive)
REMARK    1  A    between atoms: C_1  and  C_2
REMARK    2  A    between atoms: C_2  and  C_3
REMARK    3  A    between atoms: C_2  and  O_4
REMARK    4  A    between atoms: O_4  and  C_5
REMARK    5  A    between atoms: C_7  and  O_8
REMARK    6  A    between atoms: O_8  and  C_9
REMARK    7  A    between atoms: C_9  and  C_10
REMARK    8  A    between atoms: C_10  and  C_11
REMARK    9  A    between atoms: C_18  and  C_19
REMARK   10  A    between atoms: C_25  and  C_26
REMARK   11  A    between atoms: C_26  and  O_28
REMARK                            x       y       z     vdW  Elec       q    Type
REMARK                         _______ _______ _______ _____ _____    ______ ____
ROOT
ATOM      1  C   UNL     1       5.270   6.505  16.930  0.00  0.00    +0.000 A 
ATOM      2  C   UNL     1       4.737   5.210  16.955  0.00  0.00    +0.000 A 
ATOM      3  C   UNL     1       3.407   4.993  17.334  0.00  0.00    +0.000 A 
ATOM      4  C   UNL     1       2.641   6.066  17.789  0.00  0.00    +0.000 A 
ATOM      5  C   UNL     1       3.164   7.363  17.770  0.00  0.00    +0.000 A 
ATOM      6  C   UNL     1       4.463   7.576  17.296  0.00  0.00    +0.000 A 
ENDROOT
BRANCH   5   7
ATOM      7  C   UNL     1       2.288   8.468  18.255  0.00  0.00    +0.000 C 
ATOM      8  O   UNL     1       2.204   9.495  17.588  0.00  0.00    +0.000 OA
ATOM      9  N   UNL     1       1.634   8.257  19.452  0.00  0.00    +0.000 N 
ATOM     10  C   UNL     1       0.842   9.233  20.043  0.00  0.00    +0.000 A 
ATOM     11  C   UNL     1      -0.125   9.929  19.326  0.00  0.00    +0.000 A 
ATOM     12  C   UNL     1      -0.869  10.907  19.978  0.00  0.00    +0.000 A 
ATOM     13  C   UNL     1      -0.577  11.200  21.312  0.00  0.00    +0.000 A 
ATOM     14  C   UNL     1       0.380  10.425  21.953  0.00  0.00    +0.000 A 
ATOM     15  N   UNL     1       1.063   9.420  21.359  0.00  0.00    +0.000 NA
ATOM     16  H   UNL     1       2.023   7.625  20.130  0.00  0.00    +0.000 HD
BRANCH  13  17
ATOM     17  C   UNL     1      -1.262  12.253  22.088  0.00  0.00    +0.000 C 
ATOM     18  O   UNL     1      -2.312  12.748  21.721  0.00  0.00    +0.000 OA
BRANCH  17  19
ATOM     19  O   UNL     1      -0.653  12.592  23.238  0.00  0.00    +0.000 OA
ATOM     20  H   UNL     1      -1.225  12.967  23.935  0.00  0.00    +0.000 HD
ENDBRANCH  17  19
ENDBRANCH  13  17
ENDBRANCH   5   7
BRANCH   1  21
ATOM     21  O   UNL     1       6.542   6.646  16.440  0.00  0.00    +0.000 OA
BRANCH  21  23
ATOM     22  C   UNL     1       7.816   8.241  17.672  0.00  0.00    +0.000 C 
ATOM     23  C   UNL     1       7.626   6.748  17.385  0.00  0.00    +0.000 C 
ATOM     24  C   UNL     1       7.309   6.050  18.709  0.00  0.00    +0.000 C 
ENDBRANCH  21  23
ENDBRANCH   1  21
BRANCH   3  25
ATOM     25  O   UNL     1       2.929   3.710  17.216  0.00  0.00    +0.000 OA
BRANCH  25  26
ATOM     26  C   UNL     1       3.946   2.689  17.236  0.00  0.00    +0.000 C 
BRANCH  26  27
ATOM     27  C   UNL     1       3.598   1.633  18.286  0.00  0.00    +0.000 C 
BRANCH  27  28
ATOM     28  C   UNL     1       2.744   2.199  19.390  0.00  0.00    +0.000 A 
ATOM     29  C   UNL     1       1.367   2.389  19.213  0.00  0.00    +0.000 A 
ATOM     30  C   UNL     1       0.630   2.939  20.247  0.00  0.00    +0.000 A 
ATOM     31  N   UNL     1       1.147   3.314  21.428  0.00  0.00    +0.000 NA
ATOM     32  C   UNL     1       2.481   3.131  21.589  0.00  0.00    +0.000 A 
ATOM     33  C   UNL     1       3.303   2.588  20.613  0.00  0.00    +0.000 A 
ENDBRANCH  27  28
ENDBRANCH  26  27
ENDBRANCH  25  26
ENDBRANCH   3  25
TORSDOF 9
ENDMDL
MODEL 3
REMARK VINA RESULT:      -7.9      0.469      1.186
REMARK  Name = 
REMARK  11 active torsions:
REMARK  status: ('A' for Active; 'I' for Inactive)
REMARK    1  A    between atoms: C_1  and  C_2
REMARK    2  A    between atoms: C_2  and  C_3
REMARK    3  A    between atoms: C_2  and  O_4
REMARK    4  A    between atoms: O_4  and  C_5
REMARK    5  A    between atoms: C_7  and  O_8
REMARK    6  A    between atoms: O_8  and  C_9
REMARK    7  A    between atoms: C_9  and  C_10
REMARK    8  A    between atoms: C_10  and  C_11
REMARK    9  A    between atoms: C_18  and  C_19
REMARK   10  A    between atoms: C_25  and  C_26
REMARK   11  A    between atoms: C_26  and  O_28
REMARK                            x       y       z     vdW  Elec       q    Type
REMARK                         _______ _______ _______ _____ _____    ______ ____
ROOT
ATOM      1  C   UNL     1       3.290   5.202  19.351  0.00  0.00    +0.000 A 
ATOM      2  C   UNL     1       4.373   5.112  18.468  0.00  0.00    +0.000 A 
ATOM      3  C   UNL     1       4.701   6.185  17.631  0.00  0.00    +0.000 A 
ATOM      4  C   UNL     1       3.877   7.309  17.604  0.00  0.00    +0.000 A 
ATOM      5  C   UNL     1       2.791   7.408  18.480  0.00  0.00    +0.000 A 
ATOM      6  C   UNL     1       2.534   6.369  19.379  0.00  0.00    +0.000 A 
ENDROOT
BRANCH   5   7
ATOM      7  C   UNL     1       1.959   8.643  18.411  0.00  0.00    +0.000 C 
ATOM      8  O   UNL     1       1.943   9.291  17.369  0.00  0.00    +0.000 OA
ATOM      9  N   UNL     1       1.264   8.985  19.554  0.00  0.00    +0.000 N 
ATOM     10  C   UNL     1       0.508  10.146  19.640  0.00  0.00    +0.000 A 
ATOM     11  C   UNL     1      -0.405  10.502  18.654  0.00  0.00    +0.000 A 
ATOM     12  C   UNL     1      -1.117  11.690  18.795  0.00  0.00    +0.000 A 
ATOM     13  C   UNL     1      -0.845  12.513  19.890  0.00  0.00    +0.000 A 
ATOM     14  C   UNL     1       0.057  12.052  20.841  0.00  0.00    +0.000 A 
ATOM     15  N   UNL     1       0.703  10.867  20.760  0.00  0.00    +0.000 NA
ATOM     16  H   UNL     1       1.605   8.688  20.452  0.00  0.00    +0.000 HD
BRANCH  13  17
ATOM     17  C   UNL     1      -1.496  13.818  20.115  0.00  0.00    +0.000 C 
ATOM     18  O   UNL     1      -2.272  14.005  21.034  0.00  0.00    +0.000 OA
BRANCH  17  19
ATOM     19  O   UNL     1      -1.137  14.784  19.249  0.00  0.00    +0.000 OA
ATOM     20  H   UNL     1      -0.850  15.630  19.641  0.00  0.00    +0.000 HD
ENDBRANCH  17  19
ENDBRANCH  13  17
ENDBRANCH   5   7
BRANCH   1  21
ATOM     21  O   UNL     1       3.103   4.156  20.217  0.00  0.00    +0.000 OA
BRANCH  21  23
ATOM     22  C   UNL     1       1.070   3.101  20.876  0.00  0.00    +0.000 C 
ATOM     23  C   UNL     1       2.189   3.110  19.830  0.00  0.00    +0.000 C 
ATOM     24  C   UNL     1       1.555   3.369  18.462  0.00  0.00    +0.000 C 
ENDBRANCH  21  23
ENDBRANCH   1  21
BRANCH   3  25
ATOM     25  O   UNL     1       5.848   6.062  16.884  0.00  0.00    +0.000 OA
BRANCH  25  26
ATOM     26  C   UNL     1       6.318   4.708  16.729  0.00  0.00    +0.000 C 
BRANCH  26  27
ATOM     27  C   UNL     1       5.521   4.006  15.629  0.00  0.00    +0.000 C 
BRANCH  27  28
ATOM     28  C   UNL     1       6.172   4.162  14.279  0.00  0.00    +0.000 A 
ATOM     29  C   UNL     1       5.747   3.404  13.180  0.00  0.00    +0.000 A 
ATOM     30  C   UNL     1       6.396   3.563  11.968  0.00  0.00    +0.000 A 
ATOM     31  N   UNL     1       7.422   4.404  11.764  0.00  0.00    +0.000 NA
ATOM     32  C   UNL     1       7.829   5.131  12.834  0.00  0.00    +0.000 A 
ATOM     33  C   UNL     1       7.244   5.042  14.088  0.00  0.00    +0.000 A 
ENDBRANCH  27  28
ENDBRANCH  26  27
ENDBRANCH  25  26
ENDBRANCH   3  25
TORSDOF 9
ENDMDL
MODEL 4
REMARK VINA RESULT:      -7.9      0.808      1.293
REMARK  Name = 
REMARK  11 active torsions:
REMARK  status: ('A' for Active; 'I' for Inactive)
REMARK    1  A    between atoms: C_1  and  C_2
REMARK    2  A    between atoms: C_2  and  C_3
REMARK    3  A    between atoms: C_2  and  O_4
REMARK    4  A    between atoms: O_4  and  C_5
REMARK    5  A    between atoms: C_7  and  O_8
REMARK    6  A    between atoms: O_8  and  C_9
REMARK    7  A    between atoms: C_9  and  C_10
REMARK    8  A    between atoms: C_10  and  C_11
REMARK    9  A    between atoms: C_18  and  C_19
REMARK   10  A    between atoms: C_25  and  C_26
REMARK   11  A    between atoms: C_26  and  O_28
REMARK                            x       y       z     vdW  Elec       q    Type
REMARK                         _______ _______ _______ _____ _____    ______ ____
ROOT
ATOM      1  C   UNL     1       2.871   5.762  19.644  0.00  0.00    +0.000 A 
ATOM      2  C   UNL     1       3.738   5.415  18.600  0.00  0.00    +0.000 A 
ATOM      3  C   UNL     1       4.006   6.319  17.565  0.00  0.00    +0.000 A 
ATOM      4  C   UNL     1       3.321   7.533  17.522  0.00  0.00    +0.000 A 
ATOM      5  C   UNL     1       2.451   7.889  18.558  0.00  0.00    +0.000 A 
ATOM      6  C   UNL     1       2.269   7.016  19.635  0.00  0.00    +0.000 A 
ENDROOT
BRANCH   5   7
ATOM      7  C   UNL     1       1.763   9.207  18.459  0.00  0.00    +0.000 C 
ATOM      8  O   UNL     1       1.881   9.863  17.428  0.00  0.00    +0.000 OA
ATOM      9  N   UNL     1       1.040   9.612  19.563  0.00  0.00    +0.000 N 
ATOM     10  C   UNL     1       0.409  10.847  19.622  0.00  0.00    +0.000 A 
ATOM     11  C   UNL     1      -0.398  11.310  18.588  0.00  0.00    +0.000 A 
ATOM     12  C   UNL     1      -0.985  12.566  18.705  0.00  0.00    +0.000 A 
ATOM     13  C   UNL     1      -0.693  13.344  19.828  0.00  0.00    +0.000 A 
ATOM     14  C   UNL     1       0.093  12.780  20.824  0.00  0.00    +0.000 A 
ATOM     15  N   UNL     1       0.612  11.532  20.763  0.00  0.00    +0.000 NA
ATOM     16  H   UNL     1       1.290   9.271  20.476  0.00  0.00    +0.000 HD
BRANCH  13  17
ATOM     17  C   UNL     1      -1.213  14.711  20.034  0.00  0.00    +0.000 C 
ATOM     18  O   UNL     1      -0.525  15.699  19.852  0.00  0.00    +0.000 OA
BRANCH  17  19
ATOM     19  O   UNL     1      -2.505  14.773  20.403  0.00  0.00    +0.000 OA
ATOM     20  H   UNL     1      -2.684  15.141  21.289  0.00  0.00    +0.000 HD
ENDBRANCH  17  19
ENDBRANCH  13  17
ENDBRANCH   5   7
BRANCH   1  21
ATOM     21  O   UNL     1       2.748   4.870  20.675  0.00  0.00    +0.000 OA
BRANCH  21  23
ATOM     22  C   UNL     1       2.453   2.717  21.654  0.00  0.00    +0.000 C 
ATOM     23  C   UNL     1       2.298   3.535  20.369  0.00  0.00    +0.000 C 
ATOM     24  C   UNL     1       0.824   3.499  19.962  0.00  0.00    +0.000 C 
ENDBRANCH  21  23
ENDBRANCH   1  21
BRANCH   3  25
ATOM     25  O   UNL     1       4.958   5.947  16.646  0.00  0.00    +0.000 OA
BRANCH  25  26
ATOM     26  C   UNL     1       5.630   4.709  16.950  0.00  0.00    +0.000 C 
BRANCH  26  27
ATOM     27  C   UNL     1       7.022   4.706  16.315  0.00  0.00    +0.000 C 
BRANCH  27  28
ATOM     28  C   UNL     1       6.953   4.557  14.818  0.00  0.00    +0.000 A 
ATOM     29  C   UNL     1       6.076   3.643  14.221  0.00  0.00    +0.000 A 
ATOM     30  C   UNL     1       6.070   3.523  12.843  0.00  0.00    +0.000 A 
ATOM     31  N   UNL     1       6.860   4.231  12.019  0.00  0.00    +0.000 NA
ATOM     32  C   UNL     1       7.709   5.111  12.605  0.00  0.00    +0.000 A 
ATOM     33  C   UNL     1       7.789   5.302  13.976  0.00  0.00    +0.000 A 
ENDBRANCH  27  28
ENDBRANCH  26  27
ENDBRANCH  25  26
ENDBRANCH   3  25
TORSDOF 9
ENDMDL
MODEL 5
REMARK VINA RESULT:      -7.9      2.802      5.256
REMARK  Name = 
REMARK  11 active torsions:
REMARK  status: ('A' for Active; 'I' for Inactive)
REMARK    1  A    between atoms: C_1  and  C_2
REMARK    2  A    between atoms: C_2  and  C_3
REMARK    3  A    between atoms: C_2  and  O_4
REMARK    4  A    between atoms: O_4  and  C_5
REMARK    5  A    between atoms: C_7  and  O_8
REMARK    6  A    between atoms: O_8  and  C_9
REMARK    7  A    between atoms: C_9  and  C_10
REMARK    8  A    between atoms: C_10  and  C_11
REMARK    9  A    between atoms: C_18  and  C_19
REMARK   10  A    between atoms: C_25  and  C_26
REMARK   11  A    between atoms: C_26  and  O_28
REMARK                            x       y       z     vdW  Elec       q    Type
REMARK                         _______ _______ _______ _____ _____    ______ ____
ROOT
ATOM      1  C   UNL     1       5.041   6.432  16.902  0.00  0.00    +0.000 A 
ATOM      2  C   UNL     1       4.601   5.105  16.814  0.00  0.00    +0.000 A 
ATOM      3  C   UNL     1       3.339   4.738  17.297  0.00  0.00    +0.000 A 
ATOM      4  C   UNL     1       2.562   5.682  17.966  0.00  0.00    +0.000 A 
ATOM      5  C   UNL     1       2.992   7.010  18.063  0.00  0.00    +0.000 A 
ATOM      6  C   UNL     1       4.212   7.382  17.488  0.00  0.00    +0.000 A 
ENDROOT
BRANCH   5   7
ATOM      7  C   UNL     1       2.107   7.972  18.777  0.00  0.00    +0.000 C 
ATOM      8  O   UNL     1       1.953   7.852  19.989  0.00  0.00    +0.000 OA
ATOM      9  N   UNL     1       1.498   8.941  18.005  0.00  0.00    +0.000 N 
ATOM     10  C   UNL     1       0.599   9.855  18.539  0.00  0.00    +0.000 A 
ATOM     11  C   UNL     1       0.880  10.571  19.698  0.00  0.00    +0.000 A 
ATOM     12  C   UNL     1      -0.075  11.457  20.188  0.00  0.00    +0.000 A 
ATOM     13  C   UNL     1      -1.306  11.551  19.535  0.00  0.00    +0.000 A 
ATOM     14  C   UNL     1      -1.478  10.823  18.364  0.00  0.00    +0.000 A 
ATOM     15  N   UNL     1      -0.535  10.014  17.831  0.00  0.00    +0.000 NA
ATOM     16  H   UNL     1       1.326   8.768  17.030  0.00  0.00    +0.000 HD
BRANCH  13  17
ATOM     17  C   UNL     1      -2.412  12.413  19.994  0.00  0.00    +0.000 C 
ATOM     18  O   UNL     1      -2.356  13.037  21.038  0.00  0.00    +0.000 OA
BRANCH  17  19
ATOM     19  O   UNL     1      -3.462  12.479  19.155  0.00  0.00    +0.000 OA
ATOM     20  H   UNL     1      -3.705  13.369  18.837  0.00  0.00    +0.000 HD
ENDBRANCH  17  19
ENDBRANCH  13  17
ENDBRANCH   5   7
BRANCH   1  21
ATOM     21  O   UNL     1       6.237   6.733  16.306  0.00  0.00    +0.000 OA
BRANCH  21  23
ATOM     22  C   UNL     1       7.679   7.067  18.174  0.00  0.00    +0.000 C 
ATOM     23  C   UNL     1       7.445   6.231  16.912  0.00  0.00    +0.000 C 
ATOM     24  C   UNL     1       7.316   4.766  17.333  0.00  0.00    +0.000 C 
ENDBRANCH  21  23
ENDBRANCH   1  21
BRANCH   3  25
ATOM     25  O   UNL     1       2.936   3.445  17.063  0.00  0.00    +0.000 OA
BRANCH  25  26
ATOM     26  C   UNL     1       3.960   2.452  17.274  0.00  0.00    +0.000 C 
BRANCH  26  27
ATOM     27  C   UNL     1       3.515   1.473  18.362  0.00  0.00    +0.000 C 
BRANCH  27  28
ATOM     28  C   UNL     1       2.696   2.153  19.427  0.00  0.00    +0.000 A 
ATOM     29  C   UNL     1       1.320   2.359  19.260  0.00  0.00    +0.000 A 
ATOM     30  C   UNL     1       0.616   3.014  20.255  0.00  0.00    +0.000 A 
ATOM     31  N   UNL     1       1.165   3.478  21.389  0.00  0.00    +0.000 NA
ATOM     32  C   UNL     1       2.497   3.279  21.541  0.00  0.00    +0.000 A 
ATOM     33  C   UNL     1       3.288   2.634  20.601  0.00  0.00    +0.000 A 
ENDBRANCH  27  28
ENDBRANCH  26  27
ENDBRANCH  25  26
ENDBRANCH   3  25
TORSDOF 9
ENDMDL
MODEL 6
REMARK VINA RESULT:      -7.8      2.051      2.996
REMARK  Name = 
REMARK  11 active torsions:
REMARK  status: ('A' for Active; 'I' for Inactive)
REMARK    1  A    between atoms: C_1  and  C_2
REMARK    2  A    between atoms: C_2  and  C_3
REMARK    3  A    between atoms: C_2  and  O_4
REMARK    4  A    between atoms: O_4  and  C_5
REMARK    5  A    between atoms: C_7  and  O_8
REMARK    6  A    between atoms: O_8  and  C_9
REMARK    7  A    between atoms: C_9  and  C_10
REMARK    8  A    between atoms: C_10  and  C_11
REMARK    9  A    between atoms: C_18  and  C_19
REMARK   10  A    between atoms: C_25  and  C_26
REMARK   11  A    between atoms: C_26  and  O_28
REMARK                            x       y       z     vdW  Elec       q    Type
REMARK                         _______ _______ _______ _____ _____    ______ ____
ROOT
ATOM      1  C   UNL     1       3.314   3.768  19.293  0.00  0.00    +0.000 A 
ATOM      2  C   UNL     1       3.903   3.361  18.089  0.00  0.00    +0.000 A 
ATOM      3  C   UNL     1       4.155   4.286  17.069  0.00  0.00    +0.000 A 
ATOM      4  C   UNL     1       3.718   5.602  17.215  0.00  0.00    +0.000 A 
ATOM      5  C   UNL     1       3.126   6.020  18.412  0.00  0.00    +0.000 A 
ATOM      6  C   UNL     1       2.970   5.106  19.459  0.00  0.00    +0.000 A 
ENDROOT
BRANCH   5   7
ATOM      7  C   UNL     1       2.696   7.443  18.509  0.00  0.00    +0.000 C 
ATOM      8  O   UNL     1       3.219   8.273  17.772  0.00  0.00    +0.000 OA
ATOM      9  N   UNL     1       1.732   7.734  19.453  0.00  0.00    +0.000 N 
ATOM     10  C   UNL     1       1.295   9.031  19.688  0.00  0.00    +0.000 A 
ATOM     11  C   UNL     1       0.922   9.880  18.651  0.00  0.00    +0.000 A 
ATOM     12  C   UNL     1       0.512  11.174  18.958  0.00  0.00    +0.000 A 
ATOM     13  C   UNL     1       0.548  11.595  20.289  0.00  0.00    +0.000 A 
ATOM     14  C   UNL     1       0.899  10.663  21.256  0.00  0.00    +0.000 A 
ATOM     15  N   UNL     1       1.229   9.380  20.987  0.00  0.00    +0.000 NA
ATOM     16  H   UNL     1       1.636   7.150  20.266  0.00  0.00    +0.000 HD
BRANCH  13  17
ATOM     17  C   UNL     1       0.189  12.959  20.725  0.00  0.00    +0.000 C 
ATOM     18  O   UNL     1      -0.832  13.510  20.356  0.00  0.00    +0.000 OA
BRANCH  17  19
ATOM     19  O   UNL     1       1.057  13.523  21.585  0.00  0.00    +0.000 OA
ATOM     20  H   UNL     1       1.444  12.931  22.257  0.00  0.00    +0.000 HD
ENDBRANCH  17  19
ENDBRANCH  13  17
ENDBRANCH   5   7
BRANCH   1  21
ATOM     21  O   UNL     1       3.204   2.828  20.283  0.00  0.00    +0.000 OA
BRANCH  21  23
ATOM     22  C   UNL     1       1.403   2.876  21.843  0.00  0.00    +0.000 C 
ATOM     23  C   UNL     1       1.906   2.256  20.536  0.00  0.00    +0.000 C 
ATOM     24  C   UNL     1       0.899   2.593  19.435  0.00  0.00    +0.000 C 
ENDBRANCH  21  23
ENDBRANCH   1  21
BRANCH   3  25
ATOM     25  O   UNL     1       4.844   3.828  15.972  0.00  0.00    +0.000 OA
BRANCH  25  26
ATOM     26  C   UNL     1       5.332   4.865  15.097  0.00  0.00    +0.000 C 
BRANCH  26  27
ATOM     27  C   UNL     1       6.854   4.961  15.207  0.00  0.00    +0.000 C 
BRANCH  27  28
ATOM     28  C   UNL     1       7.286   5.494  16.548  0.00  0.00    +0.000 A 
ATOM     29  C   UNL     1       7.643   4.627  17.589  0.00  0.00    +0.000 A 
ATOM     30  C   UNL     1       8.006   5.165  18.812  0.00  0.00    +0.000 A 
ATOM     31  N   UNL     1       8.040   6.480  19.079  0.00  0.00    +0.000 NA
ATOM     32  C   UNL     1       7.689   7.312  18.068  0.00  0.00    +0.000 A 
ATOM     33  C   UNL     1       7.311   6.869  16.809  0.00  0.00    +0.000 A 
ENDBRANCH  27  28
ENDBRANCH  26  27
ENDBRANCH  25  26
ENDBRANCH   3  25
TORSDOF 9
ENDMDL
MODEL 7
REMARK VINA RESULT:      -7.8      1.158      1.738
REMARK  Name = 
REMARK  11 active torsions:
REMARK  status: ('A' for Active; 'I' for Inactive)
REMARK    1  A    between atoms: C_1  and  C_2
REMARK    2  A    between atoms: C_2  and  C_3
REMARK    3  A    between atoms: C_2  and  O_4
REMARK    4  A    between atoms: O_4  and  C_5
REMARK    5  A    between atoms: C_7  and  O_8
REMARK    6  A    between atoms: O_8  and  C_9
REMARK    7  A    between atoms: C_9  and  C_10
REMARK    8  A    between atoms: C_10  and  C_11
REMARK    9  A    between atoms: C_18  and  C_19
REMARK   10  A    between atoms: C_25  and  C_26
REMARK   11  A    between atoms: C_26  and  O_28
REMARK                            x       y       z     vdW  Elec       q    Type
REMARK                         _______ _______ _______ _____ _____    ______ ____
ROOT
ATOM      1  C   UNL     1       3.175   4.539  19.496  0.00  0.00    +0.000 A 
ATOM      2  C   UNL     1       3.820   4.663  18.259  0.00  0.00    +0.000 A 
ATOM      3  C   UNL     1       3.848   5.893  17.589  0.00  0.00    +0.000 A 
ATOM      4  C   UNL     1       3.138   6.973  18.111  0.00  0.00    +0.000 A 
ATOM      5  C   UNL     1       2.489   6.860  19.345  0.00  0.00    +0.000 A 
ATOM      6  C   UNL     1       2.552   5.653  20.049  0.00  0.00    +0.000 A 
ENDROOT
BRANCH   5   7
ATOM      7  C   UNL     1       1.761   8.057  19.855  0.00  0.00    +0.000 C 
ATOM      8  O   UNL     1       1.516   8.136  21.055  0.00  0.00    +0.000 OA
ATOM      9  N   UNL     1       1.395   9.003  18.918  0.00  0.00    +0.000 N 
ATOM     10  C   UNL     1       0.656  10.129  19.256  0.00  0.00    +0.000 A 
ATOM     11  C   UNL     1       0.998  10.937  20.334  0.00  0.00    +0.000 A 
ATOM     12  C   UNL     1       0.202  12.040  20.626  0.00  0.00    +0.000 A 
ATOM     13  C   UNL     1      -0.948  12.262  19.865  0.00  0.00    +0.000 A 
ATOM     14  C   UNL     1      -1.185  11.422  18.785  0.00  0.00    +0.000 A 
ATOM     15  N   UNL     1      -0.384  10.389  18.439  0.00  0.00    +0.000 NA
ATOM     16  H   UNL     1       1.251   8.728  17.962  0.00  0.00    +0.000 HD
BRANCH  13  17
ATOM     17  C   UNL     1      -1.896  13.366  20.117  0.00  0.00    +0.000 C 
ATOM     18  O   UNL     1      -1.537  14.435  20.574  0.00  0.00    +0.000 OA
BRANCH  17  19
ATOM     19  O   UNL     1      -3.169  13.105  19.771  0.00  0.00    +0.000 OA
ATOM     20  H   UNL     1      -3.379  12.174  19.566  0.00  0.00    +0.000 HD
ENDBRANCH  17  19
ENDBRANCH  13  17
ENDBRANCH   5   7
BRANCH   1  21
ATOM     21  O   UNL     1       3.287   3.336  20.140  0.00  0.00    +0.000 OA
BRANCH  21  23
ATOM     22  C   UNL     1       1.545   2.594  21.587  0.00  0.00    +0.000 C 
ATOM     23  C   UNL     1       2.132   2.474  20.177  0.00  0.00    +0.000 C 
ATOM     24  C   UNL     1       1.055   2.904  19.179  0.00  0.00    +0.000 C 
ENDBRANCH  21  23
ENDBRANCH   1  21
BRANCH   3  25
ATOM     25  O   UNL     1       4.603   5.958  16.443  0.00  0.00    +0.000 OA
BRANCH  25  26
ATOM     26  C   UNL     1       6.000   6.238  16.662  0.00  0.00    +0.000 C 
BRANCH  26  27
ATOM     27  C   UNL     1       6.835   5.003  16.323  0.00  0.00    +0.000 C 
BRANCH  27  28
ATOM     28  C   UNL     1       6.847   4.723  14.843  0.00  0.00    +0.000 A 
ATOM     29  C   UNL     1       6.013   3.746  14.285  0.00  0.00    +0.000 A 
ATOM     30  C   UNL     1       6.081   3.506  12.924  0.00  0.00    +0.000 A 
ATOM     31  N   UNL     1       6.904   4.153  12.083  0.00  0.00    +0.000 NA
ATOM     32  C   UNL     1       7.711   5.094  12.631  0.00  0.00    +0.000 A 
ATOM     33  C   UNL     1       7.717   5.405  13.983  0.00  0.00    +0.000 A 
ENDBRANCH  27  28
ENDBRANCH  26  27
ENDBRANCH  25  26
ENDBRANCH   3  25
TORSDOF 9
ENDMDL
MODEL 8
REMARK VINA RESULT:      -7.8      2.010      4.600
REMARK  Name = 
REMARK  11 active torsions:
REMARK  status: ('A' for Active; 'I' for Inactive)
REMARK    1  A    between atoms: C_1  and  C_2
REMARK    2  A    between atoms: C_2  and  C_3
REMARK    3  A    between atoms: C_2  and  O_4
REMARK    4  A    between atoms: O_4  and  C_5
REMARK    5  A    between atoms: C_7  and  O_8
REMARK    6  A    between atoms: O_8  and  C_9
REMARK    7  A    between atoms: C_9  and  C_10
REMARK    8  A    between atoms: C_10  and  C_11
REMARK    9  A    between atoms: C_18  and  C_19
REMARK   10  A    between atoms: C_25  and  C_26
REMARK   11  A    between atoms: C_26  and  O_28
REMARK                            x       y       z     vdW  Elec       q    Type
REMARK                         _______ _______ _______ _____ _____    ______ ____
ROOT
ATOM      1  C   UNL     1       4.210   6.690  17.505  0.00  0.00    +0.000 A 
ATOM      2  C   UNL     1       4.078   5.805  18.583  0.00  0.00    +0.000 A 
ATOM      3  C   UNL     1       3.107   6.021  19.569  0.00  0.00    +0.000 A 
ATOM      4  C   UNL     1       2.338   7.183  19.529  0.00  0.00    +0.000 A 
ATOM      5  C   UNL     1       2.463   8.075  18.459  0.00  0.00    +0.000 A 
ATOM      6  C   UNL     1       3.369   7.795  17.431  0.00  0.00    +0.000 A 
ENDROOT
BRANCH   5   7
ATOM      7  C   UNL     1       1.600   9.291  18.468  0.00  0.00    +0.000 C 
ATOM      8  O   UNL     1       1.546   9.988  17.460  0.00  0.00    +0.000 OA
ATOM      9  N   UNL     1       0.923   9.558  19.641  0.00  0.00    +0.000 N 
ATOM     10  C   UNL     1       0.140  10.694  19.799  0.00  0.00    +0.000 A 
ATOM     11  C   UNL     1      -0.802  11.076  18.851  0.00  0.00    +0.000 A 
ATOM     12  C   UNL     1      -1.539  12.237  19.065  0.00  0.00    +0.000 A 
ATOM     13  C   UNL     1      -1.263  13.011  20.195  0.00  0.00    +0.000 A 
ATOM     14  C   UNL     1      -0.330  12.528  21.103  0.00  0.00    +0.000 A 
ATOM     15  N   UNL     1       0.343  11.364  20.950  0.00  0.00    +0.000 NA
ATOM     16  H   UNL     1       1.289   9.226  20.516  0.00  0.00    +0.000 HD
BRANCH  13  17
ATOM     17  C   UNL     1      -1.940  14.288  20.497  0.00  0.00    +0.000 C 
ATOM     18  O   UNL     1      -2.764  14.388  21.387  0.00  0.00    +0.000 OA
BRANCH  17  19
ATOM     19  O   UNL     1      -1.549  15.327  19.738  0.00  0.00    +0.000 OA
ATOM     20  H   UNL     1      -0.712  15.214  19.250  0.00  0.00    +0.000 HD
ENDBRANCH  17  19
ENDBRANCH  13  17
ENDBRANCH   5   7
BRANCH   1  21
ATOM     21  O   UNL     1       5.104   6.350  16.525  0.00  0.00    +0.000 OA
BRANCH  21  23
ATOM     22  C   UNL     1       6.930   5.032  15.743  0.00  0.00    +0.000 C 
ATOM     23  C   UNL     1       6.392   5.841  16.927  0.00  0.00    +0.000 C 
ATOM     24  C   UNL     1       7.390   6.960  17.228  0.00  0.00    +0.000 C 
ENDBRANCH  21  23
ENDBRANCH   1  21
BRANCH   3  25
ATOM     25  O   UNL     1       2.964   5.044  20.524  0.00  0.00    +0.000 OA
BRANCH  25  26
ATOM     26  C   UNL     1       1.626   4.907  21.043  0.00  0.00    +0.000 C 
BRANCH  26  27
ATOM     27  C   UNL     1       0.969   3.656  20.457  0.00  0.00    +0.000 C 
BRANCH  27  28
ATOM     28  C   UNL     1       1.903   2.908  19.543  0.00  0.00    +0.000 A 
ATOM     29  C   UNL     1       3.004   2.207  20.050  0.00  0.00    +0.000 A 
ATOM     30  C   UNL     1       3.850   1.559  19.166  0.00  0.00    +0.000 A 
ATOM     31  N   UNL     1       3.690   1.555  17.833  0.00  0.00    +0.000 NA
ATOM     32  C   UNL     1       2.625   2.240  17.350  0.00  0.00    +0.000 A 
ATOM     33  C   UNL     1       1.722   2.920  18.154  0.00  0.00    +0.000 A 
ENDBRANCH  27  28
ENDBRANCH  26  27
ENDBRANCH  25  26
ENDBRANCH   3  25
TORSDOF 9
ENDMDL
MODEL 9
REMARK VINA RESULT:      -7.8      3.215     11.205
REMARK  Name = 
REMARK  11 active torsions:
REMARK  status: ('A' for Active; 'I' for Inactive)
REMARK    1  A    between atoms: C_1  and  C_2
REMARK    2  A    between atoms: C_2  and  C_3
REMARK    3  A    between atoms: C_2  and  O_4
REMARK    4  A    between atoms: O_4  and  C_5
REMARK    5  A    between atoms: C_7  and  O_8
REMARK    6  A    between atoms: O_8  and  C_9
REMARK    7  A    between atoms: C_9  and  C_10
REMARK    8  A    between atoms: C_10  and  C_11
REMARK    9  A    between atoms: C_18  and  C_19
REMARK   10  A    between atoms: C_25  and  C_26
REMARK   11  A    between atoms: C_26  and  O_28
REMARK                            x       y       z     vdW  Elec       q    Type
REMARK                         _______ _______ _______ _____ _____    ______ ____
ROOT
ATOM      1  C   UNL     1      -1.314  11.389  18.279  0.00  0.00    +0.000 A 
ATOM      2  C   UNL     1      -1.315  12.383  19.266  0.00  0.00    +0.000 A 
ATOM      3  C   UNL     1      -0.443  12.304  20.359  0.00  0.00    +0.000 A 
ATOM      4  C   UNL     1       0.357  11.173  20.515  0.00  0.00    +0.000 A 
ATOM      5  C   UNL     1       0.364  10.173  19.537  0.00  0.00    +0.000 A 
ATOM      6  C   UNL     1      -0.441  10.314  18.402  0.00  0.00    +0.000 A 
ENDROOT
BRANCH   5   7
ATOM      7  C   UNL     1       1.254   8.998  19.757  0.00  0.00    +0.000 C 
ATOM      8  O   UNL     1       1.569   8.699  20.905  0.00  0.00    +0.000 OA
ATOM      9  N   UNL     1       1.681   8.326  18.630  0.00  0.00    +0.000 N 
ATOM     10  C   UNL     1       2.565   7.257  18.696  0.00  0.00    +0.000 A 
ATOM     11  C   UNL     1       2.377   6.202  19.582  0.00  0.00    +0.000 A 
ATOM     12  C   UNL     1       3.312   5.173  19.609  0.00  0.00    +0.000 A 
ATOM     13  C   UNL     1       4.440   5.265  18.790  0.00  0.00    +0.000 A 
ATOM     14  C   UNL     1       4.520   6.338  17.912  0.00  0.00    +0.000 A 
ATOM     15  N   UNL     1       3.584   7.310  17.818  0.00  0.00    +0.000 NA
ATOM     16  H   UNL     1       1.742   8.813  17.752  0.00  0.00    +0.000 HD
BRANCH  13  17
ATOM     17  C   UNL     1       5.523   4.262  18.773  0.00  0.00    +0.000 C 
ATOM     18  O   UNL     1       6.643   4.526  18.374  0.00  0.00    +0.000 OA
BRANCH  17  19
ATOM     19  O   UNL     1       5.184   3.057  19.263  0.00  0.00    +0.000 OA
ATOM     20  H   UNL     1       4.435   3.040  19.889  0.00  0.00    +0.000 HD
ENDBRANCH  17  19
ENDBRANCH  13  17
ENDBRANCH   5   7
BRANCH   1  21
ATOM     21  O   UNL     1      -2.114  11.595  17.186  0.00  0.00    +0.000 OA
BRANCH  21  23
ATOM     22  C   UNL     1      -4.452  11.261  16.865  0.00  0.00    +0.000 C 
ATOM     23  C   UNL     1      -3.081  10.579  16.851  0.00  0.00    +0.000 C 
ATOM     24  C   UNL     1      -2.854  10.002  15.452  0.00  0.00    +0.000 C 
ENDBRANCH  21  23
ENDBRANCH   1  21
BRANCH   3  25
ATOM     25  O   UNL     1      -0.423  13.377  21.216  0.00  0.00    +0.000 OA
BRANCH  25  26
ATOM     26  C   UNL     1      -1.321  13.263  22.338  0.00  0.00    +0.000 C 
BRANCH  26  27
ATOM     27  C   UNL     1      -2.629  13.996  22.030  0.00  0.00    +0.000 C 
BRANCH  27  28
ATOM     28  C   UNL     1      -3.784  13.434  22.818  0.00  0.00    +0.000 A 
ATOM     29  C   UNL     1      -3.582  12.829  24.065  0.00  0.00    +0.000 A 
ATOM     30  C   UNL     1      -4.671  12.303  24.737  0.00  0.00    +0.000 A 
ATOM     31  N   UNL     1      -5.931  12.329  24.272  0.00  0.00    +0.000 NA
ATOM     32  C   UNL     1      -6.117  12.912  23.062  0.00  0.00    +0.000 A 
ATOM     33  C   UNL     1      -5.089  13.467  22.313  0.00  0.00    +0.000 A 
ENDBRANCH  27  28
ENDBRANCH  26  27
ENDBRANCH  25  26
ENDBRANCH   3  25
TORSDOF 9
ENDMDL
