MODEL 1
REMARK VINA RESULT:      -7.5      0.000      0.000
REMARK  Name = 
REMARK  11 active torsions:
REMARK  status: ('A' for Active; 'I' for Inactive)
REMARK    1  A    between atoms: N_1  and  C_2
REMARK    2  A    between atoms: C_2  and  C_3
REMARK    3  A    between atoms: C_3  and  C_4
REMARK    4  A    between atoms: C_4  and  C_5
REMARK    5  A    between atoms: C_5  and  C_6
REMARK    6  A    between atoms: C_6  and  C_7
REMARK    7  A    between atoms: C_7  and  O_9
REMARK    8  A    between atoms: N_11  and  C_12
REMARK    9  A    between atoms: C_12  and  C_13
REMARK   10  A    between atoms: C_18  and  C_19
REMARK   11  A    between atoms: P_27  and  O_29
REMARK                            x       y       z     vdW  Elec       q    Type
REMARK                         _______ _______ _______ _____ _____    ______ ____
ROOT
ATOM      1  C   UNL     1       3.662   3.953  19.152  0.00  0.00    +0.000 C 
ATOM      2  C   UNL     1       3.313   5.277  19.852  0.00  0.00    +0.000 C 
ATOM      3  N   UNL     1       1.918   5.737  19.701  0.00  0.00    +0.000 NA
ATOM      4  C   UNL     1       0.922   4.785  20.265  0.00  0.00    +0.000 C 
ATOM      5  C   UNL     1       0.978   3.366  19.713  0.00  0.00    +0.000 C 
ATOM      6  P   UNL     1       2.612   2.708  19.946  0.00  0.00    +0.000 P 
ATOM      7  O   UNL     1       2.958   2.435  21.378  0.00  0.00    +0.000 OA
ENDROOT
BRANCH   1   8
ATOM      8  C   UNL     1       5.067   3.452  19.440  0.00  0.00    +0.000 C 
ATOM      9  O   UNL     1       6.036   4.200  19.394  0.00  0.00    +0.000 OA
BRANCH   8  10
ATOM     10  O   UNL     1       5.223   2.153  19.789  0.00  0.00    +0.000 OA
ATOM     11  H   UNL     1       6.055   1.692  19.565  0.00  0.00    +0.000 HD
ENDBRANCH   8  10
ENDBRANCH   1   8
BRANCH   6  12
ATOM     12  O   UNL     1       2.697   1.389  19.028  0.00  0.00    +0.000 OA
ATOM     13  H   UNL     1       2.444   1.558  18.089  0.00  0.00    +0.000 HD
ENDBRANCH   6  12
BRANCH   1  14
ATOM     14  C   UNL     1       3.400   3.985  17.614  0.00  0.00    +0.000 C 
BRANCH  14  15
ATOM     15  C   UNL     1       4.536   3.561  16.680  0.00  0.00    +0.000 C 
BRANCH  15  16
ATOM     16  C   UNL     1       5.141   4.707  15.870  0.00  0.00    +0.000 C 
BRANCH  16  17
ATOM     17  C   UNL     1       6.312   4.281  14.996  0.00  0.00    +0.000 C 
BRANCH  17  18
ATOM     18  N   UNL     1       7.434   5.204  15.146  0.00  0.00    +0.000 NA
ATOM     19  H   UNL     1       8.275   4.756  14.783  0.00  0.00    +0.000 HD
ATOM     20  H   UNL     1       7.611   5.372  16.138  0.00  0.00    +0.000 HD
ENDBRANCH  17  18
ENDBRANCH  16  17
ENDBRANCH  15  16
ENDBRANCH  14  15
ENDBRANCH   1  14
BRANCH   3  21
ATOM     21  C   UNL     1       1.732   7.035  20.410  0.00  0.00    +0.000 C 
BRANCH  21  22
ATOM     22  C   UNL     1       1.747   8.295  19.549  0.00  0.00    +0.000 A 
ATOM     23  C   UNL     1       2.487   8.206  18.341  0.00  0.00    +0.000 A 
ATOM     24  C   UNL     1       2.569   9.268  17.443  0.00  0.00    +0.000 A 
ATOM     25  C   UNL     1       1.912  10.451  17.730  0.00  0.00    +0.000 A 
ATOM     26  C   UNL     1       1.199  10.568  18.923  0.00  0.00    +0.000 A 
ATOM     27  C   UNL     1       1.099   9.515  19.870  0.00  0.00    +0.000 A 
BRANCH  27  28
ATOM     28  C   UNL     1       0.360   9.803  21.125  0.00  0.00    +0.000 A 
ATOM     29  C   UNL     1      -0.741  10.680  21.144  0.00  0.00    +0.000 A 
ATOM     30  C   UNL     1      -1.337  11.066  22.344  0.00  0.00    +0.000 A 
ATOM     31  C   UNL     1      -0.839  10.540  23.518  0.00  0.00    +0.000 A 
ATOM     32  N   UNL     1       0.193   9.675  23.566  0.00  0.00    +0.000 NA
ATOM     33  C   UNL     1       0.764   9.343  22.378  0.00  0.00    +0.000 A 
ENDBRANCH  27  28
ENDBRANCH  21  22
ENDBRANCH   3  21
TORSDOF 11
ENDMDL
MODEL 2
REMARK VINA RESULT:      -7.1      2.923      4.707
REMARK  Name = 
REMARK  11 active torsions:
REMARK  status: ('A' for Active; 'I' for Inactive)
REMARK    1  A    between atoms: N_1  and  C_2
REMARK    2  A    between atoms: C_2  and  C_3
REMARK    3  A    between atoms: C_3  and  C_4
REMARK    4  A    between atoms: C_4  and  C_5
REMARK    5  A    between atoms: C_5  and  C_6
REMARK    6  A    between atoms: C_6  and  C_7
REMARK    7  A    between atoms: C_7  and  O_9
REMARK    8  A    between atoms: N_11  and  C_12
REMARK    9  A    between atoms: C_12  and  C_13
REMARK   10  A    between atoms: C_18  and  C_19
REMARK   11  A    between atoms: P_27  and  O_29
REMARK                            x       y       z     vdW  Elec       q    Type
REMARK                         _______ _______ _______ _____ _____    ______ ____
ROOT
ATOM      1  C   UNL     1       6.275   6.075  17.286  0.00  0.00    +0.000 C 
ATOM      2  C   UNL     1       4.773   6.364  17.448  0.00  0.00    +0.000 C 
ATOM      3  N   UNL     1       3.869   5.218  17.220  0.00  0.00    +0.000 NA
ATOM      4  C   UNL     1       4.100   4.091  18.165  0.00  0.00    +0.000 C 
ATOM      5  C   UNL     1       5.517   3.533  18.194  0.00  0.00    +0.000 C 
ATOM      6  P   UNL     1       6.659   4.844  18.559  0.00  0.00    +0.000 P 
ATOM      7  O   UNL     1       6.563   5.361  19.962  0.00  0.00    +0.000 OA
ENDROOT
BRANCH   1   8
ATOM      8  C   UNL     1       7.173   7.243  17.656  0.00  0.00    +0.000 C 
ATOM      9  O   UNL     1       7.002   8.358  17.178  0.00  0.00    +0.000 OA
BRANCH   8  10
ATOM     10  O   UNL     1       8.156   7.032  18.564  0.00  0.00    +0.000 OA
ATOM     11  H   UNL     1       8.805   7.741  18.742  0.00  0.00    +0.000 HD
ENDBRANCH   8  10
ENDBRANCH   1   8
BRANCH   6  12
ATOM     12  O   UNL     1       8.123   4.271  18.211  0.00  0.00    +0.000 OA
ATOM     13  H   UNL     1       8.822   4.612  18.818  0.00  0.00    +0.000 HD
ENDBRANCH   6  12
BRANCH   1  14
ATOM     14  C   UNL     1       6.646   5.530  15.872  0.00  0.00    +0.000 C 
BRANCH  14  15
ATOM     15  C   UNL     1       5.520   5.348  14.851  0.00  0.00    +0.000 C 
BRANCH  15  16
ATOM     16  C   UNL     1       5.526   3.991  14.149  0.00  0.00    +0.000 C 
BRANCH  16  17
ATOM     17  C   UNL     1       6.597   3.869  13.073  0.00  0.00    +0.000 C 
BRANCH  17  18
ATOM     18  N   UNL     1       6.253   2.822  12.115  0.00  0.00    +0.000 NA
ATOM     19  H   UNL     1       5.289   2.962  11.813  0.00  0.00    +0.000 HD
ATOM     20  H   UNL     1       6.273   1.912  12.579  0.00  0.00    +0.000 HD
ENDBRANCH  17  18
ENDBRANCH  16  17
ENDBRANCH  15  16
ENDBRANCH  14  15
ENDBRANCH   1  14
BRANCH   3  21
ATOM     21  C   UNL     1       2.452   5.648  17.389  0.00  0.00    +0.000 C 
BRANCH  21  22
ATOM     22  C   UNL     1       2.164   6.634  18.517  0.00  0.00    +0.000 A 
ATOM     23  C   UNL     1       2.234   8.008  18.166  0.00  0.00    +0.000 A 
ATOM     24  C   UNL     1       1.970   9.020  19.085  0.00  0.00    +0.000 A 
ATOM     25  C   UNL     1       1.629   8.687  20.383  0.00  0.00    +0.000 A 
ATOM     26  C   UNL     1       1.578   7.343  20.756  0.00  0.00    +0.000 A 
ATOM     27  C   UNL     1       1.850   6.280  19.854  0.00  0.00    +0.000 A 
BRANCH  27  28
ATOM     28  C   UNL     1       1.820   4.902  20.405  0.00  0.00    +0.000 A 
ATOM     29  C   UNL     1       0.928   3.933  19.910  0.00  0.00    +0.000 A 
ATOM     30  C   UNL     1       0.795   2.690  20.526  0.00  0.00    +0.000 A 
ATOM     31  C   UNL     1       1.587   2.419  21.624  0.00  0.00    +0.000 A 
ATOM     32  N   UNL     1       2.479   3.292  22.130  0.00  0.00    +0.000 NA
ATOM     33  C   UNL     1       2.561   4.503  21.517  0.00  0.00    +0.000 A 
ENDBRANCH  27  28
ENDBRANCH  21  22
ENDBRANCH   3  21
TORSDOF 11
ENDMDL
MODEL 3
REMARK VINA RESULT:      -6.7      1.316      1.606
REMARK  Name = 
REMARK  11 active torsions:
REMARK  status: ('A' for Active; 'I' for Inactive)
REMARK    1  A    between atoms: N_1  and  C_2
REMARK    2  A    between atoms: C_2  and  C_3
REMARK    3  A    between atoms: C_3  and  C_4
REMARK    4  A    between atoms: C_4  and  C_5
REMARK    5  A    between atoms: C_5  and  C_6
REMARK    6  A    between atoms: C_6  and  C_7
REMARK    7  A    between atoms: C_7  and  O_9
REMARK    8  A    between atoms: N_11  and  C_12
REMARK    9  A    between atoms: C_12  and  C_13
REMARK   10  A    between atoms: C_18  and  C_19
REMARK   11  A    between atoms: P_27  and  O_29
REMARK                            x       y       z     vdW  Elec       q    Type
REMARK                         _______ _______ _______ _____ _____    ______ ____
ROOT
ATOM      1  C   UNL     1       3.735   3.359  19.753  0.00  0.00    +0.000 C 
ATOM      2  C   UNL     1       3.025   4.596  20.329  0.00  0.00    +0.000 C 
ATOM      3  N   UNL     1       2.514   5.565  19.337  0.00  0.00    +0.000 NA
ATOM      4  C   UNL     1       1.493   4.985  18.423  0.00  0.00    +0.000 C 
ATOM      5  C   UNL     1       1.928   3.749  17.645  0.00  0.00    +0.000 C 
ATOM      6  P   UNL     1       2.470   2.498  18.784  0.00  0.00    +0.000 P 
ATOM      7  O   UNL     1       1.366   1.904  19.604  0.00  0.00    +0.000 OA
ENDROOT
BRANCH   1   8
ATOM      8  C   UNL     1       4.128   2.330  20.799  0.00  0.00    +0.000 C 
ATOM      9  O   UNL     1       5.172   1.695  20.712  0.00  0.00    +0.000 OA
BRANCH   8  10
ATOM     10  O   UNL     1       3.307   2.152  21.861  0.00  0.00    +0.000 OA
ATOM     11  H   UNL     1       2.359   2.371  21.778  0.00  0.00    +0.000 HD
ENDBRANCH   8  10
ENDBRANCH   1   8
BRANCH   6  12
ATOM     12  O   UNL     1       3.245   1.397  17.902  0.00  0.00    +0.000 OA
ATOM     13  H   UNL     1       4.201   1.326  18.132  0.00  0.00    +0.000 HD
ENDBRANCH   6  12
BRANCH   1  14
ATOM     14  C   UNL     1       4.959   3.718  18.855  0.00  0.00    +0.000 C 
BRANCH  14  15
ATOM     15  C   UNL     1       5.690   5.035  19.124  0.00  0.00    +0.000 C 
BRANCH  15  16
ATOM     16  C   UNL     1       5.704   5.996  17.936  0.00  0.00    +0.000 C 
BRANCH  16  17
ATOM     17  C   UNL     1       6.799   5.691  16.922  0.00  0.00    +0.000 C 
BRANCH  17  18
ATOM     18  N   UNL     1       7.620   6.874  16.673  0.00  0.00    +0.000 NA
ATOM     19  H   UNL     1       7.014   7.694  16.665  0.00  0.00    +0.000 HD
ATOM     20  H   UNL     1       8.028   6.817  15.738  0.00  0.00    +0.000 HD
ENDBRANCH  17  18
ENDBRANCH  16  17
ENDBRANCH  15  16
ENDBRANCH  14  15
ENDBRANCH   1  14
BRANCH   3  21
ATOM     21  C   UNL     1       1.874   6.716  20.035  0.00  0.00    +0.000 C 
BRANCH  21  22
ATOM     22  C   UNL     1       1.898   8.058  19.309  0.00  0.00    +0.000 A 
ATOM     23  C   UNL     1       2.561   8.067  18.054  0.00  0.00    +0.000 A 
ATOM     24  C   UNL     1       2.640   9.213  17.267  0.00  0.00    +0.000 A 
ATOM     25  C   UNL     1       2.058  10.386  17.715  0.00  0.00    +0.000 A 
ATOM     26  C   UNL     1       1.424  10.405  18.957  0.00  0.00    +0.000 A 
ATOM     27  C   UNL     1       1.329   9.263  19.796  0.00  0.00    +0.000 A 
BRANCH  27  28
ATOM     28  C   UNL     1       0.680   9.447  21.118  0.00  0.00    +0.000 A 
ATOM     29  C   UNL     1      -0.574  10.074  21.239  0.00  0.00    +0.000 A 
ATOM     30  C   UNL     1      -1.112  10.380  22.488  0.00  0.00    +0.000 A 
ATOM     31  C   UNL     1      -0.394  10.025  23.612  0.00  0.00    +0.000 A 
ATOM     32  N   UNL     1       0.798   9.399  23.564  0.00  0.00    +0.000 NA
ATOM     33  C   UNL     1       1.301   9.140  22.328  0.00  0.00    +0.000 A 
ENDBRANCH  27  28
ENDBRANCH  21  22
ENDBRANCH   3  21
TORSDOF 11
ENDMDL
MODEL 4
REMARK VINA RESULT:      -6.7      4.260      7.760
REMARK  Name = 
REMARK  11 active torsions:
REMARK  status: ('A' for Active; 'I' for Inactive)
REMARK    1  A    between atoms: N_1  and  C_2
REMARK    2  A    between atoms: C_2  and  C_3
REMARK    3  A    between atoms: C_3  and  C_4
REMARK    4  A    between atoms: C_4  and  C_5
REMARK    5  A    between atoms: C_5  and  C_6
REMARK    6  A    between atoms: C_6  and  C_7
REMARK    7  A    between atoms: C_7  and  O_9
REMARK    8  A    between atoms: N_11  and  C_12
REMARK    9  A    between atoms: C_12  and  C_13
REMARK   10  A    between atoms: C_18  and  C_19
REMARK   11  A    between atoms: P_27  and  O_29
REMARK                            x       y       z     vdW  Elec       q    Type
REMARK                         _______ _______ _______ _____ _____    ______ ____
ROOT
ATOM      1  C   UNL     1       0.253  10.328  20.156  0.00  0.00    +0.000 C 
ATOM      2  C   UNL     1       0.519   9.286  19.056  0.00  0.00    +0.000 C 
ATOM      3  N   UNL     1       1.796   8.551  19.160  0.00  0.00    +0.000 NA
ATOM      4  C   UNL     1       1.915   7.757  20.413  0.00  0.00    +0.000 C 
ATOM      5  C   UNL     1       1.752   8.539  21.710  0.00  0.00    +0.000 C 
ATOM      6  P   UNL     1       0.186   9.379  21.698  0.00  0.00    +0.000 P 
ATOM      7  O   UNL     1      -0.995   8.463  21.806  0.00  0.00    +0.000 OA
ENDROOT
BRANCH   1   8
ATOM      8  C   UNL     1      -1.124  10.965  20.085  0.00  0.00    +0.000 C 
ATOM      9  O   UNL     1      -1.562  11.650  21.001  0.00  0.00    +0.000 OA
BRANCH   8  10
ATOM     10  O   UNL     1      -1.853  10.788  18.956  0.00  0.00    +0.000 OA
ATOM     11  H   UNL     1      -1.399  10.551  18.124  0.00  0.00    +0.000 HD
ENDBRANCH   8  10
ENDBRANCH   1   8
BRANCH   6  12
ATOM     12  O   UNL     1       0.246  10.453  22.896  0.00  0.00    +0.000 OA
ATOM     13  H   UNL     1       0.446  10.041  23.770  0.00  0.00    +0.000 HD
ENDBRANCH   6  12
BRANCH   1  14
ATOM     14  C   UNL     1       1.357  11.427  20.240  0.00  0.00    +0.000 C 
BRANCH  14  15
ATOM     15  C   UNL     1       1.446  12.448  19.104  0.00  0.00    +0.000 C 
BRANCH  15  16
ATOM     16  C   UNL     1       0.964  13.848  19.482  0.00  0.00    +0.000 C 
BRANCH  16  17
ATOM     17  C   UNL     1      -0.249  14.307  18.686  0.00  0.00    +0.000 C 
BRANCH  17  18
ATOM     18  N   UNL     1      -0.642  13.296  17.707  0.00  0.00    +0.000 NA
ATOM     19  H   UNL     1       0.187  13.007  17.188  0.00  0.00    +0.000 HD
ATOM     20  H   UNL     1      -1.274  13.711  17.020  0.00  0.00    +0.000 HD
ENDBRANCH  17  18
ENDBRANCH  16  17
ENDBRANCH  15  16
ENDBRANCH  14  15
ENDBRANCH   1  14
BRANCH   3  21
ATOM     21  C   UNL     1       1.928   7.598  18.023  0.00  0.00    +0.000 C 
BRANCH  21  22
ATOM     22  C   UNL     1       3.250   6.844  17.908  0.00  0.00    +0.000 A 
ATOM     23  C   UNL     1       4.342   7.591  17.393  0.00  0.00    +0.000 A 
ATOM     24  C   UNL     1       5.614   7.043  17.257  0.00  0.00    +0.000 A 
ATOM     25  C   UNL     1       5.831   5.729  17.632  0.00  0.00    +0.000 A 
ATOM     26  C   UNL     1       4.767   4.969  18.117  0.00  0.00    +0.000 A 
ATOM     27  C   UNL     1       3.452   5.485  18.262  0.00  0.00    +0.000 A 
BRANCH  27  28
ATOM     28  C   UNL     1       2.404   4.544  18.732  0.00  0.00    +0.000 A 
ATOM     29  C   UNL     1       2.109   4.399  20.101  0.00  0.00    +0.000 A 
ATOM     30  C   UNL     1       1.235   3.410  20.551  0.00  0.00    +0.000 A 
ATOM     31  C   UNL     1       0.640   2.590  19.614  0.00  0.00    +0.000 A 
ATOM     32  N   UNL     1       0.859   2.696  18.289  0.00  0.00    +0.000 NA
ATOM     33  C   UNL     1       1.736   3.655  17.891  0.00  0.00    +0.000 A 
ENDBRANCH  27  28
ENDBRANCH  21  22
ENDBRANCH   3  21
TORSDOF 11
ENDMDL
MODEL 5
REMARK VINA RESULT:      -6.6      4.687      7.713
REMARK  Name = 
REMARK  11 active torsions:
REMARK  status: ('A' for Active; 'I' for Inactive)
REMARK    1  A    between atoms: N_1  and  C_2
REMARK    2  A    between atoms: C_2  and  C_3
REMARK    3  A    between atoms: C_3  and  C_4
REMARK    4  A    between atoms: C_4  and  C_5
REMARK    5  A    between atoms: C_5  and  C_6
REMARK    6  A    between atoms: C_6  and  C_7
REMARK    7  A    between atoms: C_7  and  O_9
REMARK    8  A    between atoms: N_11  and  C_12
REMARK    9  A    between atoms: C_12  and  C_13
REMARK   10  A    between atoms: C_18  and  C_19
REMARK   11  A    between atoms: P_27  and  O_29
REMARK                            x       y       z     vdW  Elec       q    Type
REMARK                         _______ _______ _______ _____ _____    ______ ____
ROOT
ATOM      1  C   UNL     1       0.644  10.859  19.273  0.00  0.00    +0.000 C 
ATOM      2  C   UNL     1       0.856   9.620  18.387  0.00  0.00    +0.000 C 
ATOM      3  N   UNL     1       1.934   8.702  18.810  0.00  0.00    +0.000 NA
ATOM      4  C   UNL     1       1.708   8.116  20.160  0.00  0.00    +0.000 C 
ATOM      5  C   UNL     1       1.515   9.118  21.291  0.00  0.00    +0.000 C 
ATOM      6  P   UNL     1       0.166  10.203  20.893  0.00  0.00    +0.000 P 
ATOM      7  O   UNL     1      -1.176   9.537  20.915  0.00  0.00    +0.000 OA
ENDROOT
BRANCH   1   8
ATOM      8  C   UNL     1      -0.554  11.705  18.877  0.00  0.00    +0.000 C 
ATOM      9  O   UNL     1      -0.951  12.624  19.584  0.00  0.00    +0.000 OA
BRANCH   8  10
ATOM     10  O   UNL     1      -1.159  11.442  17.694  0.00  0.00    +0.000 OA
ATOM     11  H   UNL     1      -2.123  11.571  17.609  0.00  0.00    +0.000 HD
ENDBRANCH   8  10
ENDBRANCH   1   8
BRANCH   6  12
ATOM     12  O   UNL     1       0.262  11.433  21.928  0.00  0.00    +0.000 OA
ATOM     13  H   UNL     1       0.899  12.128  21.638  0.00  0.00    +0.000 HD
ENDBRANCH   6  12
BRANCH   1  14
ATOM     14  C   UNL     1       1.920  11.748  19.400  0.00  0.00    +0.000 C 
BRANCH  14  15
ATOM     15  C   UNL     1       2.452  12.431  18.139  0.00  0.00    +0.000 C 
BRANCH  15  16
ATOM     16  C   UNL     1       2.448  13.958  18.206  0.00  0.00    +0.000 C 
BRANCH  16  17
ATOM     17  C   UNL     1       3.800  14.552  18.576  0.00  0.00    +0.000 C 
BRANCH  17  18
ATOM     18  N   UNL     1       4.510  15.011  17.385  0.00  0.00    +0.000 NA
ATOM     19  H   UNL     1       4.300  15.998  17.242  0.00  0.00    +0.000 HD
ATOM     20  H   UNL     1       4.148  14.525  16.562  0.00  0.00    +0.000 HD
ENDBRANCH  17  18
ENDBRANCH  16  17
ENDBRANCH  15  16
ENDBRANCH  14  15
ENDBRANCH   1  14
BRANCH   3  21
ATOM     21  C   UNL     1       2.039   7.566  17.852  0.00  0.00    +0.000 C 
BRANCH  21  22
ATOM     22  C   UNL     1       3.355   6.793  17.844  0.00  0.00    +0.000 A 
ATOM     23  C   UNL     1       4.477   7.494  17.330  0.00  0.00    +0.000 A 
ATOM     24  C   UNL     1       5.747   6.926  17.285  0.00  0.00    +0.000 A 
ATOM     25  C   UNL     1       5.932   5.638  17.753  0.00  0.00    +0.000 A 
ATOM     26  C   UNL     1       4.838   4.922  18.240  0.00  0.00    +0.000 A 
ATOM     27  C   UNL     1       3.524   5.459  18.294  0.00  0.00    +0.000 A 
BRANCH  27  28
ATOM     28  C   UNL     1       2.446   4.560  18.778  0.00  0.00    +0.000 A 
ATOM     29  C   UNL     1       2.101   4.496  20.141  0.00  0.00    +0.000 A 
ATOM     30  C   UNL     1       1.197   3.547  20.614  0.00  0.00    +0.000 A 
ATOM     31  C   UNL     1       0.621   2.684  19.704  0.00  0.00    +0.000 A 
ATOM     32  N   UNL     1       0.887   2.713  18.384  0.00  0.00    +0.000 NA
ATOM     33  C   UNL     1       1.793   3.636  17.964  0.00  0.00    +0.000 A 
ENDBRANCH  27  28
ENDBRANCH  21  22
ENDBRANCH   3  21
TORSDOF 11
ENDMDL
MODEL 6
REMARK VINA RESULT:      -6.6      1.068      1.221
REMARK  Name = 
REMARK  11 active torsions:
REMARK  status: ('A' for Active; 'I' for Inactive)
REMARK    1  A    between atoms: N_1  and  C_2
REMARK    2  A    between atoms: C_2  and  C_3
REMARK    3  A    between atoms: C_3  and  C_4
REMARK    4  A    between atoms: C_4  and  C_5
REMARK    5  A    between atoms: C_5  and  C_6
REMARK    6  A    between atoms: C_6  and  C_7
REMARK    7  A    between atoms: C_7  and  O_9
REMARK    8  A    between atoms: N_11  and  C_12
REMARK    9  A    between atoms: C_12  and  C_13
REMARK   10  A    between atoms: C_18  and  C_19
REMARK   11  A    between atoms: P_27  and  O_29
REMARK                            x       y       z     vdW  Elec       q    Type
REMARK                         _______ _______ _______ _____ _____    ______ ____
ROOT
ATOM      1  C   UNL     1       4.548   4.801  18.504  0.00  0.00    +0.000 C 
ATOM      2  C   UNL     1       3.831   5.906  19.297  0.00  0.00    +0.000 C 
ATOM      3  N   UNL     1       2.364   5.969  19.131  0.00  0.00    +0.000 NA
ATOM      4  C   UNL     1       1.670   4.730  19.576  0.00  0.00    +0.000 C 
ATOM      5  C   UNL     1       2.132   3.439  18.912  0.00  0.00    +0.000 C 
ATOM      6  P   UNL     1       3.882   3.246  19.153  0.00  0.00    +0.000 P 
ATOM      7  O   UNL     1       4.271   2.954  20.570  0.00  0.00    +0.000 OA
ENDROOT
BRANCH   1   8
ATOM      8  C   UNL     1       6.033   4.690  18.804  0.00  0.00    +0.000 C 
ATOM      9  O   UNL     1       6.554   5.331  19.709  0.00  0.00    +0.000 OA
BRANCH   8  10
ATOM     10  O   UNL     1       6.772   3.829  18.064  0.00  0.00    +0.000 OA
ATOM     11  H   UNL     1       6.780   3.916  17.091  0.00  0.00    +0.000 HD
ENDBRANCH   8  10
ENDBRANCH   1   8
BRANCH   6  12
ATOM     12  O   UNL     1       4.348   2.091  18.134  0.00  0.00    +0.000 OA
ATOM     13  H   UNL     1       3.655   1.403  17.991  0.00  0.00    +0.000 HD
ENDBRANCH   6  12
BRANCH   1  14
ATOM     14  C   UNL     1       4.309   4.896  16.965  0.00  0.00    +0.000 C 
BRANCH  14  15
ATOM     15  C   UNL     1       5.308   5.699  16.128  0.00  0.00    +0.000 C 
BRANCH  15  16
ATOM     16  C   UNL     1       5.709   5.024  14.817  0.00  0.00    +0.000 C 
BRANCH  16  17
ATOM     17  C   UNL     1       7.204   4.759  14.704  0.00  0.00    +0.000 C 
BRANCH  17  18
ATOM     18  N   UNL     1       7.792   5.552  13.627  0.00  0.00    +0.000 NA
ATOM     19  H   UNL     1       7.936   6.504  13.965  0.00  0.00    +0.000 HD
ATOM     20  H   UNL     1       7.128   5.626  12.854  0.00  0.00    +0.000 HD
ENDBRANCH  17  18
ENDBRANCH  16  17
ENDBRANCH  15  16
ENDBRANCH  14  15
ENDBRANCH   1  14
BRANCH   3  21
ATOM     21  C   UNL     1       1.809   7.094  19.935  0.00  0.00    +0.000 C 
BRANCH  21  22
ATOM     22  C   UNL     1       1.815   8.473  19.282  0.00  0.00    +0.000 A 
ATOM     23  C   UNL     1       2.490   8.561  18.036  0.00  0.00    +0.000 A 
ATOM     24  C   UNL     1       2.555   9.749  17.311  0.00  0.00    +0.000 A 
ATOM     25  C   UNL     1       1.945  10.884  17.814  0.00  0.00    +0.000 A 
ATOM     26  C   UNL     1       1.297  10.826  19.048  0.00  0.00    +0.000 A 
ATOM     27  C   UNL     1       1.217   9.639  19.824  0.00  0.00    +0.000 A 
BRANCH  27  28
ATOM     28  C   UNL     1       0.550   9.740  21.147  0.00  0.00    +0.000 A 
ATOM     29  C   UNL     1      -0.669  10.426  21.303  0.00  0.00    +0.000 A 
ATOM     30  C   UNL     1      -1.216  10.649  22.566  0.00  0.00    +0.000 A 
ATOM     31  C   UNL     1      -0.544  10.153  23.665  0.00  0.00    +0.000 A 
ATOM     32  N   UNL     1       0.611   9.465  23.579  0.00  0.00    +0.000 NA
ATOM     33  C   UNL     1       1.126   9.289  22.333  0.00  0.00    +0.000 A 
ENDBRANCH  27  28
ENDBRANCH  21  22
ENDBRANCH   3  21
TORSDOF 11
ENDMDL
MODEL 7
REMARK VINA RESULT:      -6.5      4.728      8.167
REMARK  Name = 
REMARK  11 active torsions:
REMARK  status: ('A' for Active; 'I' for Inactive)
REMARK    1  A    between atoms: N_1  and  C_2
REMARK    2  A    between atoms: C_2  and  C_3
REMARK    3  A    between atoms: C_3  and  C_4
REMARK    4  A    between atoms: C_4  and  C_5
REMARK    5  A    between atoms: C_5  and  C_6
REMARK    6  A    between atoms: C_6  and  C_7
REMARK    7  A    between atoms: C_7  and  O_9
REMARK    8  A    between atoms: N_11  and  C_12
REMARK    9  A    between atoms: C_12  and  C_13
REMARK   10  A    between atoms: C_18  and  C_19
REMARK   11  A    between atoms: P_27  and  O_29
REMARK                            x       y       z     vdW  Elec       q    Type
REMARK                         _______ _______ _______ _____ _____    ______ ____
ROOT
ATOM      1  C   UNL     1       0.166  10.003  19.692  0.00  0.00    +0.000 C 
ATOM      2  C   UNL     1       1.115   8.863  20.097  0.00  0.00    +0.000 C 
ATOM      3  N   UNL     1       1.783   8.155  18.985  0.00  0.00    +0.000 NA
ATOM      4  C   UNL     1       2.651   9.042  18.163  0.00  0.00    +0.000 C 
ATOM      5  C   UNL     1       1.967  10.262  17.559  0.00  0.00    +0.000 C 
ATOM      6  P   UNL     1       1.217  11.218  18.855  0.00  0.00    +0.000 P 
ATOM      7  O   UNL     1       2.203  11.901  19.754  0.00  0.00    +0.000 OA
ENDROOT
BRANCH   1   8
ATOM      8  C   UNL     1      -0.397  10.786  20.866  0.00  0.00    +0.000 C 
ATOM      9  O   UNL     1      -0.790  10.224  21.881  0.00  0.00    +0.000 OA
BRANCH   8  10
ATOM     10  O   UNL     1      -0.421  12.137  20.781  0.00  0.00    +0.000 OA
ATOM     11  H   UNL     1      -0.646  12.561  19.930  0.00  0.00    +0.000 HD
ENDBRANCH   8  10
ENDBRANCH   1   8
BRANCH   6  12
ATOM     12  O   UNL     1       0.224  12.255  18.127  0.00  0.00    +0.000 OA
ATOM     13  H   UNL     1      -0.661  11.865  17.931  0.00  0.00    +0.000 HD
ENDBRANCH   6  12
BRANCH   1  14
ATOM     14  C   UNL     1      -0.985   9.536  18.747  0.00  0.00    +0.000 C 
BRANCH  14  15
ATOM     15  C   UNL     1      -2.171  10.480  18.534  0.00  0.00    +0.000 C 
BRANCH  15  16
ATOM     16  C   UNL     1      -3.020  10.149  17.307  0.00  0.00    +0.000 C 
BRANCH  16  17
ATOM     17  C   UNL     1      -2.582  10.886  16.049  0.00  0.00    +0.000 C 
BRANCH  17  18
ATOM     18  N   UNL     1      -3.164  10.272  14.859  0.00  0.00    +0.000 NA
ATOM     19  H   UNL     1      -2.419  10.097  14.186  0.00  0.00    +0.000 HD
ATOM     20  H   UNL     1      -3.800  10.934  14.407  0.00  0.00    +0.000 HD
ENDBRANCH  17  18
ENDBRANCH  16  17
ENDBRANCH  15  16
ENDBRANCH  14  15
ENDBRANCH   1  14
BRANCH   3  21
ATOM     21  C   UNL     1       2.650   7.069  19.522  0.00  0.00    +0.000 C 
BRANCH  21  22
ATOM     22  C   UNL     1       2.722   5.782  18.706  0.00  0.00    +0.000 A 
ATOM     23  C   UNL     1       1.489   5.104  18.515  0.00  0.00    +0.000 A 
ATOM     24  C   UNL     1       1.397   3.931  17.770  0.00  0.00    +0.000 A 
ATOM     25  C   UNL     1       2.537   3.401  17.195  0.00  0.00    +0.000 A 
ATOM     26  C   UNL     1       3.763   4.037  17.390  0.00  0.00    +0.000 A 
ATOM     27  C   UNL     1       3.904   5.228  18.151  0.00  0.00    +0.000 A 
BRANCH  27  28
ATOM     28  C   UNL     1       5.279   5.760  18.326  0.00  0.00    +0.000 A 
ATOM     29  C   UNL     1       5.828   6.688  17.422  0.00  0.00    +0.000 A 
ATOM     30  C   UNL     1       7.166   7.070  17.502  0.00  0.00    +0.000 A 
ATOM     31  C   UNL     1       7.938   6.535  18.514  0.00  0.00    +0.000 A 
ATOM     32  N   UNL     1       7.465   5.665  19.427  0.00  0.00    +0.000 NA
ATOM     33  C   UNL     1       6.163   5.297  19.301  0.00  0.00    +0.000 A 
ENDBRANCH  27  28
ENDBRANCH  21  22
ENDBRANCH   3  21
TORSDOF 11
ENDMDL
MODEL 8
REMARK VINA RESULT:      -6.5      3.375      4.791
REMARK  Name = 
REMARK  11 active torsions:
REMARK  status: ('A' for Active; 'I' for Inactive)
REMARK    1  A    between atoms: N_1  and  C_2
REMARK    2  A    between atoms: C_2  and  C_3
REMARK    3  A    between atoms: C_3  and  C_4
REMARK    4  A    between atoms: C_4  and  C_5
REMARK    5  A    between atoms: C_5  and  C_6
REMARK    6  A    between atoms: C_6  and  C_7
REMARK    7  A    between atoms: C_7  and  O_9
REMARK    8  A    between atoms: N_11  and  C_12
REMARK    9  A    between atoms: C_12  and  C_13
REMARK   10  A    between atoms: C_18  and  C_19
REMARK   11  A    between atoms: P_27  and  O_29
REMARK                            x       y       z     vdW  Elec       q    Type
REMARK                         _______ _______ _______ _____ _____    ______ ____
ROOT
ATOM      1  C   UNL     1       6.683   6.073  17.701  0.00  0.00    +0.000 C 
ATOM      2  C   UNL     1       5.288   6.483  18.201  0.00  0.00    +0.000 C 
ATOM      3  N   UNL     1       4.477   7.285  17.262  0.00  0.00    +0.000 NA
ATOM      4  C   UNL     1       4.184   6.575  15.987  0.00  0.00    +0.000 C 
ATOM      5  C   UNL     1       5.399   6.084  15.209  0.00  0.00    +0.000 C 
ATOM      6  P   UNL     1       6.378   5.030  16.252  0.00  0.00    +0.000 P 
ATOM      7  O   UNL     1       5.731   3.716  16.565  0.00  0.00    +0.000 OA
ENDROOT
BRANCH   1   8
ATOM      8  C   UNL     1       7.429   5.143  18.643  0.00  0.00    +0.000 C 
ATOM      9  O   UNL     1       8.279   4.362  18.232  0.00  0.00    +0.000 OA
BRANCH   8  10
ATOM     10  O   UNL     1       7.158   5.223  19.968  0.00  0.00    +0.000 OA
ATOM     11  H   UNL     1       7.134   6.098  20.401  0.00  0.00    +0.000 HD
ENDBRANCH   8  10
ENDBRANCH   1   8
BRANCH   6  12
ATOM     12  O   UNL     1       7.795   4.859  15.508  0.00  0.00    +0.000 OA
ATOM     13  H   UNL     1       8.021   3.916  15.327  0.00  0.00    +0.000 HD
ENDBRANCH   6  12
BRANCH   1  14
ATOM     14  C   UNL     1       7.579   7.291  17.317  0.00  0.00    +0.000 C 
BRANCH  14  15
ATOM     15  C   UNL     1       8.322   8.022  18.438  0.00  0.00    +0.000 C 
BRANCH  15  16
ATOM     16  C   UNL     1       8.512   9.518  18.190  0.00  0.00    +0.000 C 
BRANCH  16  17
ATOM     17  C   UNL     1       9.263  10.228  19.308  0.00  0.00    +0.000 C 
BRANCH  17  18
ATOM     18  N   UNL     1       9.702  11.553  18.879  0.00  0.00    +0.000 NA
ATOM     19  H   UNL     1      10.626  11.468  18.456  0.00  0.00    +0.000 HD
ATOM     20  H   UNL     1       9.821  12.156  19.695  0.00  0.00    +0.000 HD
ENDBRANCH  17  18
ENDBRANCH  16  17
ENDBRANCH  15  16
ENDBRANCH  14  15
ENDBRANCH   1  14
BRANCH   3  21
ATOM     21  C   UNL     1       3.167   7.626  17.885  0.00  0.00    +0.000 C 
BRANCH  21  22
ATOM     22  C   UNL     1       2.584   6.606  18.859  0.00  0.00    +0.000 A 
ATOM     23  C   UNL     1       2.809   5.243  18.530  0.00  0.00    +0.000 A 
ATOM     24  C   UNL     1       2.359   4.203  19.340  0.00  0.00    +0.000 A 
ATOM     25  C   UNL     1       1.669   4.497  20.502  0.00  0.00    +0.000 A 
ATOM     26  C   UNL     1       1.415   5.829  20.831  0.00  0.00    +0.000 A 
ATOM     27  C   UNL     1       1.847   6.919  20.029  0.00  0.00    +0.000 A 
BRANCH  27  28
ATOM     28  C   UNL     1       1.452   8.281  20.470  0.00  0.00    +0.000 A 
ATOM     29  C   UNL     1       1.204   8.570  21.825  0.00  0.00    +0.000 A 
ATOM     30  C   UNL     1       0.689   9.805  22.218  0.00  0.00    +0.000 A 
ATOM     31  C   UNL     1       0.453  10.753  21.243  0.00  0.00    +0.000 A 
ATOM     32  N   UNL     1       0.696  10.548  19.934  0.00  0.00    +0.000 NA
ATOM     33  C   UNL     1       1.174   9.323  19.587  0.00  0.00    +0.000 A 
ENDBRANCH  27  28
ENDBRANCH  21  22
ENDBRANCH   3  21
TORSDOF 11
ENDMDL
MODEL 9
REMARK VINA RESULT:      -6.4      4.696      8.380
REMARK  Name = 
REMARK  11 active torsions:
REMARK  status: ('A' for Active; 'I' for Inactive)
REMARK    1  A    between atoms: N_1  and  C_2
REMARK    2  A    between atoms: C_2  and  C_3
REMARK    3  A    between atoms: C_3  and  C_4
REMARK    4  A    between atoms: C_4  and  C_5
REMARK    5  A    between atoms: C_5  and  C_6
REMARK    6  A    between atoms: C_6  and  C_7
REMARK    7  A    between atoms: C_7  and  O_9
REMARK    8  A    between atoms: N_11  and  C_12
REMARK    9  A    between atoms: C_12  and  C_13
REMARK   10  A    between atoms: C_18  and  C_19
REMARK   11  A    between atoms: P_27  and  O_29
REMARK                            x       y       z     vdW  Elec       q    Type
REMARK                         _______ _______ _______ _____ _____    ______ ____
ROOT
ATOM      1  C   UNL     1       0.248   9.995  19.742  0.00  0.00    +0.000 C 
ATOM      2  C   UNL     1       1.235   8.870  20.096  0.00  0.00    +0.000 C 
ATOM      3  N   UNL     1       1.868   8.184  18.950  0.00  0.00    +0.000 NA
ATOM      4  C   UNL     1       2.682   9.094  18.099  0.00  0.00    +0.000 C 
ATOM      5  C   UNL     1       1.950  10.305  17.536  0.00  0.00    +0.000 C 
ATOM      6  P   UNL     1       1.238  11.237  18.871  0.00  0.00    +0.000 P 
ATOM      7  O   UNL     1       2.248  11.931  19.732  0.00  0.00    +0.000 OA
ENDROOT
BRANCH   1   8
ATOM      8  C   UNL     1      -0.279  10.757  20.946  0.00  0.00    +0.000 C 
ATOM      9  O   UNL     1      -0.677  10.176  21.948  0.00  0.00    +0.000 OA
BRANCH   8  10
ATOM     10  O   UNL     1      -0.264  12.111  20.902  0.00  0.00    +0.000 OA
ATOM     11  H   UNL     1      -1.048  12.610  21.203  0.00  0.00    +0.000 HD
ENDBRANCH   8  10
ENDBRANCH   1   8
BRANCH   6  12
ATOM     12  O   UNL     1       0.195  12.259  18.196  0.00  0.00    +0.000 OA
ATOM     13  H   UNL     1      -0.693  11.856  18.043  0.00  0.00    +0.000 HD
ENDBRANCH   6  12
BRANCH   1  14
ATOM     14  C   UNL     1      -0.934   9.513  18.844  0.00  0.00    +0.000 C 
BRANCH  14  15
ATOM     15  C   UNL     1      -2.092  10.482  18.594  0.00  0.00    +0.000 C 
BRANCH  15  16
ATOM     16  C   UNL     1      -3.100   9.996  17.554  0.00  0.00    +0.000 C 
BRANCH  16  17
ATOM     17  C   UNL     1      -4.409  10.773  17.568  0.00  0.00    +0.000 C 
BRANCH  17  18
ATOM     18  N   UNL     1      -4.325  11.948  16.703  0.00  0.00    +0.000 NA
ATOM     19  H   UNL     1      -5.255  12.357  16.620  0.00  0.00    +0.000 HD
ATOM     20  H   UNL     1      -4.058  11.661  15.760  0.00  0.00    +0.000 HD
ENDBRANCH  17  18
ENDBRANCH  16  17
ENDBRANCH  15  16
ENDBRANCH  14  15
ENDBRANCH   1  14
BRANCH   3  21
ATOM     21  C   UNL     1       2.778   7.111  19.440  0.00  0.00    +0.000 C 
BRANCH  21  22
ATOM     22  C   UNL     1       2.773   5.799  18.661  0.00  0.00    +0.000 A 
ATOM     23  C   UNL     1       1.544   5.088  18.661  0.00  0.00    +0.000 A 
ATOM     24  C   UNL     1       1.383   3.889  17.972  0.00  0.00    +0.000 A 
ATOM     25  C   UNL     1       2.449   3.365  17.262  0.00  0.00    +0.000 A 
ATOM     26  C   UNL     1       3.673   4.035  17.270  0.00  0.00    +0.000 A 
ATOM     27  C   UNL     1       3.883   5.253  17.967  0.00  0.00    +0.000 A 
BRANCH  27  28
ATOM     28  C   UNL     1       5.255   5.821  17.938  0.00  0.00    +0.000 A 
ATOM     29  C   UNL     1       6.243   5.399  18.846  0.00  0.00    +0.000 A 
ATOM     30  C   UNL     1       7.481   6.037  18.916  0.00  0.00    +0.000 A 
ATOM     31  C   UNL     1       7.726   7.082  18.048  0.00  0.00    +0.000 A 
ATOM     32  N   UNL     1       6.833   7.515  17.137  0.00  0.00    +0.000 NA
ATOM     33  C   UNL     1       5.628   6.884  17.116  0.00  0.00    +0.000 A 
ENDBRANCH  27  28
ENDBRANCH  21  22
ENDBRANCH   3  21
TORSDOF 11
ENDMDL
