MODEL 1
REMARK VINA RESULT:      -7.8      0.000      0.000
REMARK  Name = 
REMARK  3 active torsions:
REMARK  status: ('A' for Active; 'I' for Inactive)
REMARK    1  A    between atoms: C_1  and  C_2
REMARK    2  A    between atoms: C_4  and  C_5
REMARK    3  A    between atoms: C_8  and  C_10
REMARK                            x       y       z     vdW  Elec       q    Type
REMARK                         _______ _______ _______ _____ _____    ______ ____
ROOT
ATOM      1  C   UNL     1      -0.781  12.052  18.883  0.00  0.00    +0.000 C 
ATOM      2  C   UNL     1      -0.732  12.536  20.347  0.00  0.00    +0.000 C 
ATOM      3  N   UNL     1      -0.332  11.533  21.336  0.00  0.00    +0.000 N 
ATOM      4  C   UNL     1      -0.763  11.491  22.667  0.00  0.00    +0.000 C 
ATOM      5  O   UNL     1      -0.371  10.637  23.463  0.00  0.00    +0.000 OA
ATOM      6  C   UNL     1       0.746  10.614  20.948  0.00  0.00    +0.000 C 
ATOM      7  C   UNL     1       0.585  10.036  19.547  0.00  0.00    +0.000 C 
ATOM      8  F   UNL     1      -0.458   9.174  19.486  0.00  0.00    +0.000 F 
ATOM      9  F   UNL     1       1.693   9.325  19.210  0.00  0.00    +0.000 F 
ATOM     10  C   UNL     1       0.388  11.132  18.524  0.00  0.00    +0.000 C 
ENDROOT
BRANCH   1  14
ATOM     11  C   UNL     1      -3.415  10.464  15.038  0.00  0.00    +0.000 C 
ATOM     12  C   UNL     1      -3.481  10.851  16.494  0.00  0.00    +0.000 A 
ATOM     13  C   UNL     1      -2.172  10.917  17.200  0.00  0.00    +0.000 A 
ATOM     14  C   UNL     1      -2.135  11.629  18.349  0.00  0.00    +0.000 A 
ATOM     15  N   UNL     1      -3.367  12.023  18.913  0.00  0.00    +0.000 N 
ATOM     16  N   UNL     1      -3.631  12.696  20.051  0.00  0.00    +0.000 NA
ATOM     17  C   UNL     1      -4.960  12.712  20.081  0.00  0.00    +0.000 A 
ATOM     18  N   UNL     1      -5.581  12.148  19.009  0.00  0.00    +0.000 NA
ATOM     19  C   UNL     1      -4.585  11.733  18.262  0.00  0.00    +0.000 A 
ATOM     20  N   UNL     1      -4.623  11.188  17.009  0.00  0.00    +0.000 NA
ENDBRANCH   1  14
BRANCH   4  21
ATOM     21  C   UNL     1      -1.738  12.487  23.181  0.00  0.00    +0.000 A 
ATOM     22  C   UNL     1      -3.054  12.066  23.426  0.00  0.00    +0.000 A 
ATOM     23  C   UNL     1      -4.010  12.980  23.874  0.00  0.00    +0.000 A 
ATOM     24  C   UNL     1      -3.645  14.308  24.073  0.00  0.00    +0.000 A 
ATOM     25  F   UNL     1      -4.569  15.196  24.462  0.00  0.00    +0.000 F 
ATOM     26  C   UNL     1      -2.333  14.727  23.885  0.00  0.00    +0.000 A 
ATOM     27  C   UNL     1      -1.370  13.806  23.476  0.00  0.00    +0.000 A 
ENDBRANCH   4  21
TORSDOF 2
ENDMDL
MODEL 2
REMARK VINA RESULT:      -7.6      3.271      5.623
REMARK  Name = 
REMARK  3 active torsions:
REMARK  status: ('A' for Active; 'I' for Inactive)
REMARK    1  A    between atoms: C_1  and  C_2
REMARK    2  A    between atoms: C_4  and  C_5
REMARK    3  A    between atoms: C_8  and  C_10
REMARK                            x       y       z     vdW  Elec       q    Type
REMARK                         _______ _______ _______ _____ _____    ______ ____
ROOT
ATOM      1  C   UNL     1      -2.543   9.800  17.814  0.00  0.00    +0.000 C 
ATOM      2  C   UNL     1      -4.000  10.140  18.194  0.00  0.00    +0.000 C 
ATOM      3  N   UNL     1      -4.688  11.075  17.302  0.00  0.00    +0.000 N 
ATOM      4  C   UNL     1      -5.687  11.978  17.688  0.00  0.00    +0.000 C 
ATOM      5  O   UNL     1      -6.251  12.723  16.887  0.00  0.00    +0.000 OA
ATOM      6  C   UNL     1      -4.440  10.922  15.862  0.00  0.00    +0.000 C 
ATOM      7  C   UNL     1      -2.969  10.738  15.510  0.00  0.00    +0.000 C 
ATOM      8  F   UNL     1      -2.265  11.875  15.724  0.00  0.00    +0.000 F 
ATOM      9  F   UNL     1      -2.843  10.450  14.188  0.00  0.00    +0.000 F 
ATOM     10  C   UNL     1      -2.353   9.611  16.307  0.00  0.00    +0.000 C 
ENDROOT
BRANCH   1  14
ATOM     11  C   UNL     1      -1.230  13.979  20.062  0.00  0.00    +0.000 C 
ATOM     12  C   UNL     1      -0.750  12.616  19.629  0.00  0.00    +0.000 A 
ATOM     13  C   UNL     1      -1.820  11.643  19.275  0.00  0.00    +0.000 A 
ATOM     14  C   UNL     1      -1.454  10.584  18.518  0.00  0.00    +0.000 A 
ATOM     15  N   UNL     1      -0.073  10.350  18.347  0.00  0.00    +0.000 N 
ATOM     16  N   UNL     1       0.571   9.366  17.687  0.00  0.00    +0.000 NA
ATOM     17  C   UNL     1       1.849   9.638  17.929  0.00  0.00    +0.000 A 
ATOM     18  N   UNL     1       2.086  10.766  18.653  0.00  0.00    +0.000 NA
ATOM     19  C   UNL     1       0.883  11.230  18.899  0.00  0.00    +0.000 A 
ATOM     20  N   UNL     1       0.523  12.404  19.498  0.00  0.00    +0.000 NA
ENDBRANCH   1  14
BRANCH   4  21
ATOM     21  C   UNL     1      -6.107  12.081  19.110  0.00  0.00    +0.000 A 
ATOM     22  C   UNL     1      -7.198  11.309  19.538  0.00  0.00    +0.000 A 
ATOM     23  C   UNL     1      -7.647  11.404  20.857  0.00  0.00    +0.000 A 
ATOM     24  C   UNL     1      -7.005  12.269  21.738  0.00  0.00    +0.000 A 
ATOM     25  F   UNL     1      -7.460  12.395  22.991  0.00  0.00    +0.000 F 
ATOM     26  C   UNL     1      -5.890  13.000  21.340  0.00  0.00    +0.000 A 
ATOM     27  C   UNL     1      -5.417  12.874  20.035  0.00  0.00    +0.000 A 
ENDBRANCH   4  21
TORSDOF 2
ENDMDL
MODEL 3
REMARK VINA RESULT:      -7.5      1.027      2.181
REMARK  Name = 
REMARK  3 active torsions:
REMARK  status: ('A' for Active; 'I' for Inactive)
REMARK    1  A    between atoms: C_1  and  C_2
REMARK    2  A    between atoms: C_4  and  C_5
REMARK    3  A    between atoms: C_8  and  C_10
REMARK                            x       y       z     vdW  Elec       q    Type
REMARK                         _______ _______ _______ _____ _____    ______ ____
ROOT
ATOM      1  C   UNL     1      -1.210  12.307  18.991  0.00  0.00    +0.000 C 
ATOM      2  C   UNL     1      -1.034  12.716  20.469  0.00  0.00    +0.000 C 
ATOM      3  N   UNL     1      -0.728  11.627  21.398  0.00  0.00    +0.000 N 
ATOM      4  C   UNL     1      -1.103  11.584  22.747  0.00  0.00    +0.000 C 
ATOM      5  O   UNL     1      -0.793  10.652  23.490  0.00  0.00    +0.000 OA
ATOM      6  C   UNL     1       0.200  10.592  20.924  0.00  0.00    +0.000 C 
ATOM      7  C   UNL     1      -0.097  10.102  19.512  0.00  0.00    +0.000 C 
ATOM      8  F   UNL     1      -1.247   9.388  19.470  0.00  0.00    +0.000 F 
ATOM      9  F   UNL     1       0.891   9.267  19.095  0.00  0.00    +0.000 F 
ATOM     10  C   UNL     1      -0.191  11.257  18.541  0.00  0.00    +0.000 C 
ENDROOT
BRANCH   1  14
ATOM     11  C   UNL     1      -5.960  11.775  20.176  0.00  0.00    +0.000 C 
ATOM     12  C   UNL     1      -4.978  11.817  19.032  0.00  0.00    +0.000 A 
ATOM     13  C   UNL     1      -3.643  12.391  19.353  0.00  0.00    +0.000 A 
ATOM     14  C   UNL     1      -2.631  12.088  18.509  0.00  0.00    +0.000 A 
ATOM     15  N   UNL     1      -2.965  11.485  17.278  0.00  0.00    +0.000 N 
ATOM     16  N   UNL     1      -2.181  11.114  16.246  0.00  0.00    +0.000 NA
ATOM     17  C   UNL     1      -3.060  10.668  15.355  0.00  0.00    +0.000 A 
ATOM     18  N   UNL     1      -4.360  10.667  15.758  0.00  0.00    +0.000 NA
ATOM     19  C   UNL     1      -4.304  11.158  16.974  0.00  0.00    +0.000 A 
ATOM     20  N   UNL     1      -5.305  11.281  17.896  0.00  0.00    +0.000 NA
ENDBRANCH   1  14
BRANCH   4  21
ATOM     21  C   UNL     1      -1.913  12.676  23.344  0.00  0.00    +0.000 A 
ATOM     22  C   UNL     1      -3.273  12.437  23.591  0.00  0.00    +0.000 A 
ATOM     23  C   UNL     1      -4.078  13.449  24.118  0.00  0.00    +0.000 A 
ATOM     24  C   UNL     1      -3.519  14.694  24.393  0.00  0.00    +0.000 A 
ATOM     25  F   UNL     1      -4.297  15.680  24.858  0.00  0.00    +0.000 F 
ATOM     26  C   UNL     1      -2.162  14.928  24.202  0.00  0.00    +0.000 A 
ATOM     27  C   UNL     1      -1.350  13.904  23.714  0.00  0.00    +0.000 A 
ENDBRANCH   4  21
TORSDOF 2
ENDMDL
MODEL 4
REMARK VINA RESULT:      -7.2      3.378      5.539
REMARK  Name = 
REMARK  3 active torsions:
REMARK  status: ('A' for Active; 'I' for Inactive)
REMARK    1  A    between atoms: C_1  and  C_2
REMARK    2  A    between atoms: C_4  and  C_5
REMARK    3  A    between atoms: C_8  and  C_10
REMARK                            x       y       z     vdW  Elec       q    Type
REMARK                         _______ _______ _______ _____ _____    ______ ____
ROOT
ATOM      1  C   UNL     1      -2.426  10.022  18.268  0.00  0.00    +0.000 C 
ATOM      2  C   UNL     1      -3.942  10.215  18.483  0.00  0.00    +0.000 C 
ATOM      3  N   UNL     1      -4.625  11.046  17.490  0.00  0.00    +0.000 N 
ATOM      4  C   UNL     1      -5.747  11.846  17.737  0.00  0.00    +0.000 C 
ATOM      5  O   UNL     1      -6.298  12.504  16.854  0.00  0.00    +0.000 OA
ATOM      6  C   UNL     1      -4.211  10.881  16.090  0.00  0.00    +0.000 C 
ATOM      7  C   UNL     1      -2.700  10.846  15.898  0.00  0.00    +0.000 C 
ATOM      8  F   UNL     1      -2.144  12.057  16.139  0.00  0.00    +0.000 F 
ATOM      9  F   UNL     1      -2.405  10.537  14.607  0.00  0.00    +0.000 F 
ATOM     10  C   UNL     1      -2.058   9.813  16.797  0.00  0.00    +0.000 C 
ENDROOT
BRANCH   1  14
ATOM     11  C   UNL     1      -0.162  14.387  18.537  0.00  0.00    +0.000 C 
ATOM     12  C   UNL     1      -0.364  13.064  19.233  0.00  0.00    +0.000 A 
ATOM     13  C   UNL     1      -1.520  12.258  18.756  0.00  0.00    +0.000 A 
ATOM     14  C   UNL     1      -1.505  10.938  19.049  0.00  0.00    +0.000 A 
ATOM     15  N   UNL     1      -0.550  10.488  19.986  0.00  0.00    +0.000 N 
ATOM     16  N   UNL     1      -0.332   9.256  20.489  0.00  0.00    +0.000 NA
ATOM     17  C   UNL     1       0.645   9.465  21.365  0.00  0.00    +0.000 A 
ATOM     18  N   UNL     1       1.121  10.738  21.426  0.00  0.00    +0.000 NA
ATOM     19  C   UNL     1       0.389  11.381  20.546  0.00  0.00    +0.000 A 
ATOM     20  N   UNL     1       0.507  12.671  20.112  0.00  0.00    +0.000 NA
ENDBRANCH   1  14
BRANCH   4  21
ATOM     21  C   UNL     1      -6.324  11.943  19.102  0.00  0.00    +0.000 A 
ATOM     22  C   UNL     1      -5.973  13.045  19.896  0.00  0.00    +0.000 A 
ATOM     23  C   UNL     1      -6.464  13.155  21.199  0.00  0.00    +0.000 A 
ATOM     24  C   UNL     1      -7.302  12.162  21.699  0.00  0.00    +0.000 A 
ATOM     25  F   UNL     1      -7.741  12.242  22.962  0.00  0.00    +0.000 F 
ATOM     26  C   UNL     1      -7.700  11.092  20.905  0.00  0.00    +0.000 A 
ATOM     27  C   UNL     1      -7.241  11.004  19.592  0.00  0.00    +0.000 A 
ENDBRANCH   4  21
TORSDOF 2
ENDMDL
MODEL 5
REMARK VINA RESULT:      -7.1      9.189     12.712
REMARK  Name = 
REMARK  3 active torsions:
REMARK  status: ('A' for Active; 'I' for Inactive)
REMARK    1  A    between atoms: C_1  and  C_2
REMARK    2  A    between atoms: C_4  and  C_5
REMARK    3  A    between atoms: C_8  and  C_10
REMARK                            x       y       z     vdW  Elec       q    Type
REMARK                         _______ _______ _______ _____ _____    ______ ____
ROOT
ATOM      1  C   UNL     1       5.633   4.121  17.625  0.00  0.00    +0.000 C 
ATOM      2  C   UNL     1       6.254   3.767  16.257  0.00  0.00    +0.000 C 
ATOM      3  N   UNL     1       7.031   4.831  15.617  0.00  0.00    +0.000 N 
ATOM      4  C   UNL     1       7.166   5.015  14.236  0.00  0.00    +0.000 C 
ATOM      5  O   UNL     1       7.856   5.913  13.752  0.00  0.00    +0.000 OA
ATOM      6  C   UNL     1       7.878   5.652  16.492  0.00  0.00    +0.000 C 
ATOM      7  C   UNL     1       7.180   6.110  17.767  0.00  0.00    +0.000 C 
ATOM      8  F   UNL     1       6.213   7.019  17.499  0.00  0.00    +0.000 F 
ATOM      9  F   UNL     1       8.073   6.727  18.586  0.00  0.00    +0.000 F 
ATOM     10  C   UNL     1       6.576   4.941  18.510  0.00  0.00    +0.000 C 
ENDROOT
BRANCH   1  14
ATOM     11  C   UNL     1       2.438   7.843  18.056  0.00  0.00    +0.000 C 
ATOM     12  C   UNL     1       2.568   6.358  17.828  0.00  0.00    +0.000 A 
ATOM     13  C   UNL     1       3.926   5.885  17.444  0.00  0.00    +0.000 A 
ATOM     14  C   UNL     1       4.185   4.569  17.621  0.00  0.00    +0.000 A 
ATOM     15  N   UNL     1       3.093   3.721  17.901  0.00  0.00    +0.000 N 
ATOM     16  N   UNL     1       3.049   2.385  18.085  0.00  0.00    +0.000 NA
ATOM     17  C   UNL     1       1.751   2.155  18.249  0.00  0.00    +0.000 A 
ATOM     18  N   UNL     1       0.950   3.255  18.245  0.00  0.00    +0.000 NA
ATOM     19  C   UNL     1       1.790   4.244  18.049  0.00  0.00    +0.000 A 
ATOM     20  N   UNL     1       1.550   5.589  18.065  0.00  0.00    +0.000 NA
ENDBRANCH   1  14
BRANCH   4  21
ATOM     21  C   UNL     1       6.463   4.123  13.279  0.00  0.00    +0.000 A 
ATOM     22  C   UNL     1       7.235   3.293  12.451  0.00  0.00    +0.000 A 
ATOM     23  C   UNL     1       6.614   2.466  11.513  0.00  0.00    +0.000 A 
ATOM     24  C   UNL     1       5.226   2.474  11.407  0.00  0.00    +0.000 A 
ATOM     25  F   UNL     1       4.629   1.714  10.480  0.00  0.00    +0.000 F 
ATOM     26  C   UNL     1       4.447   3.252  12.257  0.00  0.00    +0.000 A 
ATOM     27  C   UNL     1       5.065   4.047  13.221  0.00  0.00    +0.000 A 
ENDBRANCH   4  21
TORSDOF 2
ENDMDL
MODEL 6
REMARK VINA RESULT:      -7.1      2.925      3.880
REMARK  Name = 
REMARK  3 active torsions:
REMARK  status: ('A' for Active; 'I' for Inactive)
REMARK    1  A    between atoms: C_1  and  C_2
REMARK    2  A    between atoms: C_4  and  C_5
REMARK    3  A    between atoms: C_8  and  C_10
REMARK                            x       y       z     vdW  Elec       q    Type
REMARK                         _______ _______ _______ _____ _____    ______ ____
ROOT
ATOM      1  C   UNL     1       0.192  10.606  18.601  0.00  0.00    +0.000 C 
ATOM      2  C   UNL     1       0.861  11.960  18.920  0.00  0.00    +0.000 C 
ATOM      3  N   UNL     1       0.934  12.314  20.339  0.00  0.00    +0.000 N 
ATOM      4  C   UNL     1       0.906  13.617  20.851  0.00  0.00    +0.000 C 
ATOM      5  O   UNL     1       0.999  13.857  22.055  0.00  0.00    +0.000 OA
ATOM      6  C   UNL     1       1.246  11.229  21.278  0.00  0.00    +0.000 C 
ATOM      7  C   UNL     1       0.454   9.952  21.025  0.00  0.00    +0.000 C 
ATOM      8  F   UNL     1      -0.856  10.117  21.324  0.00  0.00    +0.000 F 
ATOM      9  F   UNL     1       0.911   8.957  21.830  0.00  0.00    +0.000 F 
ATOM     10  C   UNL     1       0.586   9.503  19.587  0.00  0.00    +0.000 C 
ENDROOT
BRANCH   1  14
ATOM     11  C   UNL     1      -3.189   9.908  15.091  0.00  0.00    +0.000 C 
ATOM     12  C   UNL     1      -2.978  10.322  16.526  0.00  0.00    +0.000 A 
ATOM     13  C   UNL     1      -1.655   9.964  17.108  0.00  0.00    +0.000 A 
ATOM     14  C   UNL     1      -1.273  10.644  18.213  0.00  0.00    +0.000 A 
ATOM     15  N   UNL     1      -2.244  11.433  18.863  0.00  0.00    +0.000 N 
ATOM     16  N   UNL     1      -2.158  12.176  19.985  0.00  0.00    +0.000 NA
ATOM     17  C   UNL     1      -3.398  12.630  20.133  0.00  0.00    +0.000 A 
ATOM     18  N   UNL     1      -4.274  12.284  19.151  0.00  0.00    +0.000 NA
ATOM     19  C   UNL     1      -3.550  11.550  18.339  0.00  0.00    +0.000 A 
ATOM     20  N   UNL     1      -3.889  11.026  17.124  0.00  0.00    +0.000 NA
ENDBRANCH   1  14
BRANCH   4  21
ATOM     21  C   UNL     1       0.751  14.784  19.946  0.00  0.00    +0.000 A 
ATOM     22  C   UNL     1       1.908  15.364  19.403  0.00  0.00    +0.000 A 
ATOM     23  C   UNL     1       1.808  16.485  18.576  0.00  0.00    +0.000 A 
ATOM     24  C   UNL     1       0.554  17.020  18.299  0.00  0.00    +0.000 A 
ATOM     25  F   UNL     1       0.457  18.120  17.541  0.00  0.00    +0.000 F 
ATOM     26  C   UNL     1      -0.604  16.424  18.787  0.00  0.00    +0.000 A 
ATOM     27  C   UNL     1      -0.506  15.281  19.579  0.00  0.00    +0.000 A 
ENDBRANCH   4  21
TORSDOF 2
ENDMDL
MODEL 7
REMARK VINA RESULT:      -7.0      3.180      4.860
REMARK  Name = 
REMARK  3 active torsions:
REMARK  status: ('A' for Active; 'I' for Inactive)
REMARK    1  A    between atoms: C_1  and  C_2
REMARK    2  A    between atoms: C_4  and  C_5
REMARK    3  A    between atoms: C_8  and  C_10
REMARK                            x       y       z     vdW  Elec       q    Type
REMARK                         _______ _______ _______ _____ _____    ______ ____
ROOT
ATOM      1  C   UNL     1      -0.255  11.992  19.145  0.00  0.00    +0.000 C 
ATOM      2  C   UNL     1      -1.237  12.900  19.915  0.00  0.00    +0.000 C 
ATOM      3  N   UNL     1      -0.626  13.959  20.720  0.00  0.00    +0.000 N 
ATOM      4  C   UNL     1      -1.155  14.483  21.906  0.00  0.00    +0.000 C 
ATOM      5  O   UNL     1      -0.610  15.394  22.529  0.00  0.00    +0.000 OA
ATOM      6  C   UNL     1       0.535  14.647  20.140  0.00  0.00    +0.000 C 
ATOM      7  C   UNL     1       1.559  13.705  19.520  0.00  0.00    +0.000 C 
ATOM      8  F   UNL     1       2.199  12.980  20.468  0.00  0.00    +0.000 F 
ATOM      9  F   UNL     1       2.515  14.423  18.873  0.00  0.00    +0.000 F 
ATOM     10  C   UNL     1       0.910  12.768  18.527  0.00  0.00    +0.000 C 
ENDROOT
BRANCH   1  14
ATOM     11  C   UNL     1       0.143   9.395  23.310  0.00  0.00    +0.000 C 
ATOM     12  C   UNL     1       0.329   9.350  21.814  0.00  0.00    +0.000 A 
ATOM     13  C   UNL     1      -0.343  10.438  21.052  0.00  0.00    +0.000 A 
ATOM     14  C   UNL     1       0.110  10.674  19.799  0.00  0.00    +0.000 A 
ATOM     15  N   UNL     1       0.984   9.724  19.232  0.00  0.00    +0.000 N 
ATOM     16  N   UNL     1       1.553   9.680  18.010  0.00  0.00    +0.000 NA
ATOM     17  C   UNL     1       2.215   8.528  18.035  0.00  0.00    +0.000 A 
ATOM     18  N   UNL     1       2.166   7.844  19.210  0.00  0.00    +0.000 NA
ATOM     19  C   UNL     1       1.412   8.601  19.973  0.00  0.00    +0.000 A 
ATOM     20  N   UNL     1       1.117   8.457  21.299  0.00  0.00    +0.000 NA
ENDBRANCH   1  14
BRANCH   4  21
ATOM     21  C   UNL     1      -2.416  13.943  22.477  0.00  0.00    +0.000 A 
ATOM     22  C   UNL     1      -3.622  14.579  22.145  0.00  0.00    +0.000 A 
ATOM     23  C   UNL     1      -4.826  14.125  22.689  0.00  0.00    +0.000 A 
ATOM     24  C   UNL     1      -4.816  13.042  23.562  0.00  0.00    +0.000 A 
ATOM     25  F   UNL     1      -5.962  12.631  24.119  0.00  0.00    +0.000 F 
ATOM     26  C   UNL     1      -3.635  12.370  23.858  0.00  0.00    +0.000 A 
ATOM     27  C   UNL     1      -2.439  12.798  23.283  0.00  0.00    +0.000 A 
ENDBRANCH   4  21
TORSDOF 2
ENDMDL
MODEL 8
REMARK VINA RESULT:      -7.0      3.249      4.745
REMARK  Name = 
REMARK  3 active torsions:
REMARK  status: ('A' for Active; 'I' for Inactive)
REMARK    1  A    between atoms: C_1  and  C_2
REMARK    2  A    between atoms: C_4  and  C_5
REMARK    3  A    between atoms: C_8  and  C_10
REMARK                            x       y       z     vdW  Elec       q    Type
REMARK                         _______ _______ _______ _____ _____    ______ ____
ROOT
ATOM      1  C   UNL     1      -0.488  11.197  18.628  0.00  0.00    +0.000 C 
ATOM      2  C   UNL     1       0.554  12.329  18.757  0.00  0.00    +0.000 C 
ATOM      3  N   UNL     1       0.960  12.666  20.122  0.00  0.00    +0.000 N 
ATOM      4  C   UNL     1       1.359  13.935  20.559  0.00  0.00    +0.000 C 
ATOM      5  O   UNL     1       1.718  14.155  21.716  0.00  0.00    +0.000 OA
ATOM      6  C   UNL     1       1.138  11.546  21.057  0.00  0.00    +0.000 C 
ATOM      7  C   UNL     1       0.010  10.523  21.008  0.00  0.00    +0.000 C 
ATOM      8  F   UNL     1      -1.140  11.032  21.508  0.00  0.00    +0.000 F 
ATOM      9  F   UNL     1       0.326   9.451  21.782  0.00  0.00    +0.000 F 
ATOM     10  C   UNL     1      -0.229  10.040  19.595  0.00  0.00    +0.000 C 
ENDROOT
BRANCH   1  14
ATOM     11  C   UNL     1      -4.623  12.674  20.855  0.00  0.00    +0.000 C 
ATOM     12  C   UNL     1      -3.999  12.342  19.523  0.00  0.00    +0.000 A 
ATOM     13  C   UNL     1      -2.511  12.286  19.509  0.00  0.00    +0.000 A 
ATOM     14  C   UNL     1      -1.937  11.618  18.483  0.00  0.00    +0.000 A 
ATOM     15  N   UNL     1      -2.760  11.260  17.394  0.00  0.00    +0.000 N 
ATOM     16  N   UNL     1      -2.458  10.634  16.239  0.00  0.00    +0.000 NA
ATOM     17  C   UNL     1      -3.618  10.636  15.591  0.00  0.00    +0.000 A 
ATOM     18  N   UNL     1      -4.672  11.167  16.269  0.00  0.00    +0.000 NA
ATOM     19  C   UNL     1      -4.143  11.541  17.411  0.00  0.00    +0.000 A 
ATOM     20  N   UNL     1      -4.765  12.039  18.521  0.00  0.00    +0.000 NA
ENDBRANCH   1  14
BRANCH   4  21
ATOM     21  C   UNL     1       1.358  15.092  19.627  0.00  0.00    +0.000 A 
ATOM     22  C   UNL     1       2.545  15.399  18.945  0.00  0.00    +0.000 A 
ATOM     23  C   UNL     1       2.596  16.501  18.088  0.00  0.00    +0.000 A 
ATOM     24  C   UNL     1       1.461  17.288  17.919  0.00  0.00    +0.000 A 
ATOM     25  F   UNL     1       1.518  18.370  17.132  0.00  0.00    +0.000 F 
ATOM     26  C   UNL     1       0.264  16.965  18.548  0.00  0.00    +0.000 A 
ATOM     27  C   UNL     1       0.202  15.841  19.372  0.00  0.00    +0.000 A 
ENDBRANCH   4  21
TORSDOF 2
ENDMDL
MODEL 9
REMARK VINA RESULT:      -7.0      3.301      4.914
REMARK  Name = 
REMARK  3 active torsions:
REMARK  status: ('A' for Active; 'I' for Inactive)
REMARK    1  A    between atoms: C_1  and  C_2
REMARK    2  A    between atoms: C_4  and  C_5
REMARK    3  A    between atoms: C_8  and  C_10
REMARK                            x       y       z     vdW  Elec       q    Type
REMARK                         _______ _______ _______ _____ _____    ______ ____
ROOT
ATOM      1  C   UNL     1       0.160  12.032  19.036  0.00  0.00    +0.000 C 
ATOM      2  C   UNL     1      -0.832  12.988  19.732  0.00  0.00    +0.000 C 
ATOM      3  N   UNL     1      -0.234  13.997  20.608  0.00  0.00    +0.000 N 
ATOM      4  C   UNL     1      -0.836  14.536  21.752  0.00  0.00    +0.000 C 
ATOM      5  O   UNL     1      -0.296  15.404  22.438  0.00  0.00    +0.000 OA
ATOM      6  C   UNL     1       1.013  14.621  20.147  0.00  0.00    +0.000 C 
ATOM      7  C   UNL     1       2.032  13.627  19.603  0.00  0.00    +0.000 C 
ATOM      8  F   UNL     1       2.539  12.852  20.591  0.00  0.00    +0.000 F 
ATOM      9  F   UNL     1       3.083  14.295  19.058  0.00  0.00    +0.000 F 
ATOM     10  C   UNL     1       1.420  12.745  18.539  0.00  0.00    +0.000 C 
ENDROOT
BRANCH   1  14
ATOM     11  C   UNL     1       0.174   9.397  23.195  0.00  0.00    +0.000 C 
ATOM     12  C   UNL     1       0.414   9.342  21.707  0.00  0.00    +0.000 A 
ATOM     13  C   UNL     1      -0.134  10.485  20.927  0.00  0.00    +0.000 A 
ATOM     14  C   UNL     1       0.386  10.686  19.694  0.00  0.00    +0.000 A 
ATOM     15  N   UNL     1       1.199   9.667  19.155  0.00  0.00    +0.000 N 
ATOM     16  N   UNL     1       1.809   9.579  17.955  0.00  0.00    +0.000 NA
ATOM     17  C   UNL     1       2.369   8.375  17.998  0.00  0.00    +0.000 A 
ATOM     18  N   UNL     1       2.216   7.694  19.166  0.00  0.00    +0.000 NA
ATOM     19  C   UNL     1       1.500   8.510  19.905  0.00  0.00    +0.000 A 
ATOM     20  N   UNL     1       1.142   8.386  21.217  0.00  0.00    +0.000 NA
ENDBRANCH   1  14
BRANCH   4  21
ATOM     21  C   UNL     1      -2.173  14.066  22.197  0.00  0.00    +0.000 A 
ATOM     22  C   UNL     1      -2.235  12.992  23.099  0.00  0.00    +0.000 A 
ATOM     23  C   UNL     1      -3.472  12.497  23.514  0.00  0.00    +0.000 A 
ATOM     24  C   UNL     1      -4.640  13.075  23.025  0.00  0.00    +0.000 A 
ATOM     25  F   UNL     1      -5.828  12.575  23.388  0.00  0.00    +0.000 F 
ATOM     26  C   UNL     1      -4.593  14.173  22.173  0.00  0.00    +0.000 A 
ATOM     27  C   UNL     1      -3.357  14.693  21.790  0.00  0.00    +0.000 A 
ENDBRANCH   4  21
TORSDOF 2
ENDMDL
