MODEL 1
REMARK VINA RESULT:      -6.2      0.000      0.000
REMARK  Name = 
REMARK  16 active torsions:
REMARK  status: ('A' for Active; 'I' for Inactive)
REMARK    1  A    between atoms: C_4  and  O_5
REMARK    2  A    between atoms: C_8  and  N_9
REMARK    3  A    between atoms: N_9  and  C_10
REMARK    4  A    between atoms: C_10  and  C_11
REMARK    5  A    between atoms: C_11  and  N_12
REMARK    6  A    between atoms: N_12  and  C_13
REMARK    7  A    between atoms: C_13  and  C_14
REMARK    8  A    between atoms: C_14  and  O_15
REMARK    9  A    between atoms: C_20  and  N_21
REMARK   10  A    between atoms: N_21  and  C_22
REMARK   11  A    between atoms: C_22  and  C_23
REMARK   12  A    between atoms: C_23  and  N_24
REMARK   13  A    between atoms: N_24  and  C_25
REMARK   14  A    between atoms: C_25  and  C_26
REMARK   15  A    between atoms: C_26  and  O_27
REMARK   16  A    between atoms: C_30  and  O_31
REMARK                            x       y       z     vdW  Elec       q    Type
REMARK                         _______ _______ _______ _____ _____    ______ ____
ROOT
ATOM      1  O   UNL     1       3.623   1.998  17.343  0.00  0.00    +0.000 OA
ATOM      2  C   UNL     1       3.785   3.191  17.624  0.00  0.00    +0.000 C 
ATOM      3  C   UNL     1       2.865   3.770  18.619  0.00  0.00    +0.000 A 
ATOM      4  C   UNL     1       1.871   2.972  19.209  0.00  0.00    +0.000 A 
ATOM      5  C   UNL     1       1.002   3.496  20.155  0.00  0.00    +0.000 A 
ATOM      6  C   UNL     1       1.131   4.827  20.539  0.00  0.00    +0.000 A 
ATOM      7  C   UNL     1       2.103   5.664  19.968  0.00  0.00    +0.000 A 
ATOM      8  C   UNL     1       2.980   5.115  18.987  0.00  0.00    +0.000 A 
ATOM      9  C   UNL     1       4.023   5.958  18.334  0.00  0.00    +0.000 C 
ATOM     10  O   UNL     1       4.050   7.166  18.570  0.00  0.00    +0.000 OA
ATOM     11  C   UNL     1       5.011   5.372  17.379  0.00  0.00    +0.000 A 
ATOM     12  C   UNL     1       6.039   6.160  16.792  0.00  0.00    +0.000 A 
ATOM     13  C   UNL     1       6.895   5.542  15.863  0.00  0.00    +0.000 A 
ATOM     14  C   UNL     1       6.740   4.218  15.485  0.00  0.00    +0.000 A 
ATOM     15  C   UNL     1       5.728   3.464  16.057  0.00  0.00    +0.000 A 
ATOM     16  C   UNL     1       4.861   4.015  17.012  0.00  0.00    +0.000 A 
ENDROOT
BRANCH  15  17
ATOM     17  O   UNL     1       5.606   2.159  15.642  0.00  0.00    +0.000 OA
ATOM     18  H   UNL     1       6.481   1.728  15.621  0.00  0.00    +0.000 HD
ENDBRANCH  15  17
BRANCH  12  19
ATOM     19  N   UNL     1       6.196   7.536  17.052  0.00  0.00    +0.000 N 
ATOM     20  H   UNL     1       5.457   7.919  17.646  0.00  0.00    +0.000 HD
BRANCH  19  21
ATOM     21  C   UNL     1       7.539   8.081  17.231  0.00  0.00    +0.000 C 
BRANCH  21  22
ATOM     22  C   UNL     1       8.237   7.673  18.539  0.00  0.00    +0.000 C 
BRANCH  22  23
ATOM     23  N   UNL     1       8.905   8.875  19.087  0.00  0.00    +0.000 NA
ATOM     24  H   UNL     1       9.905   8.678  19.127  0.00  0.00    +0.000 HD
BRANCH  23  25
ATOM     25  C   UNL     1       8.700  10.047  18.224  0.00  0.00    +0.000 C 
BRANCH  25  26
ATOM     26  C   UNL     1       9.816  11.084  18.424  0.00  0.00    +0.000 C 
BRANCH  26  27
ATOM     27  O   UNL     1       9.445  12.343  17.865  0.00  0.00    +0.000 OA
ATOM     28  H   UNL     1      10.015  13.007  18.288  0.00  0.00    +0.000 HD
ENDBRANCH  26  27
ENDBRANCH  25  26
ENDBRANCH  23  25
ENDBRANCH  22  23
ENDBRANCH  21  22
ENDBRANCH  19  21
ENDBRANCH  12  19
BRANCH   7  29
ATOM     29  N   UNL     1       2.289   6.956  20.442  0.00  0.00    +0.000 N 
ATOM     30  H   UNL     1       3.005   7.494  19.931  0.00  0.00    +0.000 HD
BRANCH  29  31
ATOM     31  C   UNL     1       1.285   7.756  21.121  0.00  0.00    +0.000 C 
BRANCH  31  32
ATOM     32  C   UNL     1       0.863   8.953  20.241  0.00  0.00    +0.000 C 
BRANCH  32  33
ATOM     33  N   UNL     1       1.673   9.016  19.013  0.00  0.00    +0.000 NA
ATOM     34  H   UNL     1       1.659   8.094  18.581  0.00  0.00    +0.000 HD
BRANCH  33  35
ATOM     35  C   UNL     1       1.141  10.008  18.070  0.00  0.00    +0.000 C 
BRANCH  35  36
ATOM     36  C   UNL     1       0.089  10.886  18.758  0.00  0.00    +0.000 C 
BRANCH  36  37
ATOM     37  O   UNL     1       0.556  12.231  18.860  0.00  0.00    +0.000 OA
ATOM     38  H   UNL     1       1.453  12.226  18.486  0.00  0.00    +0.000 HD
ENDBRANCH  36  37
ENDBRANCH  35  36
ENDBRANCH  33  35
ENDBRANCH  32  33
ENDBRANCH  31  32
ENDBRANCH  29  31
ENDBRANCH   7  29
BRANCH   4  39
ATOM     39  O   UNL     1       1.685   1.644  18.918  0.00  0.00    +0.000 OA
ATOM     40  H   UNL     1       0.779   1.393  19.219  0.00  0.00    +0.000 HD
ENDBRANCH   4  39
TORSDOF 16
ENDMDL
MODEL 2
REMARK VINA RESULT:      -6.1      1.073      1.177
REMARK  Name = 
REMARK  16 active torsions:
REMARK  status: ('A' for Active; 'I' for Inactive)
REMARK    1  A    between atoms: C_4  and  O_5
REMARK    2  A    between atoms: C_8  and  N_9
REMARK    3  A    between atoms: N_9  and  C_10
REMARK    4  A    between atoms: C_10  and  C_11
REMARK    5  A    between atoms: C_11  and  N_12
REMARK    6  A    between atoms: N_12  and  C_13
REMARK    7  A    between atoms: C_13  and  C_14
REMARK    8  A    between atoms: C_14  and  O_15
REMARK    9  A    between atoms: C_20  and  N_21
REMARK   10  A    between atoms: N_21  and  C_22
REMARK   11  A    between atoms: C_22  and  C_23
REMARK   12  A    between atoms: C_23  and  N_24
REMARK   13  A    between atoms: N_24  and  C_25
REMARK   14  A    between atoms: C_25  and  C_26
REMARK   15  A    between atoms: C_26  and  O_27
REMARK   16  A    between atoms: C_30  and  O_31
REMARK                            x       y       z     vdW  Elec       q    Type
REMARK                         _______ _______ _______ _____ _____    ______ ____
ROOT
ATOM      1  O   UNL     1       3.628   2.096  17.270  0.00  0.00    +0.000 OA
ATOM      2  C   UNL     1       3.811   3.281  17.572  0.00  0.00    +0.000 C 
ATOM      3  C   UNL     1       2.871   3.872  18.540  0.00  0.00    +0.000 A 
ATOM      4  C   UNL     1       1.836   3.094  19.085  0.00  0.00    +0.000 A 
ATOM      5  C   UNL     1       0.947   3.630  20.005  0.00  0.00    +0.000 A 
ATOM      6  C   UNL     1       1.097   4.953  20.410  0.00  0.00    +0.000 A 
ATOM      7  C   UNL     1       2.110   5.771  19.883  0.00  0.00    +0.000 A 
ATOM      8  C   UNL     1       3.007   5.210  18.927  0.00  0.00    +0.000 A 
ATOM      9  C   UNL     1       4.094   6.033  18.322  0.00  0.00    +0.000 C 
ATOM     10  O   UNL     1       4.143   7.237  18.573  0.00  0.00    +0.000 OA
ATOM     11  C   UNL     1       5.100   5.432  17.395  0.00  0.00    +0.000 A 
ATOM     12  C   UNL     1       6.168   6.199  16.856  0.00  0.00    +0.000 A 
ATOM     13  C   UNL     1       7.041   5.569  15.950  0.00  0.00    +0.000 A 
ATOM     14  C   UNL     1       6.866   4.254  15.551  0.00  0.00    +0.000 A 
ATOM     15  C   UNL     1       5.814   3.520  16.077  0.00  0.00    +0.000 A 
ATOM     16  C   UNL     1       4.929   4.084  17.008  0.00  0.00    +0.000 A 
ENDROOT
BRANCH  15  17
ATOM     17  O   UNL     1       5.674   2.224  15.643  0.00  0.00    +0.000 OA
ATOM     18  H   UNL     1       5.356   1.657  16.371  0.00  0.00    +0.000 HD
ENDBRANCH  15  17
BRANCH  12  19
ATOM     19  N   UNL     1       6.351   7.568  17.137  0.00  0.00    +0.000 N 
ATOM     20  H   UNL     1       5.511   8.016  17.511  0.00  0.00    +0.000 HD
BRANCH  19  21
ATOM     21  C   UNL     1       7.635   8.024  17.661  0.00  0.00    +0.000 C 
BRANCH  21  22
ATOM     22  C   UNL     1       7.746   9.543  17.878  0.00  0.00    +0.000 C 
BRANCH  22  23
ATOM     23  N   UNL     1       9.039   9.809  18.548  0.00  0.00    +0.000 NA
ATOM     24  H   UNL     1       9.777   9.448  17.943  0.00  0.00    +0.000 HD
BRANCH  23  25
ATOM     25  C   UNL     1       9.263  11.248  18.739  0.00  0.00    +0.000 C 
BRANCH  25  26
ATOM     26  C   UNL     1       9.563  11.572  20.211  0.00  0.00    +0.000 C 
BRANCH  26  27
ATOM     27  O   UNL     1       9.380  10.420  21.032  0.00  0.00    +0.000 OA
ATOM     28  H   UNL     1       8.771  10.686  21.742  0.00  0.00    +0.000 HD
ENDBRANCH  26  27
ENDBRANCH  25  26
ENDBRANCH  23  25
ENDBRANCH  22  23
ENDBRANCH  21  22
ENDBRANCH  19  21
ENDBRANCH  12  19
BRANCH   7  29
ATOM     29  N   UNL     1       2.312   7.052  20.379  0.00  0.00    +0.000 N 
ATOM     30  H   UNL     1       3.012   7.601  19.858  0.00  0.00    +0.000 HD
BRANCH  29  31
ATOM     31  C   UNL     1       1.331   7.838  21.107  0.00  0.00    +0.000 C 
BRANCH  31  32
ATOM     32  C   UNL     1       1.496   9.340  20.786  0.00  0.00    +0.000 C 
BRANCH  32  33
ATOM     33  N   UNL     1       0.770   9.698  19.556  0.00  0.00    +0.000 NA
ATOM     34  H   UNL     1       0.593   8.841  19.035  0.00  0.00    +0.000 HD
BRANCH  33  35
ATOM     35  C   UNL     1      -0.505  10.359  19.860  0.00  0.00    +0.000 C 
BRANCH  35  36
ATOM     36  C   UNL     1      -1.421  10.339  18.632  0.00  0.00    +0.000 C 
BRANCH  36  37
ATOM     37  O   UNL     1      -0.662  10.088  17.450  0.00  0.00    +0.000 OA
ATOM     38  H   UNL     1       0.233   9.862  17.756  0.00  0.00    +0.000 HD
ENDBRANCH  36  37
ENDBRANCH  35  36
ENDBRANCH  33  35
ENDBRANCH  32  33
ENDBRANCH  31  32
ENDBRANCH  29  31
ENDBRANCH   7  29
BRANCH   4  39
ATOM     39  O   UNL     1       1.626   1.775  18.772  0.00  0.00    +0.000 OA
ATOM     40  H   UNL     1       1.992   1.617  17.869  0.00  0.00    +0.000 HD
ENDBRANCH   4  39
TORSDOF 16
ENDMDL
MODEL 3
REMARK VINA RESULT:      -6.0      1.381      1.494
REMARK  Name = 
REMARK  16 active torsions:
REMARK  status: ('A' for Active; 'I' for Inactive)
REMARK    1  A    between atoms: C_4  and  O_5
REMARK    2  A    between atoms: C_8  and  N_9
REMARK    3  A    between atoms: N_9  and  C_10
REMARK    4  A    between atoms: C_10  and  C_11
REMARK    5  A    between atoms: C_11  and  N_12
REMARK    6  A    between atoms: N_12  and  C_13
REMARK    7  A    between atoms: C_13  and  C_14
REMARK    8  A    between atoms: C_14  and  O_15
REMARK    9  A    between atoms: C_20  and  N_21
REMARK   10  A    between atoms: N_21  and  C_22
REMARK   11  A    between atoms: C_22  and  C_23
REMARK   12  A    between atoms: C_23  and  N_24
REMARK   13  A    between atoms: N_24  and  C_25
REMARK   14  A    between atoms: C_25  and  C_26
REMARK   15  A    between atoms: C_26  and  O_27
REMARK   16  A    between atoms: C_30  and  O_31
REMARK                            x       y       z     vdW  Elec       q    Type
REMARK                         _______ _______ _______ _____ _____    ______ ____
ROOT
ATOM      1  O   UNL     1       3.558   2.115  17.164  0.00  0.00    +0.000 OA
ATOM      2  C   UNL     1       3.775   3.284  17.503  0.00  0.00    +0.000 C 
ATOM      3  C   UNL     1       2.862   3.866  18.502  0.00  0.00    +0.000 A 
ATOM      4  C   UNL     1       1.813   3.096  19.033  0.00  0.00    +0.000 A 
ATOM      5  C   UNL     1       0.949   3.623  19.982  0.00  0.00    +0.000 A 
ATOM      6  C   UNL     1       1.138   4.927  20.429  0.00  0.00    +0.000 A 
ATOM      7  C   UNL     1       2.165   5.736  19.918  0.00  0.00    +0.000 A 
ATOM      8  C   UNL     1       3.037   5.186  18.933  0.00  0.00    +0.000 A 
ATOM      9  C   UNL     1       4.138   6.001  18.342  0.00  0.00    +0.000 C 
ATOM     10  O   UNL     1       4.221   7.193  18.633  0.00  0.00    +0.000 OA
ATOM     11  C   UNL     1       5.117   5.406  17.384  0.00  0.00    +0.000 A 
ATOM     12  C   UNL     1       6.199   6.164  16.857  0.00  0.00    +0.000 A 
ATOM     13  C   UNL     1       7.045   5.543  15.920  0.00  0.00    +0.000 A 
ATOM     14  C   UNL     1       6.831   4.247  15.479  0.00  0.00    +0.000 A 
ATOM     15  C   UNL     1       5.767   3.523  15.993  0.00  0.00    +0.000 A 
ATOM     16  C   UNL     1       4.907   4.077  16.953  0.00  0.00    +0.000 A 
ENDROOT
BRANCH  15  17
ATOM     17  O   UNL     1       5.588   2.245  15.517  0.00  0.00    +0.000 OA
ATOM     18  H   UNL     1       6.442   1.773  15.490  0.00  0.00    +0.000 HD
ENDBRANCH  15  17
BRANCH  12  19
ATOM     19  N   UNL     1       6.420   7.517  17.182  0.00  0.00    +0.000 N 
ATOM     20  H   UNL     1       5.584   7.985  17.538  0.00  0.00    +0.000 HD
BRANCH  19  21
ATOM     21  C   UNL     1       7.700   7.912  17.764  0.00  0.00    +0.000 C 
BRANCH  21  22
ATOM     22  C   UNL     1       7.981   9.424  17.750  0.00  0.00    +0.000 C 
BRANCH  22  23
ATOM     23  N   UNL     1       8.942   9.713  18.839  0.00  0.00    +0.000 NA
ATOM     24  H   UNL     1       9.785   9.169  18.654  0.00  0.00    +0.000 HD
BRANCH  23  25
ATOM     25  C   UNL     1       9.309  11.135  18.872  0.00  0.00    +0.000 C 
BRANCH  25  26
ATOM     26  C   UNL     1      10.250  11.438  20.048  0.00  0.00    +0.000 C 
BRANCH  26  27
ATOM     27  O   UNL     1       9.658  12.378  20.942  0.00  0.00    +0.000 OA
ATOM     28  H   UNL     1       9.784  12.019  21.837  0.00  0.00    +0.000 HD
ENDBRANCH  26  27
ENDBRANCH  25  26
ENDBRANCH  23  25
ENDBRANCH  22  23
ENDBRANCH  21  22
ENDBRANCH  19  21
ENDBRANCH  12  19
BRANCH   7  29
ATOM     29  N   UNL     1       2.406   6.994  20.453  0.00  0.00    +0.000 N 
ATOM     30  H   UNL     1       3.140   7.528  19.965  0.00  0.00    +0.000 HD
BRANCH  29  31
ATOM     31  C   UNL     1       1.439   7.799  21.179  0.00  0.00    +0.000 C 
BRANCH  31  32
ATOM     32  C   UNL     1       1.054   9.051  20.359  0.00  0.00    +0.000 C 
BRANCH  32  33
ATOM     33  N   UNL     1       0.831  10.209  21.240  0.00  0.00    +0.000 NA
ATOM     34  H   UNL     1       1.663  10.795  21.204  0.00  0.00    +0.000 HD
BRANCH  33  35
ATOM     35  C   UNL     1      -0.337  10.989  20.812  0.00  0.00    +0.000 C 
BRANCH  35  36
ATOM     36  C   UNL     1      -0.921  11.766  21.997  0.00  0.00    +0.000 C 
BRANCH  36  37
ATOM     37  O   UNL     1      -0.531  11.160  23.229  0.00  0.00    +0.000 OA
ATOM     38  H   UNL     1       0.423  10.991  23.148  0.00  0.00    +0.000 HD
ENDBRANCH  36  37
ENDBRANCH  35  36
ENDBRANCH  33  35
ENDBRANCH  32  33
ENDBRANCH  31  32
ENDBRANCH  29  31
ENDBRANCH   7  29
BRANCH   4  39
ATOM     39  O   UNL     1       1.566   1.794  18.678  0.00  0.00    +0.000 OA
ATOM     40  H   UNL     1       0.941   1.414  19.340  0.00  0.00    +0.000 HD
ENDBRANCH   4  39
TORSDOF 16
ENDMDL
MODEL 4
REMARK VINA RESULT:      -5.9      1.509      1.668
REMARK  Name = 
REMARK  16 active torsions:
REMARK  status: ('A' for Active; 'I' for Inactive)
REMARK    1  A    between atoms: C_4  and  O_5
REMARK    2  A    between atoms: C_8  and  N_9
REMARK    3  A    between atoms: N_9  and  C_10
REMARK    4  A    between atoms: C_10  and  C_11
REMARK    5  A    between atoms: C_11  and  N_12
REMARK    6  A    between atoms: N_12  and  C_13
REMARK    7  A    between atoms: C_13  and  C_14
REMARK    8  A    between atoms: C_14  and  O_15
REMARK    9  A    between atoms: C_20  and  N_21
REMARK   10  A    between atoms: N_21  and  C_22
REMARK   11  A    between atoms: C_22  and  C_23
REMARK   12  A    between atoms: C_23  and  N_24
REMARK   13  A    between atoms: N_24  and  C_25
REMARK   14  A    between atoms: C_25  and  C_26
REMARK   15  A    between atoms: C_26  and  O_27
REMARK   16  A    between atoms: C_30  and  O_31
REMARK                            x       y       z     vdW  Elec       q    Type
REMARK                         _______ _______ _______ _____ _____    ______ ____
ROOT
ATOM      1  O   UNL     1       3.741   2.169  17.165  0.00  0.00    +0.000 OA
ATOM      2  C   UNL     1       3.880   3.325  17.578  0.00  0.00    +0.000 C 
ATOM      3  C   UNL     1       2.892   3.803  18.562  0.00  0.00    +0.000 A 
ATOM      4  C   UNL     1       1.862   2.952  18.997  0.00  0.00    +0.000 A 
ATOM      5  C   UNL     1       0.929   3.379  19.930  0.00  0.00    +0.000 A 
ATOM      6  C   UNL     1       1.027   4.664  20.457  0.00  0.00    +0.000 A 
ATOM      7  C   UNL     1       2.033   5.551  20.042  0.00  0.00    +0.000 A 
ATOM      8  C   UNL     1       2.977   5.103  19.072  0.00  0.00    +0.000 A 
ATOM      9  C   UNL     1       4.060   6.004  18.582  0.00  0.00    +0.000 C 
ATOM     10  O   UNL     1       4.067   7.181  18.942  0.00  0.00    +0.000 OA
ATOM     11  C   UNL     1       5.112   5.515  17.642  0.00  0.00    +0.000 A 
ATOM     12  C   UNL     1       6.176   6.355  17.211  0.00  0.00    +0.000 A 
ATOM     13  C   UNL     1       7.096   5.832  16.284  0.00  0.00    +0.000 A 
ATOM     14  C   UNL     1       6.971   4.555  15.762  0.00  0.00    +0.000 A 
ATOM     15  C   UNL     1       5.924   3.750  16.183  0.00  0.00    +0.000 A 
ATOM     16  C   UNL     1       4.992   4.204  17.128  0.00  0.00    +0.000 A 
ENDROOT
BRANCH  15  17
ATOM     17  O   UNL     1       5.835   2.495  15.630  0.00  0.00    +0.000 OA
ATOM     18  H   UNL     1       5.165   1.964  16.101  0.00  0.00    +0.000 HD
ENDBRANCH  15  17
BRANCH  12  19
ATOM     19  N   UNL     1       6.310   7.697  17.620  0.00  0.00    +0.000 N 
ATOM     20  H   UNL     1       5.889   7.882  18.534  0.00  0.00    +0.000 HD
BRANCH  19  21
ATOM     21  C   UNL     1       7.534   8.424  17.296  0.00  0.00    +0.000 C 
BRANCH  21  22
ATOM     22  C   UNL     1       8.325   8.941  18.509  0.00  0.00    +0.000 C 
BRANCH  22  23
ATOM     23  N   UNL     1       9.257   9.986  18.028  0.00  0.00    +0.000 NA
ATOM     24  H   UNL     1       9.282   9.927  17.010  0.00  0.00    +0.000 HD
BRANCH  23  25
ATOM     25  C   UNL     1       8.798  11.331  18.400  0.00  0.00    +0.000 C 
BRANCH  25  26
ATOM     26  C   UNL     1       9.833  12.397  18.011  0.00  0.00    +0.000 C 
BRANCH  26  27
ATOM     27  O   UNL     1       9.252  13.382  17.158  0.00  0.00    +0.000 OA
ATOM     28  H   UNL     1       8.290  13.253  17.211  0.00  0.00    +0.000 HD
ENDBRANCH  26  27
ENDBRANCH  25  26
ENDBRANCH  23  25
ENDBRANCH  22  23
ENDBRANCH  21  22
ENDBRANCH  19  21
ENDBRANCH  12  19
BRANCH   7  29
ATOM     29  N   UNL     1       2.182   6.787  20.658  0.00  0.00    +0.000 N 
ATOM     30  H   UNL     1       3.008   7.319  20.344  0.00  0.00    +0.000 HD
BRANCH  29  31
ATOM     31  C   UNL     1       1.103   7.592  21.202  0.00  0.00    +0.000 C 
BRANCH  31  32
ATOM     32  C   UNL     1       1.168   9.031  20.645  0.00  0.00    +0.000 C 
BRANCH  32  33
ATOM     33  N   UNL     1       1.132  10.020  21.735  0.00  0.00    +0.000 NA
ATOM     34  H   UNL     1       1.899  10.674  21.591  0.00  0.00    +0.000 HD
BRANCH  33  35
ATOM     35  C   UNL     1      -0.140  10.753  21.750  0.00  0.00    +0.000 C 
BRANCH  35  36
ATOM     36  C   UNL     1      -0.868  10.529  23.081  0.00  0.00    +0.000 C 
BRANCH  36  37
ATOM     37  O   UNL     1      -0.176   9.560  23.868  0.00  0.00    +0.000 OA
ATOM     38  H   UNL     1      -0.800   8.823  23.985  0.00  0.00    +0.000 HD
ENDBRANCH  36  37
ENDBRANCH  35  36
ENDBRANCH  33  35
ENDBRANCH  32  33
ENDBRANCH  31  32
ENDBRANCH  29  31
ENDBRANCH   7  29
BRANCH   4  39
ATOM     39  O   UNL     1       1.700   1.662  18.560  0.00  0.00    +0.000 OA
ATOM     40  H   UNL     1       1.163   1.180  19.232  0.00  0.00    +0.000 HD
ENDBRANCH   4  39
TORSDOF 16
ENDMDL
MODEL 5
REMARK VINA RESULT:      -5.9      3.507      7.728
REMARK  Name = 
REMARK  16 active torsions:
REMARK  status: ('A' for Active; 'I' for Inactive)
REMARK    1  A    between atoms: C_4  and  O_5
REMARK    2  A    between atoms: C_8  and  N_9
REMARK    3  A    between atoms: N_9  and  C_10
REMARK    4  A    between atoms: C_10  and  C_11
REMARK    5  A    between atoms: C_11  and  N_12
REMARK    6  A    between atoms: N_12  and  C_13
REMARK    7  A    between atoms: C_13  and  C_14
REMARK    8  A    between atoms: C_14  and  O_15
REMARK    9  A    between atoms: C_20  and  N_21
REMARK   10  A    between atoms: N_21  and  C_22
REMARK   11  A    between atoms: C_22  and  C_23
REMARK   12  A    between atoms: C_23  and  N_24
REMARK   13  A    between atoms: N_24  and  C_25
REMARK   14  A    between atoms: C_25  and  C_26
REMARK   15  A    between atoms: C_26  and  O_27
REMARK   16  A    between atoms: C_30  and  O_31
REMARK                            x       y       z     vdW  Elec       q    Type
REMARK                         _______ _______ _______ _____ _____    ______ ____
ROOT
ATOM      1  O   UNL     1       3.419   8.510  16.828  0.00  0.00    +0.000 OA
ATOM      2  C   UNL     1       2.940   8.094  17.890  0.00  0.00    +0.000 C 
ATOM      3  C   UNL     1       3.380   6.762  18.340  0.00  0.00    +0.000 A 
ATOM      4  C   UNL     1       4.310   6.032  17.581  0.00  0.00    +0.000 A 
ATOM      5  C   UNL     1       4.744   4.781  17.993  0.00  0.00    +0.000 A 
ATOM      6  C   UNL     1       4.265   4.250  19.187  0.00  0.00    +0.000 A 
ATOM      7  C   UNL     1       3.326   4.939  19.972  0.00  0.00    +0.000 A 
ATOM      8  C   UNL     1       2.879   6.219  19.528  0.00  0.00    +0.000 A 
ATOM      9  C   UNL     1       1.872   6.993  20.311  0.00  0.00    +0.000 C 
ATOM     10  O   UNL     1       1.345   6.468  21.292  0.00  0.00    +0.000 OA
ATOM     11  C   UNL     1       1.470   8.374  19.909  0.00  0.00    +0.000 A 
ATOM     12  C   UNL     1       0.549   9.136  20.680  0.00  0.00    +0.000 A 
ATOM     13  C   UNL     1       0.185  10.408  20.203  0.00  0.00    +0.000 A 
ATOM     14  C   UNL     1       0.663  10.912  19.005  0.00  0.00    +0.000 A 
ATOM     15  C   UNL     1       1.553  10.154  18.259  0.00  0.00    +0.000 A 
ATOM     16  C   UNL     1       1.978   8.891  18.696  0.00  0.00    +0.000 A 
ENDROOT
BRANCH  15  17
ATOM     17  O   UNL     1       1.992  10.691  17.071  0.00  0.00    +0.000 OA
ATOM     18  H   UNL     1       1.743  10.111  16.327  0.00  0.00    +0.000 HD
ENDBRANCH  15  17
BRANCH  12  19
ATOM     19  N   UNL     1      -0.056   8.650  21.856  0.00  0.00    +0.000 N 
ATOM     20  H   UNL     1       0.046   7.639  21.971  0.00  0.00    +0.000 HD
BRANCH  19  21
ATOM     21  C   UNL     1      -0.016   9.463  23.068  0.00  0.00    +0.000 C 
BRANCH  21  22
ATOM     22  C   UNL     1      -1.163  10.480  23.208  0.00  0.00    +0.000 C 
BRANCH  22  23
ATOM     23  N   UNL     1      -0.574  11.836  23.127  0.00  0.00    +0.000 NA
ATOM     24  H   UNL     1      -0.139  11.926  22.209  0.00  0.00    +0.000 HD
BRANCH  23  25
ATOM     25  C   UNL     1      -1.601  12.879  23.254  0.00  0.00    +0.000 C 
BRANCH  25  26
ATOM     26  C   UNL     1      -3.012  12.270  23.252  0.00  0.00    +0.000 C 
BRANCH  26  27
ATOM     27  O   UNL     1      -3.797  12.803  24.317  0.00  0.00    +0.000 OA
ATOM     28  H   UNL     1      -4.358  13.492  23.923  0.00  0.00    +0.000 HD
ENDBRANCH  26  27
ENDBRANCH  25  26
ENDBRANCH  23  25
ENDBRANCH  22  23
ENDBRANCH  21  22
ENDBRANCH  19  21
ENDBRANCH  12  19
BRANCH   7  29
ATOM     29  N   UNL     1       2.943   4.446  21.212  0.00  0.00    +0.000 N 
ATOM     30  H   UNL     1       2.515   5.148  21.833  0.00  0.00    +0.000 HD
BRANCH  29  31
ATOM     31  C   UNL     1       2.574   3.069  21.493  0.00  0.00    +0.000 C 
BRANCH  31  32
ATOM     32  C   UNL     1       1.048   2.879  21.344  0.00  0.00    +0.000 C 
BRANCH  32  33
ATOM     33  N   UNL     1       0.661   2.813  19.925  0.00  0.00    +0.000 NA
ATOM     34  H   UNL     1       0.748   3.749  19.533  0.00  0.00    +0.000 HD
BRANCH  33  35
ATOM     35  C   UNL     1       1.521   1.887  19.178  0.00  0.00    +0.000 C 
BRANCH  35  36
ATOM     36  C   UNL     1       1.785   2.426  17.767  0.00  0.00    +0.000 C 
BRANCH  36  37
ATOM     37  O   UNL     1       1.190   3.714  17.608  0.00  0.00    +0.000 OA
ATOM     38  H   UNL     1       1.901   4.354  17.783  0.00  0.00    +0.000 HD
ENDBRANCH  36  37
ENDBRANCH  35  36
ENDBRANCH  33  35
ENDBRANCH  32  33
ENDBRANCH  31  32
ENDBRANCH  29  31
ENDBRANCH   7  29
BRANCH   4  39
ATOM     39  O   UNL     1       4.861   6.483  16.408  0.00  0.00    +0.000 OA
ATOM     40  H   UNL     1       5.523   5.816  16.110  0.00  0.00    +0.000 HD
ENDBRANCH   4  39
TORSDOF 16
ENDMDL
MODEL 6
REMARK VINA RESULT:      -5.8      1.434      1.652
REMARK  Name = 
REMARK  16 active torsions:
REMARK  status: ('A' for Active; 'I' for Inactive)
REMARK    1  A    between atoms: C_4  and  O_5
REMARK    2  A    between atoms: C_8  and  N_9
REMARK    3  A    between atoms: N_9  and  C_10
REMARK    4  A    between atoms: C_10  and  C_11
REMARK    5  A    between atoms: C_11  and  N_12
REMARK    6  A    between atoms: N_12  and  C_13
REMARK    7  A    between atoms: C_13  and  C_14
REMARK    8  A    between atoms: C_14  and  O_15
REMARK    9  A    between atoms: C_20  and  N_21
REMARK   10  A    between atoms: N_21  and  C_22
REMARK   11  A    between atoms: C_22  and  C_23
REMARK   12  A    between atoms: C_23  and  N_24
REMARK   13  A    between atoms: N_24  and  C_25
REMARK   14  A    between atoms: C_25  and  C_26
REMARK   15  A    between atoms: C_26  and  O_27
REMARK   16  A    between atoms: C_30  and  O_31
REMARK                            x       y       z     vdW  Elec       q    Type
REMARK                         _______ _______ _______ _____ _____    ______ ____
ROOT
ATOM      1  O   UNL     1       3.590   2.043  17.762  0.00  0.00    +0.000 OA
ATOM      2  C   UNL     1       3.722   3.269  17.838  0.00  0.00    +0.000 C 
ATOM      3  C   UNL     1       2.864   3.971  18.810  0.00  0.00    +0.000 A 
ATOM      4  C   UNL     1       1.960   3.247  19.605  0.00  0.00    +0.000 A 
ATOM      5  C   UNL     1       1.152   3.888  20.532  0.00  0.00    +0.000 A 
ATOM      6  C   UNL     1       1.254   5.267  20.691  0.00  0.00    +0.000 A 
ATOM      7  C   UNL     1       2.135   6.032  19.909  0.00  0.00    +0.000 A 
ATOM      8  C   UNL     1       2.949   5.361  18.950  0.00  0.00    +0.000 A 
ATOM      9  C   UNL     1       3.894   6.120  18.081  0.00  0.00    +0.000 C 
ATOM     10  O   UNL     1       3.886   7.350  18.122  0.00  0.00    +0.000 OA
ATOM     11  C   UNL     1       4.822   5.420  17.144  0.00  0.00    +0.000 A 
ATOM     12  C   UNL     1       5.761   6.136  16.350  0.00  0.00    +0.000 A 
ATOM     13  C   UNL     1       6.562   5.404  15.455  0.00  0.00    +0.000 A 
ATOM     14  C   UNL     1       6.435   4.033  15.304  0.00  0.00    +0.000 A 
ATOM     15  C   UNL     1       5.510   3.349  16.077  0.00  0.00    +0.000 A 
ATOM     16  C   UNL     1       4.703   4.018  17.009  0.00  0.00    +0.000 A 
ENDROOT
BRANCH  15  17
ATOM     17  O   UNL     1       5.412   1.991  15.884  0.00  0.00    +0.000 OA
ATOM     18  H   UNL     1       6.138   1.531  16.347  0.00  0.00    +0.000 HD
ENDBRANCH  15  17
BRANCH  12  19
ATOM     19  N   UNL     1       5.876   7.540  16.376  0.00  0.00    +0.000 N 
ATOM     20  H   UNL     1       4.986   8.019  16.223  0.00  0.00    +0.000 HD
BRANCH  19  21
ATOM     21  C   UNL     1       6.812   8.162  17.308  0.00  0.00    +0.000 C 
BRANCH  21  22
ATOM     22  C   UNL     1       7.787   7.191  17.997  0.00  0.00    +0.000 C 
BRANCH  22  23
ATOM     23  N   UNL     1       8.654   7.986  18.897  0.00  0.00    +0.000 NA
ATOM     24  H   UNL     1       9.602   7.622  18.807  0.00  0.00    +0.000 HD
BRANCH  23  25
ATOM     25  C   UNL     1       8.666   9.406  18.519  0.00  0.00    +0.000 C 
BRANCH  25  26
ATOM     26  C   UNL     1       9.454  10.243  19.538  0.00  0.00    +0.000 C 
BRANCH  26  27
ATOM     27  O   UNL     1      10.070  11.364  18.906  0.00  0.00    +0.000 OA
ATOM     28  H   UNL     1       9.795  11.336  17.974  0.00  0.00    +0.000 HD
ENDBRANCH  26  27
ENDBRANCH  25  26
ENDBRANCH  23  25
ENDBRANCH  22  23
ENDBRANCH  21  22
ENDBRANCH  19  21
ENDBRANCH  12  19
BRANCH   7  29
ATOM     29  N   UNL     1       2.302   7.388  20.156  0.00  0.00    +0.000 N 
ATOM     30  H   UNL     1       3.191   7.775  19.806  0.00  0.00    +0.000 HD
BRANCH  29  31
ATOM     31  C   UNL     1       1.228   8.354  20.310  0.00  0.00    +0.000 C 
BRANCH  31  32
ATOM     32  C   UNL     1       1.137   8.830  21.776  0.00  0.00    +0.000 C 
BRANCH  32  33
ATOM     33  N   UNL     1      -0.238   8.704  22.287  0.00  0.00    +0.000 NA
ATOM     34  H   UNL     1      -0.273   7.886  22.893  0.00  0.00    +0.000 HD
BRANCH  33  35
ATOM     35  C   UNL     1      -0.639   9.894  23.046  0.00  0.00    +0.000 C 
BRANCH  35  36
ATOM     36  C   UNL     1      -0.523  11.148  22.172  0.00  0.00    +0.000 C 
BRANCH  36  37
ATOM     37  O   UNL     1      -0.547  12.322  22.983  0.00  0.00    +0.000 OA
ATOM     38  H   UNL     1      -1.192  12.141  23.688  0.00  0.00    +0.000 HD
ENDBRANCH  36  37
ENDBRANCH  35  36
ENDBRANCH  33  35
ENDBRANCH  32  33
ENDBRANCH  31  32
ENDBRANCH  29  31
ENDBRANCH   7  29
BRANCH   4  39
ATOM     39  O   UNL     1       1.810   1.884  19.544  0.00  0.00    +0.000 OA
ATOM     40  H   UNL     1       2.499   1.479  20.122  0.00  0.00    +0.000 HD
ENDBRANCH   4  39
TORSDOF 16
ENDMDL
MODEL 7
REMARK VINA RESULT:      -5.7      1.123      1.193
REMARK  Name = 
REMARK  16 active torsions:
REMARK  status: ('A' for Active; 'I' for Inactive)
REMARK    1  A    between atoms: C_4  and  O_5
REMARK    2  A    between atoms: C_8  and  N_9
REMARK    3  A    between atoms: N_9  and  C_10
REMARK    4  A    between atoms: C_10  and  C_11
REMARK    5  A    between atoms: C_11  and  N_12
REMARK    6  A    between atoms: N_12  and  C_13
REMARK    7  A    between atoms: C_13  and  C_14
REMARK    8  A    between atoms: C_14  and  O_15
REMARK    9  A    between atoms: C_20  and  N_21
REMARK   10  A    between atoms: N_21  and  C_22
REMARK   11  A    between atoms: C_22  and  C_23
REMARK   12  A    between atoms: C_23  and  N_24
REMARK   13  A    between atoms: N_24  and  C_25
REMARK   14  A    between atoms: C_25  and  C_26
REMARK   15  A    between atoms: C_26  and  O_27
REMARK   16  A    between atoms: C_30  and  O_31
REMARK                            x       y       z     vdW  Elec       q    Type
REMARK                         _______ _______ _______ _____ _____    ______ ____
ROOT
ATOM      1  O   UNL     1       3.675   2.087  17.073  0.00  0.00    +0.000 OA
ATOM      2  C   UNL     1       3.809   3.230  17.523  0.00  0.00    +0.000 C 
ATOM      3  C   UNL     1       2.824   3.669  18.528  0.00  0.00    +0.000 A 
ATOM      4  C   UNL     1       1.802   2.797  18.941  0.00  0.00    +0.000 A 
ATOM      5  C   UNL     1       0.872   3.188  19.893  0.00  0.00    +0.000 A 
ATOM      6  C   UNL     1       0.966   4.455  20.461  0.00  0.00    +0.000 A 
ATOM      7  C   UNL     1       1.963   5.362  20.070  0.00  0.00    +0.000 A 
ATOM      8  C   UNL     1       2.904   4.952  19.081  0.00  0.00    +0.000 A 
ATOM      9  C   UNL     1       3.978   5.876  18.614  0.00  0.00    +0.000 C 
ATOM     10  O   UNL     1       3.980   7.040  19.013  0.00  0.00    +0.000 OA
ATOM     11  C   UNL     1       5.028   5.425  17.652  0.00  0.00    +0.000 A 
ATOM     12  C   UNL     1       6.084   6.286  17.244  0.00  0.00    +0.000 A 
ATOM     13  C   UNL     1       7.002   5.799  16.295  0.00  0.00    +0.000 A 
ATOM     14  C   UNL     1       6.882   4.539  15.732  0.00  0.00    +0.000 A 
ATOM     15  C   UNL     1       5.843   3.714  16.132  0.00  0.00    +0.000 A 
ATOM     16  C   UNL     1       4.914   4.131  17.097  0.00  0.00    +0.000 A 
ENDROOT
BRANCH  15  17
ATOM     17  O   UNL     1       5.758   2.477  15.538  0.00  0.00    +0.000 OA
ATOM     18  H   UNL     1       5.363   2.556  14.649  0.00  0.00    +0.000 HD
ENDBRANCH  15  17
BRANCH  12  19
ATOM     19  N   UNL     1       6.212   7.614  17.696  0.00  0.00    +0.000 N 
ATOM     20  H   UNL     1       5.849   7.752  18.642  0.00  0.00    +0.000 HD
BRANCH  19  21
ATOM     21  C   UNL     1       7.393   8.386  17.320  0.00  0.00    +0.000 C 
BRANCH  21  22
ATOM     22  C   UNL     1       8.372   8.679  18.469  0.00  0.00    +0.000 C 
BRANCH  22  23
ATOM     23  N   UNL     1       8.402  10.145  18.673  0.00  0.00    +0.000 NA
ATOM     24  H   UNL     1       8.090  10.327  19.627  0.00  0.00    +0.000 HD
BRANCH  23  25
ATOM     25  C   UNL     1       9.761  10.684  18.521  0.00  0.00    +0.000 C 
BRANCH  25  26
ATOM     26  C   UNL     1      10.254  11.320  19.830  0.00  0.00    +0.000 C 
BRANCH  26  27
ATOM     27  O   UNL     1       9.562  10.775  20.951  0.00  0.00    +0.000 OA
ATOM     28  H   UNL     1       8.622  10.744  20.703  0.00  0.00    +0.000 HD
ENDBRANCH  26  27
ENDBRANCH  25  26
ENDBRANCH  23  25
ENDBRANCH  22  23
ENDBRANCH  21  22
ENDBRANCH  19  21
ENDBRANCH  12  19
BRANCH   7  29
ATOM     29  N   UNL     1       2.108   6.578  20.725  0.00  0.00    +0.000 N 
ATOM     30  H   UNL     1       2.808   7.206  20.301  0.00  0.00    +0.000 HD
BRANCH  29  31
ATOM     31  C   UNL     1       1.079   7.242  21.506  0.00  0.00    +0.000 C 
BRANCH  31  32
ATOM     32  C   UNL     1       0.717   8.604  20.874  0.00  0.00    +0.000 C 
BRANCH  32  33
ATOM     33  N   UNL     1       1.608   8.915  19.746  0.00  0.00    +0.000 NA
ATOM     34  H   UNL     1       1.553   8.147  19.080  0.00  0.00    +0.000 HD
BRANCH  33  35
ATOM     35  C   UNL     1       1.218  10.166  19.083  0.00  0.00    +0.000 C 
BRANCH  35  36
ATOM     36  C   UNL     1       1.901  10.280  17.716  0.00  0.00    +0.000 C 
BRANCH  36  37
ATOM     37  O   UNL     1       2.429   9.016  17.318  0.00  0.00    +0.000 OA
ATOM     38  H   UNL     1       1.750   8.614  16.750  0.00  0.00    +0.000 HD
ENDBRANCH  36  37
ENDBRANCH  35  36
ENDBRANCH  33  35
ENDBRANCH  32  33
ENDBRANCH  31  32
ENDBRANCH  29  31
ENDBRANCH   7  29
BRANCH   4  39
ATOM     39  O   UNL     1       1.646   1.521  18.462  0.00  0.00    +0.000 OA
ATOM     40  H   UNL     1       1.042   1.041  19.076  0.00  0.00    +0.000 HD
ENDBRANCH   4  39
TORSDOF 16
ENDMDL
MODEL 8
REMARK VINA RESULT:      -5.7      1.112      6.131
REMARK  Name = 
REMARK  16 active torsions:
REMARK  status: ('A' for Active; 'I' for Inactive)
REMARK    1  A    between atoms: C_4  and  O_5
REMARK    2  A    between atoms: C_8  and  N_9
REMARK    3  A    between atoms: N_9  and  C_10
REMARK    4  A    between atoms: C_10  and  C_11
REMARK    5  A    between atoms: C_11  and  N_12
REMARK    6  A    between atoms: N_12  and  C_13
REMARK    7  A    between atoms: C_13  and  C_14
REMARK    8  A    between atoms: C_14  and  O_15
REMARK    9  A    between atoms: C_20  and  N_21
REMARK   10  A    between atoms: N_21  and  C_22
REMARK   11  A    between atoms: C_22  and  C_23
REMARK   12  A    between atoms: C_23  and  N_24
REMARK   13  A    between atoms: N_24  and  C_25
REMARK   14  A    between atoms: C_25  and  C_26
REMARK   15  A    between atoms: C_26  and  O_27
REMARK   16  A    between atoms: C_30  and  O_31
REMARK                            x       y       z     vdW  Elec       q    Type
REMARK                         _______ _______ _______ _____ _____    ______ ____
ROOT
ATOM      1  O   UNL     1       3.720   1.907  17.514  0.00  0.00    +0.000 OA
ATOM      2  C   UNL     1       3.751   3.121  17.742  0.00  0.00    +0.000 C 
ATOM      3  C   UNL     1       4.711   3.921  16.961  0.00  0.00    +0.000 A 
ATOM      4  C   UNL     1       5.529   3.301  16.001  0.00  0.00    +0.000 A 
ATOM      5  C   UNL     1       6.431   4.037  15.248  0.00  0.00    +0.000 A 
ATOM      6  C   UNL     1       6.514   5.414  15.433  0.00  0.00    +0.000 A 
ATOM      7  C   UNL     1       5.725   6.073  16.390  0.00  0.00    +0.000 A 
ATOM      8  C   UNL     1       4.811   5.301  17.166  0.00  0.00    +0.000 A 
ATOM      9  C   UNL     1       3.957   5.943  18.207  0.00  0.00    +0.000 C 
ATOM     10  O   UNL     1       4.125   7.134  18.468  0.00  0.00    +0.000 OA
ATOM     11  C   UNL     1       2.927   5.162  18.956  0.00  0.00    +0.000 A 
ATOM     12  C   UNL     1       2.075   5.780  19.913  0.00  0.00    +0.000 A 
ATOM     13  C   UNL     1       1.167   4.963  20.612  0.00  0.00    +0.000 A 
ATOM     14  C   UNL     1       1.111   3.592  20.421  0.00  0.00    +0.000 A 
ATOM     15  C   UNL     1       1.955   3.002  19.492  0.00  0.00    +0.000 A 
ATOM     16  C   UNL     1       2.859   3.767  18.742  0.00  0.00    +0.000 A 
ENDROOT
BRANCH  15  17
ATOM     17  O   UNL     1       1.871   1.637  19.346  0.00  0.00    +0.000 OA
ATOM     18  H   UNL     1       1.083   1.403  18.818  0.00  0.00    +0.000 HD
ENDBRANCH  15  17
BRANCH  12  19
ATOM     19  N   UNL     1       2.143   7.150  20.233  0.00  0.00    +0.000 N 
ATOM     20  H   UNL     1       2.439   7.732  19.446  0.00  0.00    +0.000 HD
BRANCH  19  21
ATOM     21  C   UNL     1       1.156   7.721  21.145  0.00  0.00    +0.000 C 
BRANCH  21  22
ATOM     22  C   UNL     1       0.983   9.246  21.045  0.00  0.00    +0.000 C 
BRANCH  22  23
ATOM     23  N   UNL     1       0.636   9.569  19.642  0.00  0.00    +0.000 NA
ATOM     24  H   UNL     1      -0.333   9.887  19.633  0.00  0.00    +0.000 HD
BRANCH  23  25
ATOM     25  C   UNL     1       1.481  10.647  19.112  0.00  0.00    +0.000 C 
BRANCH  25  26
ATOM     26  C   UNL     1       2.072  10.268  17.745  0.00  0.00    +0.000 C 
BRANCH  26  27
ATOM     27  O   UNL     1       2.084   8.852  17.573  0.00  0.00    +0.000 OA
ATOM     28  H   UNL     1       1.662   8.678  16.715  0.00  0.00    +0.000 HD
ENDBRANCH  26  27
ENDBRANCH  25  26
ENDBRANCH  23  25
ENDBRANCH  22  23
ENDBRANCH  21  22
ENDBRANCH  19  21
ENDBRANCH  12  19
BRANCH   7  29
ATOM     29  N   UNL     1       5.741   7.459  16.485  0.00  0.00    +0.000 N 
ATOM     30  H   UNL     1       4.837   7.907  16.275  0.00  0.00    +0.000 HD
BRANCH  29  31
ATOM     31  C   UNL     1       6.632   8.234  17.330  0.00  0.00    +0.000 C 
BRANCH  31  32
ATOM     32  C   UNL     1       7.757   7.338  17.893  0.00  0.00    +0.000 C 
BRANCH  32  33
ATOM     33  N   UNL     1       8.649   8.106  18.776  0.00  0.00    +0.000 NA
ATOM     34  H   UNL     1       9.598   7.761  18.641  0.00  0.00    +0.000 HD
BRANCH  33  35
ATOM     35  C   UNL     1       8.602   9.541  18.470  0.00  0.00    +0.000 C 
BRANCH  35  36
ATOM     36  C   UNL     1       9.627  10.301  19.320  0.00  0.00    +0.000 C 
BRANCH  36  37
ATOM     37  O   UNL     1       9.218  10.325  20.687  0.00  0.00    +0.000 OA
ATOM     38  H   UNL     1       8.876   9.434  20.874  0.00  0.00    +0.000 HD
ENDBRANCH  36  37
ENDBRANCH  35  36
ENDBRANCH  33  35
ENDBRANCH  32  33
ENDBRANCH  31  32
ENDBRANCH  29  31
ENDBRANCH   7  29
BRANCH   4  39
ATOM     39  O   UNL     1       5.498   1.957  15.724  0.00  0.00    +0.000 OA
ATOM     40  H   UNL     1       6.118   1.789  14.976  0.00  0.00    +0.000 HD
ENDBRANCH   4  39
TORSDOF 16
ENDMDL
MODEL 9
REMARK VINA RESULT:      -5.6      1.364      6.594
REMARK  Name = 
REMARK  16 active torsions:
REMARK  status: ('A' for Active; 'I' for Inactive)
REMARK    1  A    between atoms: C_4  and  O_5
REMARK    2  A    between atoms: C_8  and  N_9
REMARK    3  A    between atoms: N_9  and  C_10
REMARK    4  A    between atoms: C_10  and  C_11
REMARK    5  A    between atoms: C_11  and  N_12
REMARK    6  A    between atoms: N_12  and  C_13
REMARK    7  A    between atoms: C_13  and  C_14
REMARK    8  A    between atoms: C_14  and  O_15
REMARK    9  A    between atoms: C_20  and  N_21
REMARK   10  A    between atoms: N_21  and  C_22
REMARK   11  A    between atoms: C_22  and  C_23
REMARK   12  A    between atoms: C_23  and  N_24
REMARK   13  A    between atoms: N_24  and  C_25
REMARK   14  A    between atoms: C_25  and  C_26
REMARK   15  A    between atoms: C_26  and  O_27
REMARK   16  A    between atoms: C_30  and  O_31
REMARK                            x       y       z     vdW  Elec       q    Type
REMARK                         _______ _______ _______ _____ _____    ______ ____
ROOT
ATOM      1  O   UNL     1       3.735   1.984  17.194  0.00  0.00    +0.000 OA
ATOM      2  C   UNL     1       3.790   3.114  17.693  0.00  0.00    +0.000 C 
ATOM      3  C   UNL     1       4.856   4.006  17.205  0.00  0.00    +0.000 A 
ATOM      4  C   UNL     1       5.743   3.565  16.208  0.00  0.00    +0.000 A 
ATOM      5  C   UNL     1       6.746   4.394  15.728  0.00  0.00    +0.000 A 
ATOM      6  C   UNL     1       6.863   5.687  16.227  0.00  0.00    +0.000 A 
ATOM      7  C   UNL     1       6.006   6.166  17.231  0.00  0.00    +0.000 A 
ATOM      8  C   UNL     1       4.988   5.298  17.725  0.00  0.00    +0.000 A 
ATOM      9  C   UNL     1       4.056   5.744  18.801  0.00  0.00    +0.000 C 
ATOM     10  O   UNL     1       4.243   6.835  19.340  0.00  0.00    +0.000 OA
ATOM     11  C   UNL     1       2.925   4.882  19.257  0.00  0.00    +0.000 A 
ATOM     12  C   UNL     1       2.003   5.323  20.247  0.00  0.00    +0.000 A 
ATOM     13  C   UNL     1       0.998   4.428  20.656  0.00  0.00    +0.000 A 
ATOM     14  C   UNL     1       0.908   3.139  20.156  0.00  0.00    +0.000 A 
ATOM     15  C   UNL     1       1.819   2.719  19.199  0.00  0.00    +0.000 A 
ATOM     16  C   UNL     1       2.826   3.575  18.728  0.00  0.00    +0.000 A 
ENDROOT
BRANCH  15  17
ATOM     17  O   UNL     1       1.698   1.429  18.740  0.00  0.00    +0.000 OA
ATOM     18  H   UNL     1       1.030   0.947  19.263  0.00  0.00    +0.000 HD
ENDBRANCH  15  17
BRANCH  12  19
ATOM     19  N   UNL     1       2.092   6.581  20.874  0.00  0.00    +0.000 N 
ATOM     20  H   UNL     1       3.016   7.010  20.783  0.00  0.00    +0.000 HD
BRANCH  19  21
ATOM     21  C   UNL     1       0.939   7.476  20.844  0.00  0.00    +0.000 C 
BRANCH  21  22
ATOM     22  C   UNL     1       1.279   8.976  20.878  0.00  0.00    +0.000 C 
BRANCH  22  23
ATOM     23  N   UNL     1       1.399   9.379  22.298  0.00  0.00    +0.000 NA
ATOM     24  H   UNL     1       1.740  10.340  22.315  0.00  0.00    +0.000 HD
BRANCH  23  25
ATOM     25  C   UNL     1       0.099   9.338  22.982  0.00  0.00    +0.000 C 
BRANCH  25  26
ATOM     26  C   UNL     1      -0.804  10.494  22.524  0.00  0.00    +0.000 C 
BRANCH  26  27
ATOM     27  O   UNL     1      -0.433  11.713  23.165  0.00  0.00    +0.000 OA
ATOM     28  H   UNL     1       0.529  11.667  23.301  0.00  0.00    +0.000 HD
ENDBRANCH  26  27
ENDBRANCH  25  26
ENDBRANCH  23  25
ENDBRANCH  22  23
ENDBRANCH  21  22
ENDBRANCH  19  21
ENDBRANCH  12  19
BRANCH   7  29
ATOM     29  N   UNL     1       6.066   7.492  17.639  0.00  0.00    +0.000 N 
ATOM     30  H   UNL     1       5.621   7.675  18.550  0.00  0.00    +0.000 HD
BRANCH  29  31
ATOM     31  C   UNL     1       7.090   8.446  17.251  0.00  0.00    +0.000 C 
BRANCH  31  32
ATOM     32  C   UNL     1       8.220   8.482  18.304  0.00  0.00    +0.000 C 
BRANCH  32  33
ATOM     33  N   UNL     1       8.948   9.760  18.252  0.00  0.00    +0.000 NA
ATOM     34  H   UNL     1       8.370  10.430  17.746  0.00  0.00    +0.000 HD
BRANCH  33  35
ATOM     35  C   UNL     1       9.226  10.274  19.599  0.00  0.00    +0.000 C 
BRANCH  35  36
ATOM     36  C   UNL     1       9.933  11.632  19.516  0.00  0.00    +0.000 C 
BRANCH  36  37
ATOM     37  O   UNL     1       9.078  12.599  18.908  0.00  0.00    +0.000 OA
ATOM     38  H   UNL     1       8.173  12.264  19.030  0.00  0.00    +0.000 HD
ENDBRANCH  36  37
ENDBRANCH  35  36
ENDBRANCH  33  35
ENDBRANCH  32  33
ENDBRANCH  31  32
ENDBRANCH  29  31
ENDBRANCH   7  29
BRANCH   4  39
ATOM     39  O   UNL     1       5.689   2.321  15.633  0.00  0.00    +0.000 OA
ATOM     40  H   UNL     1       6.610   2.054  15.403  0.00  0.00    +0.000 HD
ENDBRANCH   4  39
TORSDOF 16
ENDMDL
