MODEL 1
REMARK VINA RESULT:      -8.6      0.000      0.000
REMARK  Name = 
REMARK  8 active torsions:
REMARK  status: ('A' for Active; 'I' for Inactive)
REMARK    1  A    between atoms: C_1  and  O_2
REMARK    2  A    between atoms: O_2  and  C_3
REMARK    3  A    between atoms: C_6  and  C_7
REMARK    4  A    between atoms: N_12  and  C_13
REMARK    5  A    between atoms: C_13  and  C_14
REMARK    6  A    between atoms: C_13  and  C_15
REMARK    7  A    between atoms: N_17  and  C_18
REMARK    8  A    between atoms: C_20  and  C_21
REMARK                            x       y       z     vdW  Elec       q    Type
REMARK                         _______ _______ _______ _____ _____    ______ ____
ROOT
ATOM      1  C   UNL     1       3.257   6.683  18.987  0.00  0.00    +0.000 A 
ATOM      2  C   UNL     1       2.741   5.387  19.482  0.00  0.00    +0.000 A 
ATOM      3  C   UNL     1       3.593   4.362  19.489  0.00  0.00    +0.000 A 
ATOM      4  C   UNL     1       4.995   4.534  19.055  0.00  0.00    +0.000 A 
ATOM      5  O   UNL     1       5.784   3.598  19.167  0.00  0.00    +0.000 OA
ATOM      6  N   UNL     1       5.335   5.784  18.563  0.00  0.00    +0.000 N 
ATOM      7  N   UNL     1       4.465   6.855  18.551  0.00  0.00    +0.000 NA
ENDROOT
BRANCH   1  11
ATOM      8  C   UNL     1       0.521  10.002  18.998  0.00  0.00    +0.000 A 
ATOM      9  C   UNL     1       1.190   9.658  17.822  0.00  0.00    +0.000 A 
ATOM     10  C   UNL     1       2.066   8.569  17.792  0.00  0.00    +0.000 A 
ATOM     11  C   UNL     1       2.302   7.829  18.955  0.00  0.00    +0.000 A 
ATOM     12  C   UNL     1       1.625   8.172  20.133  0.00  0.00    +0.000 A 
ATOM     13  C   UNL     1       0.742   9.259  20.156  0.00  0.00    +0.000 A 
BRANCH   8  15
ATOM     14  C   UNL     1      -1.665  10.827  18.641  0.00  0.00    +0.000 C 
ATOM     15  O   UNL     1      -0.292  11.097  18.903  0.00  0.00    +0.000 OA
ENDBRANCH   8  15
ENDBRANCH   1  11
BRANCH   6  16
ATOM     16  C   UNL     1       6.711   6.035  18.103  0.00  0.00    +0.000 C 
ATOM     17  C   UNL     1       7.758   5.725  19.178  0.00  0.00    +0.000 C 
BRANCH  16  18
ATOM     18  C   UNL     1       7.006   5.232  16.823  0.00  0.00    +0.000 C 
ATOM     19  O   UNL     1       7.904   4.387  16.800  0.00  0.00    +0.000 OA
ATOM     20  N   UNL     1       6.271   5.622  15.708  0.00  0.00    +0.000 N 
ATOM     21  H   UNL     1       5.694   6.452  15.754  0.00  0.00    +0.000 HD
BRANCH  20  22
ATOM     22  C   UNL     1       6.403   4.955  14.507  0.00  0.00    +0.000 A 
ATOM     23  C   UNL     1       5.742   3.868  13.987  0.00  0.00    +0.000 A 
ATOM     24  C   UNL     1       6.358   3.647  12.730  0.00  0.00    +0.000 A 
ATOM     25  C   UNL     1       6.065   2.616  11.708  0.00  0.00    +0.000 C 
ATOM     26  N   UNL     1       7.336   4.529  12.506  0.00  0.00    +0.000 NA
ATOM     27  O   UNL     1       7.354   5.353  13.615  0.00  0.00    +0.000 OA
ENDBRANCH  20  22
ENDBRANCH  16  18
ENDBRANCH   6  16
TORSDOF 5
ENDMDL
MODEL 2
REMARK VINA RESULT:      -8.4      4.329      8.891
REMARK  Name = 
REMARK  8 active torsions:
REMARK  status: ('A' for Active; 'I' for Inactive)
REMARK    1  A    between atoms: C_1  and  O_2
REMARK    2  A    between atoms: O_2  and  C_3
REMARK    3  A    between atoms: C_6  and  C_7
REMARK    4  A    between atoms: N_12  and  C_13
REMARK    5  A    between atoms: C_13  and  C_14
REMARK    6  A    between atoms: C_13  and  C_15
REMARK    7  A    between atoms: N_17  and  C_18
REMARK    8  A    between atoms: C_20  and  C_21
REMARK                            x       y       z     vdW  Elec       q    Type
REMARK                         _______ _______ _______ _____ _____    ______ ____
ROOT
ATOM      1  C   UNL     1       0.972   9.183  20.744  0.00  0.00    +0.000 A 
ATOM      2  C   UNL     1       0.642   8.665  22.091  0.00  0.00    +0.000 A 
ATOM      3  C   UNL     1      -0.018   9.486  22.907  0.00  0.00    +0.000 A 
ATOM      4  C   UNL     1      -0.426  10.835  22.463  0.00  0.00    +0.000 A 
ATOM      5  O   UNL     1      -1.120  11.532  23.201  0.00  0.00    +0.000 OA
ATOM      6  N   UNL     1      -0.007  11.217  21.200  0.00  0.00    +0.000 N 
ATOM      7  N   UNL     1       0.675  10.379  20.342  0.00  0.00    +0.000 NA
ENDROOT
BRANCH   1  11
ATOM      8  C   UNL     1       3.125   6.489  18.172  0.00  0.00    +0.000 A 
ATOM      9  C   UNL     1       2.735   7.741  17.695  0.00  0.00    +0.000 A 
ATOM     10  C   UNL     1       2.055   8.640  18.521  0.00  0.00    +0.000 A 
ATOM     11  C   UNL     1       1.732   8.277  19.833  0.00  0.00    +0.000 A 
ATOM     12  C   UNL     1       2.129   7.022  20.313  0.00  0.00    +0.000 A 
ATOM     13  C   UNL     1       2.818   6.128  19.484  0.00  0.00    +0.000 A 
BRANCH   8  15
ATOM     14  C   UNL     1       4.896   6.276  16.622  0.00  0.00    +0.000 C 
ATOM     15  O   UNL     1       3.765   5.695  17.262  0.00  0.00    +0.000 OA
ENDBRANCH   8  15
ENDBRANCH   1  11
BRANCH   6  16
ATOM     16  C   UNL     1      -0.366  12.549  20.686  0.00  0.00    +0.000 C 
ATOM     17  C   UNL     1       0.823  13.516  20.671  0.00  0.00    +0.000 C 
BRANCH  16  18
ATOM     18  C   UNL     1      -0.979  12.437  19.278  0.00  0.00    +0.000 C 
ATOM     19  O   UNL     1      -0.741  13.285  18.415  0.00  0.00    +0.000 OA
ATOM     20  N   UNL     1      -1.885  11.394  19.118  0.00  0.00    +0.000 N 
ATOM     21  H   UNL     1      -2.179  10.858  19.925  0.00  0.00    +0.000 HD
BRANCH  20  22
ATOM     22  C   UNL     1      -2.473  11.150  17.894  0.00  0.00    +0.000 A 
ATOM     23  C   UNL     1      -2.048  10.430  16.803  0.00  0.00    +0.000 A 
ATOM     24  C   UNL     1      -3.085  10.587  15.849  0.00  0.00    +0.000 A 
ATOM     25  C   UNL     1      -3.195  10.034  14.480  0.00  0.00    +0.000 C 
ATOM     26  N   UNL     1      -4.066  11.361  16.321  0.00  0.00    +0.000 NA
ATOM     27  O   UNL     1      -3.686  11.702  17.605  0.00  0.00    +0.000 OA
ENDBRANCH  20  22
ENDBRANCH  16  18
ENDBRANCH   6  16
TORSDOF 5
ENDMDL
MODEL 3
REMARK VINA RESULT:      -8.3      4.385      8.989
REMARK  Name = 
REMARK  8 active torsions:
REMARK  status: ('A' for Active; 'I' for Inactive)
REMARK    1  A    between atoms: C_1  and  O_2
REMARK    2  A    between atoms: O_2  and  C_3
REMARK    3  A    between atoms: C_6  and  C_7
REMARK    4  A    between atoms: N_12  and  C_13
REMARK    5  A    between atoms: C_13  and  C_14
REMARK    6  A    between atoms: C_13  and  C_15
REMARK    7  A    between atoms: N_17  and  C_18
REMARK    8  A    between atoms: C_20  and  C_21
REMARK                            x       y       z     vdW  Elec       q    Type
REMARK                         _______ _______ _______ _____ _____    ______ ____
ROOT
ATOM      1  C   UNL     1       0.941   9.089  20.678  0.00  0.00    +0.000 A 
ATOM      2  C   UNL     1       0.538   8.561  22.001  0.00  0.00    +0.000 A 
ATOM      3  C   UNL     1      -0.138   9.388  22.799  0.00  0.00    +0.000 A 
ATOM      4  C   UNL     1      -0.493  10.752  22.356  0.00  0.00    +0.000 A 
ATOM      5  O   UNL     1      -1.202  11.457  23.072  0.00  0.00    +0.000 OA
ATOM      6  N   UNL     1      -0.008  11.140  21.118  0.00  0.00    +0.000 N 
ATOM      7  N   UNL     1       0.691  10.296  20.279  0.00  0.00    +0.000 NA
ENDROOT
BRANCH   1  11
ATOM      8  C   UNL     1       3.221   6.545  18.062  0.00  0.00    +0.000 A 
ATOM      9  C   UNL     1       2.871   6.095  19.336  0.00  0.00    +0.000 A 
ATOM     10  C   UNL     1       2.112   6.897  20.194  0.00  0.00    +0.000 A 
ATOM     11  C   UNL     1       1.719   8.176  19.788  0.00  0.00    +0.000 A 
ATOM     12  C   UNL     1       2.065   8.624  18.506  0.00  0.00    +0.000 A 
ATOM     13  C   UNL     1       2.819   7.814  17.648  0.00  0.00    +0.000 A 
BRANCH   8  15
ATOM     14  C   UNL     1       4.567   4.603  18.056  0.00  0.00    +0.000 C 
ATOM     15  O   UNL     1       3.981   5.677  17.329  0.00  0.00    +0.000 OA
ENDBRANCH   8  15
ENDBRANCH   1  11
BRANCH   6  16
ATOM     16  C   UNL     1      -0.311  12.488  20.607  0.00  0.00    +0.000 C 
ATOM     17  C   UNL     1       0.927  13.388  20.548  0.00  0.00    +0.000 C 
BRANCH  16  18
ATOM     18  C   UNL     1      -0.975  12.402  19.221  0.00  0.00    +0.000 C 
ATOM     19  O   UNL     1      -0.715  13.229  18.343  0.00  0.00    +0.000 OA
ATOM     20  N   UNL     1      -1.947  11.413  19.099  0.00  0.00    +0.000 N 
ATOM     21  H   UNL     1      -2.245  10.902  19.920  0.00  0.00    +0.000 HD
BRANCH  20  22
ATOM     22  C   UNL     1      -2.587  11.197  17.897  0.00  0.00    +0.000 A 
ATOM     23  C   UNL     1      -2.216  10.491  16.777  0.00  0.00    +0.000 A 
ATOM     24  C   UNL     1      -3.289  10.675  15.871  0.00  0.00    +0.000 A 
ATOM     25  C   UNL     1      -3.462  10.147  14.498  0.00  0.00    +0.000 C 
ATOM     26  N   UNL     1      -4.241  11.450  16.396  0.00  0.00    +0.000 NA
ATOM     27  O   UNL     1      -3.805  11.766  17.668  0.00  0.00    +0.000 OA
ENDBRANCH  20  22
ENDBRANCH  16  18
ENDBRANCH   6  16
TORSDOF 5
ENDMDL
MODEL 4
REMARK VINA RESULT:      -8.2      0.775      1.217
REMARK  Name = 
REMARK  8 active torsions:
REMARK  status: ('A' for Active; 'I' for Inactive)
REMARK    1  A    between atoms: C_1  and  O_2
REMARK    2  A    between atoms: O_2  and  C_3
REMARK    3  A    between atoms: C_6  and  C_7
REMARK    4  A    between atoms: N_12  and  C_13
REMARK    5  A    between atoms: C_13  and  C_14
REMARK    6  A    between atoms: C_13  and  C_15
REMARK    7  A    between atoms: N_17  and  C_18
REMARK    8  A    between atoms: C_20  and  C_21
REMARK                            x       y       z     vdW  Elec       q    Type
REMARK                         _______ _______ _______ _____ _____    ______ ____
ROOT
ATOM      1  C   UNL     1       2.945   6.776  18.497  0.00  0.00    +0.000 A 
ATOM      2  C   UNL     1       2.227   5.490  18.353  0.00  0.00    +0.000 A 
ATOM      3  C   UNL     1       2.954   4.430  18.000  0.00  0.00    +0.000 A 
ATOM      4  C   UNL     1       4.414   4.541  17.800  0.00  0.00    +0.000 A 
ATOM      5  O   UNL     1       5.074   3.528  17.573  0.00  0.00    +0.000 OA
ATOM      6  N   UNL     1       4.953   5.812  17.911  0.00  0.00    +0.000 N 
ATOM      7  N   UNL     1       4.214   6.919  18.278  0.00  0.00    +0.000 NA
ENDROOT
BRANCH   1  11
ATOM      8  C   UNL     1       0.577  10.234  19.468  0.00  0.00    +0.000 A 
ATOM      9  C   UNL     1       0.825   9.267  20.443  0.00  0.00    +0.000 A 
ATOM     10  C   UNL     1       1.610   8.147  20.155  0.00  0.00    +0.000 A 
ATOM     11  C   UNL     1       2.133   7.972  18.869  0.00  0.00    +0.000 A 
ATOM     12  C   UNL     1       1.888   8.947  17.893  0.00  0.00    +0.000 A 
ATOM     13  C   UNL     1       1.108  10.071  18.189  0.00  0.00    +0.000 A 
BRANCH   8  15
ATOM     14  C   UNL     1      -1.208  11.687  18.931  0.00  0.00    +0.000 C 
ATOM     15  O   UNL     1      -0.221  11.269  19.868  0.00  0.00    +0.000 OA
ENDBRANCH   8  15
ENDBRANCH   1  11
BRANCH   6  16
ATOM     16  C   UNL     1       6.399   6.009  17.719  0.00  0.00    +0.000 C 
ATOM     17  C   UNL     1       7.218   5.602  18.948  0.00  0.00    +0.000 C 
BRANCH  16  18
ATOM     18  C   UNL     1       6.887   5.242  16.476  0.00  0.00    +0.000 C 
ATOM     19  O   UNL     1       7.880   4.513  16.533  0.00  0.00    +0.000 OA
ATOM     20  N   UNL     1       6.198   5.534  15.303  0.00  0.00    +0.000 N 
ATOM     21  H   UNL     1       5.523   6.288  15.294  0.00  0.00    +0.000 HD
BRANCH  20  22
ATOM     22  C   UNL     1       6.501   4.883  14.126  0.00  0.00    +0.000 A 
ATOM     23  C   UNL     1       5.998   3.737  13.558  0.00  0.00    +0.000 A 
ATOM     24  C   UNL     1       6.742   3.576  12.363  0.00  0.00    +0.000 A 
ATOM     25  C   UNL     1       6.645   2.521  11.329  0.00  0.00    +0.000 C 
ATOM     26  N   UNL     1       7.647   4.548  12.220  0.00  0.00    +0.000 NA
ATOM     27  O   UNL     1       7.486   5.371  13.318  0.00  0.00    +0.000 OA
ENDBRANCH  20  22
ENDBRANCH  16  18
ENDBRANCH   6  16
TORSDOF 5
ENDMDL
MODEL 5
REMARK VINA RESULT:      -8.0      1.990      2.554
REMARK  Name = 
REMARK  8 active torsions:
REMARK  status: ('A' for Active; 'I' for Inactive)
REMARK    1  A    between atoms: C_1  and  O_2
REMARK    2  A    between atoms: O_2  and  C_3
REMARK    3  A    between atoms: C_6  and  C_7
REMARK    4  A    between atoms: N_12  and  C_13
REMARK    5  A    between atoms: C_13  and  C_14
REMARK    6  A    between atoms: C_13  and  C_15
REMARK    7  A    between atoms: N_17  and  C_18
REMARK    8  A    between atoms: C_20  and  C_21
REMARK                            x       y       z     vdW  Elec       q    Type
REMARK                         _______ _______ _______ _____ _____    ______ ____
ROOT
ATOM      1  C   UNL     1       2.329   6.006  19.728  0.00  0.00    +0.000 A 
ATOM      2  C   UNL     1       1.912   5.559  21.075  0.00  0.00    +0.000 A 
ATOM      3  C   UNL     1       2.159   4.287  21.391  0.00  0.00    +0.000 A 
ATOM      4  C   UNL     1       2.849   3.388  20.445  0.00  0.00    +0.000 A 
ATOM      5  O   UNL     1       3.152   2.250  20.800  0.00  0.00    +0.000 OA
ATOM      6  N   UNL     1       3.136   3.915  19.196  0.00  0.00    +0.000 N 
ATOM      7  N   UNL     1       2.890   5.229  18.854  0.00  0.00    +0.000 NA
ENDROOT
BRANCH   1  11
ATOM      8  C   UNL     1       1.485  10.113  18.766  0.00  0.00    +0.000 A 
ATOM      9  C   UNL     1       2.122   9.298  17.829  0.00  0.00    +0.000 A 
ATOM     10  C   UNL     1       2.386   7.955  18.113  0.00  0.00    +0.000 A 
ATOM     11  C   UNL     1       2.036   7.422  19.358  0.00  0.00    +0.000 A 
ATOM     12  C   UNL     1       1.390   8.240  20.295  0.00  0.00    +0.000 A 
ATOM     13  C   UNL     1       1.121   9.583  20.002  0.00  0.00    +0.000 A 
BRANCH   8  15
ATOM     14  C   UNL     1       0.474  12.200  19.224  0.00  0.00    +0.000 C 
ATOM     15  O   UNL     1       1.302  11.411  18.376  0.00  0.00    +0.000 OA
ENDBRANCH   8  15
ENDBRANCH   1  11
BRANCH   6  16
ATOM     16  C   UNL     1       3.817   3.081  18.193  0.00  0.00    +0.000 C 
ATOM     17  C   UNL     1       2.871   2.082  17.517  0.00  0.00    +0.000 C 
BRANCH  16  18
ATOM     18  C   UNL     1       4.505   3.963  17.135  0.00  0.00    +0.000 C 
ATOM     19  O   UNL     1       4.113   5.112  16.918  0.00  0.00    +0.000 OA
ATOM     20  N   UNL     1       5.494   3.322  16.395  0.00  0.00    +0.000 N 
ATOM     21  H   UNL     1       5.625   2.323  16.495  0.00  0.00    +0.000 HD
BRANCH  20  22
ATOM     22  C   UNL     1       6.222   4.009  15.446  0.00  0.00    +0.000 A 
ATOM     23  C   UNL     1       6.269   3.905  14.077  0.00  0.00    +0.000 A 
ATOM     24  C   UNL     1       7.234   4.864  13.681  0.00  0.00    +0.000 A 
ATOM     25  C   UNL     1       7.710   5.215  12.323  0.00  0.00    +0.000 C 
ATOM     26  N   UNL     1       7.750   5.498  14.737  0.00  0.00    +0.000 NA
ATOM     27  O   UNL     1       7.107   4.970  15.839  0.00  0.00    +0.000 OA
ENDBRANCH  20  22
ENDBRANCH  16  18
ENDBRANCH   6  16
TORSDOF 5
ENDMDL
MODEL 6
REMARK VINA RESULT:      -7.9      2.175      4.023
REMARK  Name = 
REMARK  8 active torsions:
REMARK  status: ('A' for Active; 'I' for Inactive)
REMARK    1  A    between atoms: C_1  and  O_2
REMARK    2  A    between atoms: O_2  and  C_3
REMARK    3  A    between atoms: C_6  and  C_7
REMARK    4  A    between atoms: N_12  and  C_13
REMARK    5  A    between atoms: C_13  and  C_14
REMARK    6  A    between atoms: C_13  and  C_15
REMARK    7  A    between atoms: N_17  and  C_18
REMARK    8  A    between atoms: C_20  and  C_21
REMARK                            x       y       z     vdW  Elec       q    Type
REMARK                         _______ _______ _______ _____ _____    ______ ____
ROOT
ATOM      1  C   UNL     1       2.692   5.446  18.529  0.00  0.00    +0.000 A 
ATOM      2  C   UNL     1       1.836   4.293  18.884  0.00  0.00    +0.000 A 
ATOM      3  C   UNL     1       2.256   3.089  18.494  0.00  0.00    +0.000 A 
ATOM      4  C   UNL     1       3.536   2.925  17.774  0.00  0.00    +0.000 A 
ATOM      5  O   UNL     1       3.946   1.795  17.516  0.00  0.00    +0.000 OA
ATOM      6  N   UNL     1       4.214   4.090  17.456  0.00  0.00    +0.000 N 
ATOM      7  N   UNL     1       3.794   5.344  17.854  0.00  0.00    +0.000 NA
ENDROOT
BRANCH   1  11
ATOM      8  C   UNL     1       1.293   9.366  19.617  0.00  0.00    +0.000 A 
ATOM      9  C   UNL     1       1.344   8.356  20.579  0.00  0.00    +0.000 A 
ATOM     10  C   UNL     1       1.817   7.082  20.252  0.00  0.00    +0.000 A 
ATOM     11  C   UNL     1       2.217   6.800  18.942  0.00  0.00    +0.000 A 
ATOM     12  C   UNL     1       2.171   7.817  17.979  0.00  0.00    +0.000 A 
ATOM     13  C   UNL     1       1.705   9.094  18.313  0.00  0.00    +0.000 A 
BRANCH   8  15
ATOM     14  C   UNL     1       0.778  11.614  19.099  0.00  0.00    +0.000 C 
ATOM     15  O   UNL     1       0.793  10.560  20.056  0.00  0.00    +0.000 OA
ENDBRANCH   8  15
ENDBRANCH   1  11
BRANCH   6  16
ATOM     16  C   UNL     1       5.493   4.014  16.732  0.00  0.00    +0.000 C 
ATOM     17  C   UNL     1       5.347   4.331  15.241  0.00  0.00    +0.000 C 
BRANCH  16  18
ATOM     18  C   UNL     1       6.534   4.948  17.377  0.00  0.00    +0.000 C 
ATOM     19  O   UNL     1       7.462   4.492  18.049  0.00  0.00    +0.000 OA
ATOM     20  N   UNL     1       6.268   6.306  17.232  0.00  0.00    +0.000 N 
ATOM     21  H   UNL     1       5.385   6.603  16.837  0.00  0.00    +0.000 HD
BRANCH  20  22
ATOM     22  C   UNL     1       7.144   7.253  17.720  0.00  0.00    +0.000 A 
ATOM     23  C   UNL     1       7.376   8.558  17.357  0.00  0.00    +0.000 A 
ATOM     24  C   UNL     1       8.419   8.985  18.216  0.00  0.00    +0.000 A 
ATOM     25  C   UNL     1       9.089  10.303  18.299  0.00  0.00    +0.000 C 
ATOM     26  N   UNL     1       8.806   8.004  19.035  0.00  0.00    +0.000 NA
ATOM     27  O   UNL     1       7.999   6.925  18.731  0.00  0.00    +0.000 OA
ENDBRANCH  20  22
ENDBRANCH  16  18
ENDBRANCH   6  16
TORSDOF 5
ENDMDL
MODEL 7
REMARK VINA RESULT:      -7.9      1.981      2.759
REMARK  Name = 
REMARK  8 active torsions:
REMARK  status: ('A' for Active; 'I' for Inactive)
REMARK    1  A    between atoms: C_1  and  O_2
REMARK    2  A    between atoms: O_2  and  C_3
REMARK    3  A    between atoms: C_6  and  C_7
REMARK    4  A    between atoms: N_12  and  C_13
REMARK    5  A    between atoms: C_13  and  C_14
REMARK    6  A    between atoms: C_13  and  C_15
REMARK    7  A    between atoms: N_17  and  C_18
REMARK    8  A    between atoms: C_20  and  C_21
REMARK                            x       y       z     vdW  Elec       q    Type
REMARK                         _______ _______ _______ _____ _____    ______ ____
ROOT
ATOM      1  C   UNL     1       2.358   5.904  19.802  0.00  0.00    +0.000 A 
ATOM      2  C   UNL     1       1.968   5.429  21.148  0.00  0.00    +0.000 A 
ATOM      3  C   UNL     1       2.238   4.156  21.439  0.00  0.00    +0.000 A 
ATOM      4  C   UNL     1       2.926   3.282  20.467  0.00  0.00    +0.000 A 
ATOM      5  O   UNL     1       3.251   2.144  20.798  0.00  0.00    +0.000 OA
ATOM      6  N   UNL     1       3.186   3.835  19.223  0.00  0.00    +0.000 N 
ATOM      7  N   UNL     1       2.916   5.151  18.908  0.00  0.00    +0.000 NA
ENDROOT
BRANCH   1  11
ATOM      8  C   UNL     1       1.431   9.962  18.715  0.00  0.00    +0.000 A 
ATOM      9  C   UNL     1       1.131   9.502  19.998  0.00  0.00    +0.000 A 
ATOM     10  C   UNL     1       1.445   8.194  20.379  0.00  0.00    +0.000 A 
ATOM     11  C   UNL     1       2.039   7.322  19.461  0.00  0.00    +0.000 A 
ATOM     12  C   UNL     1       2.345   7.788  18.175  0.00  0.00    +0.000 A 
ATOM     13  C   UNL     1       2.036   9.101  17.801  0.00  0.00    +0.000 A 
BRANCH   8  15
ATOM     14  C   UNL     1       2.118  12.197  18.368  0.00  0.00    +0.000 C 
ATOM     15  O   UNL     1       1.057  11.252  18.460  0.00  0.00    +0.000 OA
ENDBRANCH   8  15
ENDBRANCH   1  11
BRANCH   6  16
ATOM     16  C   UNL     1       3.863   3.027  18.195  0.00  0.00    +0.000 C 
ATOM     17  C   UNL     1       2.901   2.095  17.451  0.00  0.00    +0.000 C 
BRANCH  16  18
ATOM     18  C   UNL     1       4.605   3.935  17.198  0.00  0.00    +0.000 C 
ATOM     19  O   UNL     1       4.398   5.151  17.175  0.00  0.00    +0.000 OA
ATOM     20  N   UNL     1       5.409   3.262  16.283  0.00  0.00    +0.000 N 
ATOM     21  H   UNL     1       5.376   2.251  16.237  0.00  0.00    +0.000 HD
BRANCH  20  22
ATOM     22  C   UNL     1       6.166   3.957  15.364  0.00  0.00    +0.000 A 
ATOM     23  C   UNL     1       6.204   3.916  13.990  0.00  0.00    +0.000 A 
ATOM     24  C   UNL     1       7.212   4.845  13.634  0.00  0.00    +0.000 A 
ATOM     25  C   UNL     1       7.699   5.237  12.292  0.00  0.00    +0.000 C 
ATOM     26  N   UNL     1       7.761   5.404  14.716  0.00  0.00    +0.000 NA
ATOM     27  O   UNL     1       7.097   4.856  15.796  0.00  0.00    +0.000 OA
ENDBRANCH  20  22
ENDBRANCH  16  18
ENDBRANCH   6  16
TORSDOF 5
ENDMDL
MODEL 8
REMARK VINA RESULT:      -7.9      4.544      8.888
REMARK  Name = 
REMARK  8 active torsions:
REMARK  status: ('A' for Active; 'I' for Inactive)
REMARK    1  A    between atoms: C_1  and  O_2
REMARK    2  A    between atoms: O_2  and  C_3
REMARK    3  A    between atoms: C_6  and  C_7
REMARK    4  A    between atoms: N_12  and  C_13
REMARK    5  A    between atoms: C_13  and  C_14
REMARK    6  A    between atoms: C_13  and  C_15
REMARK    7  A    between atoms: N_17  and  C_18
REMARK    8  A    between atoms: C_20  and  C_21
REMARK                            x       y       z     vdW  Elec       q    Type
REMARK                         _______ _______ _______ _____ _____    ______ ____
ROOT
ATOM      1  C   UNL     1       0.628   9.331  20.790  0.00  0.00    +0.000 A 
ATOM      2  C   UNL     1       0.577   8.997  22.230  0.00  0.00    +0.000 A 
ATOM      3  C   UNL     1      -0.143   9.803  23.011  0.00  0.00    +0.000 A 
ATOM      4  C   UNL     1      -0.879  10.953  22.445  0.00  0.00    +0.000 A 
ATOM      5  O   UNL     1      -1.613  11.619  23.171  0.00  0.00    +0.000 OA
ATOM      6  N   UNL     1      -0.702  11.187  21.092  0.00  0.00    +0.000 N 
ATOM      7  N   UNL     1       0.038  10.361  20.270  0.00  0.00    +0.000 NA
ENDROOT
BRANCH   1  11
ATOM      8  C   UNL     1       3.032   6.867  18.210  0.00  0.00    +0.000 A 
ATOM      9  C   UNL     1       2.723   6.428  19.498  0.00  0.00    +0.000 A 
ATOM     10  C   UNL     1       1.924   7.203  20.344  0.00  0.00    +0.000 A 
ATOM     11  C   UNL     1       1.451   8.446  19.913  0.00  0.00    +0.000 A 
ATOM     12  C   UNL     1       1.758   8.883  18.617  0.00  0.00    +0.000 A 
ATOM     13  C   UNL     1       2.550   8.099  17.771  0.00  0.00    +0.000 A 
BRANCH   8  15
ATOM     14  C   UNL     1       3.627   4.637  17.701  0.00  0.00    +0.000 C 
ATOM     15  O   UNL     1       3.836   6.029  17.489  0.00  0.00    +0.000 OA
ENDBRANCH   8  15
ENDBRANCH   1  11
BRANCH   6  16
ATOM     16  C   UNL     1      -1.394  12.318  20.452  0.00  0.00    +0.000 C 
ATOM     17  C   UNL     1      -0.672  13.652  20.672  0.00  0.00    +0.000 C 
BRANCH  16  18
ATOM     18  C   UNL     1      -1.582  12.055  18.947  0.00  0.00    +0.000 C 
ATOM     19  O   UNL     1      -1.047  12.782  18.107  0.00  0.00    +0.000 OA
ATOM     20  N   UNL     1      -2.472  11.031  18.641  0.00  0.00    +0.000 N 
ATOM     21  H   UNL     1      -3.023  10.609  19.379  0.00  0.00    +0.000 HD
BRANCH  20  22
ATOM     22  C   UNL     1      -2.697  10.659  17.332  0.00  0.00    +0.000 A 
ATOM     23  C   UNL     1      -3.691  10.995  16.443  0.00  0.00    +0.000 A 
ATOM     24  C   UNL     1      -3.380  10.262  15.270  0.00  0.00    +0.000 A 
ATOM     25  C   UNL     1      -4.089  10.222  13.971  0.00  0.00    +0.000 C 
ATOM     26  N   UNL     1      -2.282   9.520  15.438  0.00  0.00    +0.000 NA
ATOM     27  O   UNL     1      -1.850   9.780  16.724  0.00  0.00    +0.000 OA
ENDBRANCH  20  22
ENDBRANCH  16  18
ENDBRANCH   6  16
TORSDOF 5
ENDMDL
MODEL 9
REMARK VINA RESULT:      -7.8      2.423      4.240
REMARK  Name = 
REMARK  8 active torsions:
REMARK  status: ('A' for Active; 'I' for Inactive)
REMARK    1  A    between atoms: C_1  and  O_2
REMARK    2  A    between atoms: O_2  and  C_3
REMARK    3  A    between atoms: C_6  and  C_7
REMARK    4  A    between atoms: N_12  and  C_13
REMARK    5  A    between atoms: C_13  and  C_14
REMARK    6  A    between atoms: C_13  and  C_15
REMARK    7  A    between atoms: N_17  and  C_18
REMARK    8  A    between atoms: C_20  and  C_21
REMARK                            x       y       z     vdW  Elec       q    Type
REMARK                         _______ _______ _______ _____ _____    ______ ____
ROOT
ATOM      1  C   UNL     1       2.920   5.948  18.188  0.00  0.00    +0.000 A 
ATOM      2  C   UNL     1       1.979   4.824  17.982  0.00  0.00    +0.000 A 
ATOM      3  C   UNL     1       2.505   3.659  17.604  0.00  0.00    +0.000 A 
ATOM      4  C   UNL     1       3.964   3.501  17.437  0.00  0.00    +0.000 A 
ATOM      5  O   UNL     1       4.429   2.391  17.185  0.00  0.00    +0.000 OA
ATOM      6  N   UNL     1       4.727   4.645  17.606  0.00  0.00    +0.000 N 
ATOM      7  N   UNL     1       4.199   5.857  17.999  0.00  0.00    +0.000 NA
ENDROOT
BRANCH   1  11
ATOM      8  C   UNL     1       1.201   9.748  19.243  0.00  0.00    +0.000 A 
ATOM      9  C   UNL     1       1.383   8.772  20.224  0.00  0.00    +0.000 A 
ATOM     10  C   UNL     1       1.960   7.539  19.907  0.00  0.00    +0.000 A 
ATOM     11  C   UNL     1       2.336   7.262  18.588  0.00  0.00    +0.000 A 
ATOM     12  C   UNL     1       2.158   8.245  17.606  0.00  0.00    +0.000 A 
ATOM     13  C   UNL     1       1.587   9.481  17.930  0.00  0.00    +0.000 A 
BRANCH   8  15
ATOM     14  C   UNL     1       0.672  11.142  21.077  0.00  0.00    +0.000 C 
ATOM     15  O   UNL     1       0.609  10.901  19.675  0.00  0.00    +0.000 OA
ENDBRANCH   8  15
ENDBRANCH   1  11
BRANCH   6  16
ATOM     16  C   UNL     1       6.190   4.573  17.450  0.00  0.00    +0.000 C 
ATOM     17  C   UNL     1       6.620   4.447  15.985  0.00  0.00    +0.000 C 
BRANCH  16  18
ATOM     18  C   UNL     1       6.862   5.797  18.099  0.00  0.00    +0.000 C 
ATOM     19  O   UNL     1       7.146   5.799  19.299  0.00  0.00    +0.000 OA
ATOM     20  N   UNL     1       7.003   6.898  17.261  0.00  0.00    +0.000 N 
ATOM     21  H   UNL     1       6.569   6.890  16.346  0.00  0.00    +0.000 HD
BRANCH  20  22
ATOM     22  C   UNL     1       7.632   8.044  17.701  0.00  0.00    +0.000 A 
ATOM     23  C   UNL     1       8.604   8.247  18.651  0.00  0.00    +0.000 A 
ATOM     24  C   UNL     1       8.804   9.650  18.660  0.00  0.00    +0.000 A 
ATOM     25  C   UNL     1       9.735  10.462  19.477  0.00  0.00    +0.000 C 
ATOM     26  N   UNL     1       7.999  10.261  17.787  0.00  0.00    +0.000 NA
ATOM     27  O   UNL     1       7.275   9.253  17.180  0.00  0.00    +0.000 OA
ENDBRANCH  20  22
ENDBRANCH  16  18
ENDBRANCH   6  16
TORSDOF 5
ENDMDL
