MODEL 1
REMARK VINA RESULT:      -9.8      0.000      0.000
REMARK  Name = 
REMARK  6 active torsions:
REMARK  status: ('A' for Active; 'I' for Inactive)
REMARK    1  A    between atoms: C_1  and  C_2
REMARK    2  A    between atoms: C_5  and  C_6
REMARK    3  A    between atoms: C_12  and  C_13
REMARK    4  A    between atoms: C_13  and  O_14
REMARK    5  A    between atoms: O_14  and  C_15
REMARK    6  A    between atoms: C_18  and  C_19
REMARK                            x       y       z     vdW  Elec       q    Type
REMARK                         _______ _______ _______ _____ _____    ______ ____
ROOT
ATOM      1  C   UNL     1       2.434   7.527  19.055  0.00  0.00    +0.000 A 
ATOM      2  C   UNL     1       2.388   8.295  17.905  0.00  0.00    +0.000 A 
ATOM      3  C   UNL     1       1.588   9.438  17.907  0.00  0.00    +0.000 A 
ATOM      4  C   UNL     1       0.842   9.755  19.046  0.00  0.00    +0.000 A 
ATOM      5  C   UNL     1       1.006   8.953  20.163  0.00  0.00    +0.000 A 
ATOM      6  N   UNL     1       1.760   7.832  20.185  0.00  0.00    +0.000 NA
ENDROOT
BRANCH   4   7
ATOM      7  C   UNL     1       0.001  10.970  19.060  0.00  0.00    +0.000 C 
ATOM      8  O   UNL     1       0.411  11.913  19.735  0.00  0.00    +0.000 OA
ATOM      9  N   UNL     1      -1.199  11.022  18.347  0.00  0.00    +0.000 N 
ATOM     10  C   UNL     1      -1.666  10.083  17.321  0.00  0.00    +0.000 C 
ATOM     11  C   UNL     1      -3.072   9.620  17.671  0.00  0.00    +0.000 C 
ATOM     12  C   UNL     1      -3.977  10.833  17.800  0.00  0.00    +0.000 C 
ATOM     13  F   UNL     1      -5.217  10.432  18.177  0.00  0.00    +0.000 F 
ATOM     14  F   UNL     1      -4.118  11.409  16.576  0.00  0.00    +0.000 F 
ATOM     15  C   UNL     1      -3.459  11.865  18.783  0.00  0.00    +0.000 C 
ATOM     16  C   UNL     1      -2.019  12.230  18.457  0.00  0.00    +0.000 C 
ENDBRANCH   4   7
BRANCH   1  17
ATOM     17  O   UNL     1       3.213   6.388  19.023  0.00  0.00    +0.000 OA
BRANCH  17  18
ATOM     18  C   UNL     1       2.413   5.207  19.142  0.00  0.00    +0.000 C 
BRANCH  18  24
ATOM     19  C   UNL     1       1.797   3.103  21.652  0.00  0.00    +0.000 C 
ATOM     20  C   UNL     1       2.886   3.172  20.658  0.00  0.00    +0.000 A 
ATOM     21  O   UNL     1       3.835   2.207  20.734  0.00  0.00    +0.000 OA
ATOM     22  N   UNL     1       4.786   2.416  19.763  0.00  0.00    +0.000 NA
ATOM     23  C   UNL     1       4.426   3.525  19.098  0.00  0.00    +0.000 A 
ATOM     24  C   UNL     1       3.182   4.026  19.618  0.00  0.00    +0.000 A 
BRANCH  23  25
ATOM     25  C   UNL     1       5.261   4.039  18.004  0.00  0.00    +0.000 A 
ATOM     26  C   UNL     1       4.870   3.849  16.669  0.00  0.00    +0.000 A 
ATOM     27  C   UNL     1       5.663   4.315  15.616  0.00  0.00    +0.000 A 
ATOM     28  C   UNL     1       6.854   4.986  15.881  0.00  0.00    +0.000 A 
ATOM     29  C   UNL     1       7.261   5.174  17.198  0.00  0.00    +0.000 A 
ATOM     30  C   UNL     1       6.476   4.693  18.250  0.00  0.00    +0.000 A 
ENDBRANCH  23  25
ENDBRANCH  18  24
ENDBRANCH  17  18
ENDBRANCH   1  17
TORSDOF 5
ENDMDL
MODEL 2
REMARK VINA RESULT:      -9.6      0.681      1.096
REMARK  Name = 
REMARK  6 active torsions:
REMARK  status: ('A' for Active; 'I' for Inactive)
REMARK    1  A    between atoms: C_1  and  C_2
REMARK    2  A    between atoms: C_5  and  C_6
REMARK    3  A    between atoms: C_12  and  C_13
REMARK    4  A    between atoms: C_13  and  O_14
REMARK    5  A    between atoms: O_14  and  C_15
REMARK    6  A    between atoms: C_18  and  C_19
REMARK                            x       y       z     vdW  Elec       q    Type
REMARK                         _______ _______ _______ _____ _____    ______ ____
ROOT
ATOM      1  C   UNL     1       2.534   7.555  18.822  0.00  0.00    +0.000 A 
ATOM      2  C   UNL     1       2.437   8.412  17.740  0.00  0.00    +0.000 A 
ATOM      3  C   UNL     1       1.621   9.537  17.861  0.00  0.00    +0.000 A 
ATOM      4  C   UNL     1       0.912   9.750  19.046  0.00  0.00    +0.000 A 
ATOM      5  C   UNL     1       1.127   8.864  20.090  0.00  0.00    +0.000 A 
ATOM      6  N   UNL     1       1.897   7.758  19.996  0.00  0.00    +0.000 NA
ENDROOT
BRANCH   4   7
ATOM      7  C   UNL     1       0.055  10.945  19.188  0.00  0.00    +0.000 C 
ATOM      8  O   UNL     1       0.449  11.814  19.964  0.00  0.00    +0.000 OA
ATOM      9  N   UNL     1      -1.141  11.060  18.476  0.00  0.00    +0.000 N 
ATOM     10  C   UNL     1      -1.590  10.233  17.350  0.00  0.00    +0.000 C 
ATOM     11  C   UNL     1      -2.992   9.717  17.637  0.00  0.00    +0.000 C 
ATOM     12  C   UNL     1      -3.914  10.897  17.890  0.00  0.00    +0.000 C 
ATOM     13  F   UNL     1      -5.150  10.442  18.212  0.00  0.00    +0.000 F 
ATOM     14  F   UNL     1      -4.055  11.602  16.736  0.00  0.00    +0.000 F 
ATOM     15  C   UNL     1      -3.415  11.822  18.984  0.00  0.00    +0.000 C 
ATOM     16  C   UNL     1      -1.978  12.239  18.711  0.00  0.00    +0.000 C 
ENDBRANCH   4   7
BRANCH   1  17
ATOM     17  O   UNL     1       3.328   6.436  18.672  0.00  0.00    +0.000 OA
BRANCH  17  18
ATOM     18  C   UNL     1       3.176   5.539  19.777  0.00  0.00    +0.000 C 
BRANCH  18  24
ATOM     19  C   UNL     1       1.271   3.056  20.925  0.00  0.00    +0.000 C 
ATOM     20  C   UNL     1       2.293   3.114  19.861  0.00  0.00    +0.000 A 
ATOM     21  O   UNL     1       2.527   1.963  19.186  0.00  0.00    +0.000 OA
ATOM     22  N   UNL     1       3.512   2.169  18.248  0.00  0.00    +0.000 NA
ATOM     23  C   UNL     1       3.895   3.451  18.360  0.00  0.00    +0.000 A 
ATOM     24  C   UNL     1       3.106   4.111  19.366  0.00  0.00    +0.000 A 
BRANCH  23  25
ATOM     25  C   UNL     1       4.965   3.984  17.508  0.00  0.00    +0.000 A 
ATOM     26  C   UNL     1       6.184   4.387  18.076  0.00  0.00    +0.000 A 
ATOM     27  C   UNL     1       7.206   4.915  17.282  0.00  0.00    +0.000 A 
ATOM     28  C   UNL     1       7.029   5.040  15.906  0.00  0.00    +0.000 A 
ATOM     29  C   UNL     1       5.823   4.654  15.328  0.00  0.00    +0.000 A 
ATOM     30  C   UNL     1       4.796   4.141  16.125  0.00  0.00    +0.000 A 
ENDBRANCH  23  25
ENDBRANCH  18  24
ENDBRANCH  17  18
ENDBRANCH   1  17
TORSDOF 5
ENDMDL
MODEL 3
REMARK VINA RESULT:      -9.5      1.309      1.424
REMARK  Name = 
REMARK  6 active torsions:
REMARK  status: ('A' for Active; 'I' for Inactive)
REMARK    1  A    between atoms: C_1  and  C_2
REMARK    2  A    between atoms: C_5  and  C_6
REMARK    3  A    between atoms: C_12  and  C_13
REMARK    4  A    between atoms: C_13  and  O_14
REMARK    5  A    between atoms: O_14  and  C_15
REMARK    6  A    between atoms: C_18  and  C_19
REMARK                            x       y       z     vdW  Elec       q    Type
REMARK                         _______ _______ _______ _____ _____    ______ ____
ROOT
ATOM      1  C   UNL     1       2.335   7.528  19.406  0.00  0.00    +0.000 A 
ATOM      2  C   UNL     1       2.329   8.149  18.170  0.00  0.00    +0.000 A 
ATOM      3  C   UNL     1       1.551   9.296  18.012  0.00  0.00    +0.000 A 
ATOM      4  C   UNL     1       0.786   9.763  19.084  0.00  0.00    +0.000 A 
ATOM      5  C   UNL     1       0.910   9.104  20.296  0.00  0.00    +0.000 A 
ATOM      6  N   UNL     1       1.642   7.982  20.473  0.00  0.00    +0.000 NA
ENDROOT
BRANCH   4   7
ATOM      7  C   UNL     1      -0.032  10.984  18.929  0.00  0.00    +0.000 C 
ATOM      8  O   UNL     1       0.390  12.001  19.477  0.00  0.00    +0.000 OA
ATOM      9  N   UNL     1      -1.225  10.962  18.202  0.00  0.00    +0.000 N 
ATOM     10  C   UNL     1      -1.701   9.904  17.304  0.00  0.00    +0.000 C 
ATOM     11  C   UNL     1      -3.119   9.516  17.697  0.00  0.00    +0.000 C 
ATOM     12  C   UNL     1      -4.002  10.751  17.654  0.00  0.00    +0.000 C 
ATOM     13  F   UNL     1      -5.252  10.426  18.068  0.00  0.00    +0.000 F 
ATOM     14  F   UNL     1      -4.121  11.162  16.364  0.00  0.00    +0.000 F 
ATOM     15  C   UNL     1      -3.472  11.895  18.498  0.00  0.00    +0.000 C 
ATOM     16  C   UNL     1      -2.023  12.189  18.142  0.00  0.00    +0.000 C 
ENDBRANCH   4   7
BRANCH   1  17
ATOM     17  O   UNL     1       3.093   6.382  19.534  0.00  0.00    +0.000 OA
BRANCH  17  18
ATOM     18  C   UNL     1       2.264   5.220  19.642  0.00  0.00    +0.000 C 
BRANCH  18  24
ATOM     19  C   UNL     1       0.739   2.359  18.870  0.00  0.00    +0.000 C 
ATOM     20  C   UNL     1       2.028   2.942  18.450  0.00  0.00    +0.000 A 
ATOM     21  O   UNL     1       2.762   2.215  17.572  0.00  0.00    +0.000 OA
ATOM     22  N   UNL     1       3.936   2.875  17.294  0.00  0.00    +0.000 NA
ATOM     23  C   UNL     1       3.929   4.005  18.018  0.00  0.00    +0.000 A 
ATOM     24  C   UNL     1       2.696   4.109  18.751  0.00  0.00    +0.000 A 
BRANCH  23  25
ATOM     25  C   UNL     1       5.071   4.927  17.966  0.00  0.00    +0.000 A 
ATOM     26  C   UNL     1       5.154   5.890  16.948  0.00  0.00    +0.000 A 
ATOM     27  C   UNL     1       6.244   6.763  16.873  0.00  0.00    +0.000 A 
ATOM     28  C   UNL     1       7.262   6.693  17.820  0.00  0.00    +0.000 A 
ATOM     29  C   UNL     1       7.201   5.738  18.830  0.00  0.00    +0.000 A 
ATOM     30  C   UNL     1       6.119   4.855  18.895  0.00  0.00    +0.000 A 
ENDBRANCH  23  25
ENDBRANCH  18  24
ENDBRANCH  17  18
ENDBRANCH   1  17
TORSDOF 5
ENDMDL
MODEL 4
REMARK VINA RESULT:      -9.4      0.627      1.314
REMARK  Name = 
REMARK  6 active torsions:
REMARK  status: ('A' for Active; 'I' for Inactive)
REMARK    1  A    between atoms: C_1  and  C_2
REMARK    2  A    between atoms: C_5  and  C_6
REMARK    3  A    between atoms: C_12  and  C_13
REMARK    4  A    between atoms: C_13  and  O_14
REMARK    5  A    between atoms: O_14  and  C_15
REMARK    6  A    between atoms: C_18  and  C_19
REMARK                            x       y       z     vdW  Elec       q    Type
REMARK                         _______ _______ _______ _____ _____    ______ ____
ROOT
ATOM      1  C   UNL     1       2.281   7.625  19.403  0.00  0.00    +0.000 A 
ATOM      2  C   UNL     1       1.521   7.915  20.523  0.00  0.00    +0.000 A 
ATOM      3  C   UNL     1       0.705   9.045  20.490  0.00  0.00    +0.000 A 
ATOM      4  C   UNL     1       0.698   9.859  19.354  0.00  0.00    +0.000 A 
ATOM      5  C   UNL     1       1.449   9.446  18.266  0.00  0.00    +0.000 A 
ATOM      6  N   UNL     1       2.262   8.367  18.275  0.00  0.00    +0.000 NA
ENDROOT
BRANCH   4   7
ATOM      7  C   UNL     1      -0.173  11.051  19.307  0.00  0.00    +0.000 C 
ATOM      8  O   UNL     1       0.162  12.004  20.009  0.00  0.00    +0.000 OA
ATOM      9  N   UNL     1      -1.320  11.073  18.510  0.00  0.00    +0.000 N 
ATOM     10  C   UNL     1      -1.688  10.123  17.454  0.00  0.00    +0.000 C 
ATOM     11  C   UNL     1      -3.103   9.623  17.702  0.00  0.00    +0.000 C 
ATOM     12  C   UNL     1      -4.046  10.812  17.764  0.00  0.00    +0.000 C 
ATOM     13  F   UNL     1      -5.298  10.378  18.052  0.00  0.00    +0.000 F 
ATOM     14  F   UNL     1      -4.113  11.385  16.533  0.00  0.00    +0.000 F 
ATOM     15  C   UNL     1      -3.626  11.856  18.781  0.00  0.00    +0.000 C 
ATOM     16  C   UNL     1      -2.177  12.259  18.559  0.00  0.00    +0.000 C 
ENDBRANCH   4   7
BRANCH   1  17
ATOM     17  O   UNL     1       3.100   6.516  19.466  0.00  0.00    +0.000 OA
BRANCH  17  18
ATOM     18  C   UNL     1       2.339   5.305  19.416  0.00  0.00    +0.000 C 
BRANCH  18  24
ATOM     19  C   UNL     1       1.642   2.873  21.587  0.00  0.00    +0.000 C 
ATOM     20  C   UNL     1       2.797   3.111  20.699  0.00  0.00    +0.000 A 
ATOM     21  O   UNL     1       3.783   2.182  20.729  0.00  0.00    +0.000 OA
ATOM     22  N   UNL     1       4.792   2.551  19.870  0.00  0.00    +0.000 NA
ATOM     23  C   UNL     1       4.429   3.721  19.322  0.00  0.00    +0.000 A 
ATOM     24  C   UNL     1       3.127   4.102  19.800  0.00  0.00    +0.000 A 
BRANCH  23  25
ATOM     25  C   UNL     1       5.315   4.403  18.370  0.00  0.00    +0.000 A 
ATOM     26  C   UNL     1       6.380   5.191  18.838  0.00  0.00    +0.000 A 
ATOM     27  C   UNL     1       7.221   5.863  17.947  0.00  0.00    +0.000 A 
ATOM     28  C   UNL     1       7.018   5.751  16.574  0.00  0.00    +0.000 A 
ATOM     29  C   UNL     1       5.962   4.983  16.093  0.00  0.00    +0.000 A 
ATOM     30  C   UNL     1       5.111   4.324  16.986  0.00  0.00    +0.000 A 
ENDBRANCH  23  25
ENDBRANCH  18  24
ENDBRANCH  17  18
ENDBRANCH   1  17
TORSDOF 5
ENDMDL
MODEL 5
REMARK VINA RESULT:      -9.4      0.974      1.199
REMARK  Name = 
REMARK  6 active torsions:
REMARK  status: ('A' for Active; 'I' for Inactive)
REMARK    1  A    between atoms: C_1  and  C_2
REMARK    2  A    between atoms: C_5  and  C_6
REMARK    3  A    between atoms: C_12  and  C_13
REMARK    4  A    between atoms: C_13  and  O_14
REMARK    5  A    between atoms: O_14  and  C_15
REMARK    6  A    between atoms: C_18  and  C_19
REMARK                            x       y       z     vdW  Elec       q    Type
REMARK                         _______ _______ _______ _____ _____    ______ ____
ROOT
ATOM      1  C   UNL     1       2.512   7.748  18.603  0.00  0.00    +0.000 A 
ATOM      2  C   UNL     1       1.865   7.860  19.821  0.00  0.00    +0.000 A 
ATOM      3  C   UNL     1       1.019   8.951  20.021  0.00  0.00    +0.000 A 
ATOM      4  C   UNL     1       0.873   9.904  19.009  0.00  0.00    +0.000 A 
ATOM      5  C   UNL     1       1.517   9.667  17.807  0.00  0.00    +0.000 A 
ATOM      6  N   UNL     1       2.355   8.629  17.591  0.00  0.00    +0.000 NA
ENDROOT
BRANCH   4   7
ATOM      7  C   UNL     1      -0.030  11.057  19.208  0.00  0.00    +0.000 C 
ATOM      8  O   UNL     1       0.329  11.901  20.028  0.00  0.00    +0.000 OA
ATOM      9  N   UNL     1      -1.230  11.161  18.501  0.00  0.00    +0.000 N 
ATOM     10  C   UNL     1      -1.647  10.374  17.335  0.00  0.00    +0.000 C 
ATOM     11  C   UNL     1      -3.028   9.790  17.593  0.00  0.00    +0.000 C 
ATOM     12  C   UNL     1      -3.995  10.919  17.904  0.00  0.00    +0.000 C 
ATOM     13  F   UNL     1      -5.212  10.401  18.200  0.00  0.00    +0.000 F 
ATOM     14  F   UNL     1      -4.163  11.674  16.786  0.00  0.00    +0.000 F 
ATOM     15  C   UNL     1      -3.531  11.807  19.043  0.00  0.00    +0.000 C 
ATOM     16  C   UNL     1      -2.112  12.293  18.794  0.00  0.00    +0.000 C 
ENDBRANCH   4   7
BRANCH   1  17
ATOM     17  O   UNL     1       3.361   6.674  18.436  0.00  0.00    +0.000 OA
BRANCH  17  18
ATOM     18  C   UNL     1       3.288   5.775  19.546  0.00  0.00    +0.000 C 
BRANCH  18  24
ATOM     19  C   UNL     1       1.124   3.489  20.644  0.00  0.00    +0.000 C 
ATOM     20  C   UNL     1       2.180   3.444  19.613  0.00  0.00    +0.000 A 
ATOM     21  O   UNL     1       2.326   2.271  18.950  0.00  0.00    +0.000 OA
ATOM     22  N   UNL     1       3.355   2.377  18.044  0.00  0.00    +0.000 NA
ATOM     23  C   UNL     1       3.852   3.618  18.162  0.00  0.00    +0.000 A 
ATOM     24  C   UNL     1       3.097   4.357  19.139  0.00  0.00    +0.000 A 
BRANCH  23  25
ATOM     25  C   UNL     1       4.994   4.043  17.342  0.00  0.00    +0.000 A 
ATOM     26  C   UNL     1       4.880   4.085  15.943  0.00  0.00    +0.000 A 
ATOM     27  C   UNL     1       5.964   4.468  15.147  0.00  0.00    +0.000 A 
ATOM     28  C   UNL     1       7.174   4.824  15.737  0.00  0.00    +0.000 A 
ATOM     29  C   UNL     1       7.307   4.778  17.121  0.00  0.00    +0.000 A 
ATOM     30  C   UNL     1       6.228   4.379  17.916  0.00  0.00    +0.000 A 
ENDBRANCH  23  25
ENDBRANCH  18  24
ENDBRANCH  17  18
ENDBRANCH   1  17
TORSDOF 5
ENDMDL
MODEL 6
REMARK VINA RESULT:      -9.2      2.547      3.112
REMARK  Name = 
REMARK  6 active torsions:
REMARK  status: ('A' for Active; 'I' for Inactive)
REMARK    1  A    between atoms: C_1  and  C_2
REMARK    2  A    between atoms: C_5  and  C_6
REMARK    3  A    between atoms: C_12  and  C_13
REMARK    4  A    between atoms: C_13  and  O_14
REMARK    5  A    between atoms: O_14  and  C_15
REMARK    6  A    between atoms: C_18  and  C_19
REMARK                            x       y       z     vdW  Elec       q    Type
REMARK                         _______ _______ _______ _____ _____    ______ ____
ROOT
ATOM      1  C   UNL     1       2.317   7.662  18.920  0.00  0.00    +0.000 A 
ATOM      2  C   UNL     1       2.112   8.467  17.813  0.00  0.00    +0.000 A 
ATOM      3  C   UNL     1       1.279   9.577  17.952  0.00  0.00    +0.000 A 
ATOM      4  C   UNL     1       0.660   9.827  19.180  0.00  0.00    +0.000 A 
ATOM      5  C   UNL     1       0.981   8.994  20.239  0.00  0.00    +0.000 A 
ATOM      6  N   UNL     1       1.769   7.903  20.131  0.00  0.00    +0.000 NA
ENDROOT
BRANCH   4   7
ATOM      7  C   UNL     1      -0.214  11.007  19.337  0.00  0.00    +0.000 C 
ATOM      8  O   UNL     1      -1.424  10.811  19.242  0.00  0.00    +0.000 OA
ATOM      9  N   UNL     1       0.325  12.275  19.572  0.00  0.00    +0.000 N 
ATOM     10  C   UNL     1       1.704  12.599  19.954  0.00  0.00    +0.000 C 
ATOM     11  C   UNL     1       2.249  13.658  19.007  0.00  0.00    +0.000 C 
ATOM     12  C   UNL     1       1.338  14.873  19.044  0.00  0.00    +0.000 C 
ATOM     13  F   UNL     1       1.781  15.794  18.153  0.00  0.00    +0.000 F 
ATOM     14  F   UNL     1       1.428  15.453  20.270  0.00  0.00    +0.000 F 
ATOM     15  C   UNL     1      -0.113  14.542  18.752  0.00  0.00    +0.000 C 
ATOM     16  C   UNL     1      -0.592  13.414  19.652  0.00  0.00    +0.000 C 
ENDBRANCH   4   7
BRANCH   1  17
ATOM     17  O   UNL     1       3.125   6.556  18.755  0.00  0.00    +0.000 OA
BRANCH  17  18
ATOM     18  C   UNL     1       2.364   5.344  18.796  0.00  0.00    +0.000 C 
BRANCH  18  24
ATOM     19  C   UNL     1       1.671   3.403  21.416  0.00  0.00    +0.000 C 
ATOM     20  C   UNL     1       2.791   3.412  20.454  0.00  0.00    +0.000 A 
ATOM     21  O   UNL     1       3.738   2.456  20.622  0.00  0.00    +0.000 OA
ATOM     22  N   UNL     1       4.719   2.606  19.669  0.00  0.00    +0.000 NA
ATOM     23  C   UNL     1       4.379   3.668  18.923  0.00  0.00    +0.000 A 
ATOM     24  C   UNL     1       3.119   4.198  19.371  0.00  0.00    +0.000 A 
BRANCH  23  25
ATOM     25  C   UNL     1       5.247   4.114  17.825  0.00  0.00    +0.000 A 
ATOM     26  C   UNL     1       4.858   3.910  16.492  0.00  0.00    +0.000 A 
ATOM     27  C   UNL     1       5.682   4.310  15.435  0.00  0.00    +0.000 A 
ATOM     28  C   UNL     1       6.902   4.929  15.695  0.00  0.00    +0.000 A 
ATOM     29  C   UNL     1       7.307   5.129  17.011  0.00  0.00    +0.000 A 
ATOM     30  C   UNL     1       6.491   4.714  18.067  0.00  0.00    +0.000 A 
ENDBRANCH  23  25
ENDBRANCH  18  24
ENDBRANCH  17  18
ENDBRANCH   1  17
TORSDOF 5
ENDMDL
MODEL 7
REMARK VINA RESULT:      -9.2      1.364      3.395
REMARK  Name = 
REMARK  6 active torsions:
REMARK  status: ('A' for Active; 'I' for Inactive)
REMARK    1  A    between atoms: C_1  and  C_2
REMARK    2  A    between atoms: C_5  and  C_6
REMARK    3  A    between atoms: C_12  and  C_13
REMARK    4  A    between atoms: C_13  and  O_14
REMARK    5  A    between atoms: O_14  and  C_15
REMARK    6  A    between atoms: C_18  and  C_19
REMARK                            x       y       z     vdW  Elec       q    Type
REMARK                         _______ _______ _______ _____ _____    ______ ____
ROOT
ATOM      1  C   UNL     1       2.413   7.667  19.021  0.00  0.00    +0.000 A 
ATOM      2  C   UNL     1       2.262   8.525  17.946  0.00  0.00    +0.000 A 
ATOM      3  C   UNL     1       1.415   9.623  18.093  0.00  0.00    +0.000 A 
ATOM      4  C   UNL     1       0.727   9.808  19.296  0.00  0.00    +0.000 A 
ATOM      5  C   UNL     1       0.996   8.926  20.329  0.00  0.00    +0.000 A 
ATOM      6  N   UNL     1       1.797   7.845  20.211  0.00  0.00    +0.000 NA
ENDROOT
BRANCH   4   7
ATOM      7  C   UNL     1      -0.164  10.975  19.463  0.00  0.00    +0.000 C 
ATOM      8  O   UNL     1       0.158  11.792  20.325  0.00  0.00    +0.000 OA
ATOM      9  N   UNL     1      -1.312  11.121  18.681  0.00  0.00    +0.000 N 
ATOM     10  C   UNL     1      -1.666  10.370  17.471  0.00  0.00    +0.000 C 
ATOM     11  C   UNL     1      -3.072   9.811  17.624  0.00  0.00    +0.000 C 
ATOM     12  C   UNL     1      -4.035  10.954  17.899  0.00  0.00    +0.000 C 
ATOM     13  F   UNL     1      -5.279  10.455  18.102  0.00  0.00    +0.000 F 
ATOM     14  F   UNL     1      -4.114  11.738  16.791  0.00  0.00    +0.000 F 
ATOM     15  C   UNL     1      -3.630  11.804  19.087  0.00  0.00    +0.000 C 
ATOM     16  C   UNL     1      -2.188  12.265  18.943  0.00  0.00    +0.000 C 
ENDBRANCH   4   7
BRANCH   1  17
ATOM     17  O   UNL     1       3.237   6.575  18.847  0.00  0.00    +0.000 OA
BRANCH  17  18
ATOM     18  C   UNL     1       3.536   6.364  17.463  0.00  0.00    +0.000 C 
BRANCH  18  24
ATOM     19  C   UNL     1       5.737   5.412  15.148  0.00  0.00    +0.000 C 
ATOM     20  C   UNL     1       5.045   4.676  16.223  0.00  0.00    +0.000 A 
ATOM     21  O   UNL     1       5.339   3.357  16.338  0.00  0.00    +0.000 OA
ATOM     22  N   UNL     1       4.605   2.807  17.363  0.00  0.00    +0.000 NA
ATOM     23  C   UNL     1       3.846   3.791  17.870  0.00  0.00    +0.000 A 
ATOM     24  C   UNL     1       4.126   5.026  17.189  0.00  0.00    +0.000 A 
BRANCH  23  25
ATOM     25  C   UNL     1       2.916   3.518  18.973  0.00  0.00    +0.000 A 
ATOM     26  C   UNL     1       3.407   3.140  20.233  0.00  0.00    +0.000 A 
ATOM     27  C   UNL     1       2.534   2.857  21.288  0.00  0.00    +0.000 A 
ATOM     28  C   UNL     1       1.157   2.957  21.103  0.00  0.00    +0.000 A 
ATOM     29  C   UNL     1       0.653   3.320  19.858  0.00  0.00    +0.000 A 
ATOM     30  C   UNL     1       1.526   3.587  18.799  0.00  0.00    +0.000 A 
ENDBRANCH  23  25
ENDBRANCH  18  24
ENDBRANCH  17  18
ENDBRANCH   1  17
TORSDOF 5
ENDMDL
MODEL 8
REMARK VINA RESULT:      -9.0      1.394      3.419
REMARK  Name = 
REMARK  6 active torsions:
REMARK  status: ('A' for Active; 'I' for Inactive)
REMARK    1  A    between atoms: C_1  and  C_2
REMARK    2  A    between atoms: C_5  and  C_6
REMARK    3  A    between atoms: C_12  and  C_13
REMARK    4  A    between atoms: C_13  and  O_14
REMARK    5  A    between atoms: O_14  and  C_15
REMARK    6  A    between atoms: C_18  and  C_19
REMARK                            x       y       z     vdW  Elec       q    Type
REMARK                         _______ _______ _______ _____ _____    ______ ____
ROOT
ATOM      1  C   UNL     1       2.377   7.520  19.224  0.00  0.00    +0.000 A 
ATOM      2  C   UNL     1       1.648   7.814  20.363  0.00  0.00    +0.000 A 
ATOM      3  C   UNL     1       0.855   8.961  20.360  0.00  0.00    +0.000 A 
ATOM      4  C   UNL     1       0.840   9.787  19.232  0.00  0.00    +0.000 A 
ATOM      5  C   UNL     1       1.558   9.369  18.123  0.00  0.00    +0.000 A 
ATOM      6  N   UNL     1       2.348   8.273  18.103  0.00  0.00    +0.000 NA
ENDROOT
BRANCH   4   7
ATOM      7  C   UNL     1      -0.007  10.997  19.216  0.00  0.00    +0.000 C 
ATOM      8  O   UNL     1       0.372  11.941  19.908  0.00  0.00    +0.000 OA
ATOM      9  N   UNL     1      -1.178  11.045  18.456  0.00  0.00    +0.000 N 
ATOM     10  C   UNL     1      -1.600  10.106  17.411  0.00  0.00    +0.000 C 
ATOM     11  C   UNL     1      -3.017   9.635  17.704  0.00  0.00    +0.000 C 
ATOM     12  C   UNL     1      -3.932  10.844  17.800  0.00  0.00    +0.000 C 
ATOM     13  F   UNL     1      -5.183  10.435  18.127  0.00  0.00    +0.000 F 
ATOM     14  F   UNL     1      -4.027  11.421  16.573  0.00  0.00    +0.000 F 
ATOM     15  C   UNL     1      -3.457  11.876  18.804  0.00  0.00    +0.000 C 
ATOM     16  C   UNL     1      -2.008  12.249  18.536  0.00  0.00    +0.000 C 
ENDBRANCH   4   7
BRANCH   1  17
ATOM     17  O   UNL     1       3.173   6.394  19.257  0.00  0.00    +0.000 OA
BRANCH  17  18
ATOM     18  C   UNL     1       4.141   6.410  18.203  0.00  0.00    +0.000 C 
BRANCH  18  24
ATOM     19  C   UNL     1       5.749   5.588  15.402  0.00  0.00    +0.000 C 
ATOM     20  C   UNL     1       4.994   4.788  16.385  0.00  0.00    +0.000 A 
ATOM     21  O   UNL     1       4.924   3.454  16.151  0.00  0.00    +0.000 OA
ATOM     22  N   UNL     1       4.176   2.851  17.136  0.00  0.00    +0.000 NA
ATOM     23  C   UNL     1       3.772   3.823  17.969  0.00  0.00    +0.000 A 
ATOM     24  C   UNL     1       4.310   5.087  17.543  0.00  0.00    +0.000 A 
BRANCH  23  25
ATOM     25  C   UNL     1       2.920   3.506  19.122  0.00  0.00    +0.000 A 
ATOM     26  C   UNL     1       1.531   3.702  19.048  0.00  0.00    +0.000 A 
ATOM     27  C   UNL     1       0.708   3.424  20.143  0.00  0.00    +0.000 A 
ATOM     28  C   UNL     1       1.258   2.938  21.326  0.00  0.00    +0.000 A 
ATOM     29  C   UNL     1       2.634   2.748  21.420  0.00  0.00    +0.000 A 
ATOM     30  C   UNL     1       3.458   3.041  20.330  0.00  0.00    +0.000 A 
ENDBRANCH  23  25
ENDBRANCH  18  24
ENDBRANCH  17  18
ENDBRANCH   1  17
TORSDOF 5
ENDMDL
MODEL 9
REMARK VINA RESULT:      -9.0      1.367      1.812
REMARK  Name = 
REMARK  6 active torsions:
REMARK  status: ('A' for Active; 'I' for Inactive)
REMARK    1  A    between atoms: C_1  and  C_2
REMARK    2  A    between atoms: C_5  and  C_6
REMARK    3  A    between atoms: C_12  and  C_13
REMARK    4  A    between atoms: C_13  and  O_14
REMARK    5  A    between atoms: O_14  and  C_15
REMARK    6  A    between atoms: C_18  and  C_19
REMARK                            x       y       z     vdW  Elec       q    Type
REMARK                         _______ _______ _______ _____ _____    ______ ____
ROOT
ATOM      1  C   UNL     1       2.305   7.679  19.307  0.00  0.00    +0.000 A 
ATOM      2  C   UNL     1       1.573   7.946  20.451  0.00  0.00    +0.000 A 
ATOM      3  C   UNL     1       0.744   9.067  20.456  0.00  0.00    +0.000 A 
ATOM      4  C   UNL     1       0.698   9.896  19.331  0.00  0.00    +0.000 A 
ATOM      5  C   UNL     1       1.423   9.506  18.217  0.00  0.00    +0.000 A 
ATOM      6  N   UNL     1       2.247   8.435  18.189  0.00  0.00    +0.000 NA
ENDROOT
BRANCH   4   7
ATOM      7  C   UNL     1      -0.186  11.080  19.324  0.00  0.00    +0.000 C 
ATOM      8  O   UNL     1       0.139  12.012  20.058  0.00  0.00    +0.000 OA
ATOM      9  N   UNL     1      -1.333  11.116  18.527  0.00  0.00    +0.000 N 
ATOM     10  C   UNL     1      -1.689  10.198  17.439  0.00  0.00    +0.000 C 
ATOM     11  C   UNL     1      -3.099   9.675  17.669  0.00  0.00    +0.000 C 
ATOM     12  C   UNL     1      -4.055  10.850  17.771  0.00  0.00    +0.000 C 
ATOM     13  F   UNL     1      -5.303  10.393  18.042  0.00  0.00    +0.000 F 
ATOM     14  F   UNL     1      -4.128  11.464  16.560  0.00  0.00    +0.000 F 
ATOM     15  C   UNL     1      -3.648  11.864  18.823  0.00  0.00    +0.000 C 
ATOM     16  C   UNL     1      -2.203  12.290  18.616  0.00  0.00    +0.000 C 
ENDBRANCH   4   7
BRANCH   1  17
ATOM     17  O   UNL     1       3.136   6.578  19.332  0.00  0.00    +0.000 OA
BRANCH  17  18
ATOM     18  C   UNL     1       2.406   5.382  19.622  0.00  0.00    +0.000 C 
BRANCH  18  24
ATOM     19  C   UNL     1       0.777   2.570  18.880  0.00  0.00    +0.000 C 
ATOM     20  C   UNL     1       2.103   3.083  18.485  0.00  0.00    +0.000 A 
ATOM     21  O   UNL     1       2.829   2.300  17.651  0.00  0.00    +0.000 OA
ATOM     22  N   UNL     1       4.041   2.899  17.393  0.00  0.00    +0.000 NA
ATOM     23  C   UNL     1       4.063   4.048  18.085  0.00  0.00    +0.000 A 
ATOM     24  C   UNL     1       2.814   4.227  18.776  0.00  0.00    +0.000 A 
BRANCH  23  25
ATOM     25  C   UNL     1       5.245   4.918  18.044  0.00  0.00    +0.000 A 
ATOM     26  C   UNL     1       6.162   4.911  19.107  0.00  0.00    +0.000 A 
ATOM     27  C   UNL     1       7.283   5.747  19.093  0.00  0.00    +0.000 A 
ATOM     28  C   UNL     1       7.510   6.595  18.012  0.00  0.00    +0.000 A 
ATOM     29  C   UNL     1       6.605   6.621  16.954  0.00  0.00    +0.000 A 
ATOM     30  C   UNL     1       5.477   5.797  16.977  0.00  0.00    +0.000 A 
ENDBRANCH  23  25
ENDBRANCH  18  24
ENDBRANCH  17  18
ENDBRANCH   1  17
TORSDOF 5
ENDMDL
