MODEL 1
REMARK VINA RESULT:      -8.3      0.000      0.000
REMARK  Name = 
REMARK  4 active torsions:
REMARK  status: ('A' for Active; 'I' for Inactive)
REMARK    1  A    between atoms: C_2  and  C_4
REMARK    2  A    between atoms: C_6  and  N_7
REMARK    3  A    between atoms: C_15  and  O_16
REMARK    4  A    between atoms: O_16  and  C_17
REMARK                            x       y       z     vdW  Elec       q    Type
REMARK                         _______ _______ _______ _____ _____    ______ ____
ROOT
ATOM      1  N   UNL     1       2.527   7.869  18.153  0.00  0.00    +0.000 N 
ATOM      2  C   UNL     1       1.752   8.394  19.195  0.00  0.00    +0.000 A 
ATOM      3  N   UNL     1       1.865   7.882  20.416  0.00  0.00    +0.000 NA
ATOM      4  C   UNL     1       1.084   8.436  21.330  0.00  0.00    +0.000 A 
ATOM      5  N   UNL     1       0.247   9.440  21.125  0.00  0.00    +0.000 NA
ATOM      6  C   UNL     1       0.221   9.908  19.879  0.00  0.00    +0.000 A 
ATOM      7  N   UNL     1      -0.626  10.992  19.601  0.00  0.00    +0.000 N 
ATOM      8  C   UNL     1      -0.413  11.930  18.542  0.00  0.00    +0.000 C 
ATOM      9  C   UNL     1      -0.637  13.074  19.538  0.00  0.00    +0.000 C 
ATOM     10  C   UNL     1      -0.988  11.985  20.563  0.00  0.00    +0.000 C 
ATOM     11  N   UNL     1       0.952   9.407  18.884  0.00  0.00    +0.000 NA
ATOM     12  H   UNL     1       2.202   8.289  17.290  0.00  0.00    +0.000 HD
ENDROOT
BRANCH   1  15
ATOM     13  C   UNL     1       4.685   4.827  17.884  0.00  0.00    +0.000 A 
ATOM     14  C   UNL     1       4.295   6.166  18.023  0.00  0.00    +0.000 A 
ATOM     15  C   UNL     1       2.941   6.532  18.014  0.00  0.00    +0.000 A 
ATOM     16  C   UNL     1       1.972   5.528  17.920  0.00  0.00    +0.000 A 
ATOM     17  C   UNL     1       2.350   4.192  17.771  0.00  0.00    +0.000 A 
ATOM     18  C   UNL     1       3.700   3.851  17.748  0.00  0.00    +0.000 A 
ATOM     19  F   UNL     1       4.019   2.555  17.596  0.00  0.00    +0.000 F 
BRANCH  13  21
ATOM     20  N   UNL     1       6.731   4.163  16.718  0.00  0.00    +0.000 N 
ATOM     21  C   UNL     1       6.140   4.522  17.893  0.00  0.00    +0.000 C 
ATOM     22  O   UNL     1       6.802   4.583  18.923  0.00  0.00    +0.000 OA
ATOM     23  H   UNL     1       7.722   3.959  16.728  0.00  0.00    +0.000 HD
ATOM     24  H   UNL     1       6.227   4.100  15.842  0.00  0.00    +0.000 HD
ENDBRANCH  13  21
ENDBRANCH   1  15
BRANCH   9  25
ATOM     25  O   UNL     1       0.526  13.895  19.815  0.00  0.00    +0.000 OA
BRANCH  25  26
ATOM     26  C   UNL     1       0.658  15.092  19.154  0.00  0.00    +0.000 A 
ATOM     27  C   UNL     1      -0.406  15.928  18.808  0.00  0.00    +0.000 A 
ATOM     28  C   UNL     1      -0.162  17.125  18.133  0.00  0.00    +0.000 A 
ATOM     29  C   UNL     1       1.142  17.476  17.807  0.00  0.00    +0.000 A 
ATOM     30  F   UNL     1       1.370  18.625  17.158  0.00  0.00    +0.000 F 
ATOM     31  C   UNL     1       2.209  16.653  18.142  0.00  0.00    +0.000 A 
ATOM     32  C   UNL     1       1.966  15.456  18.819  0.00  0.00    +0.000 A 
ENDBRANCH  25  26
ENDBRANCH   9  25
TORSDOF 4
ENDMDL
MODEL 2
REMARK VINA RESULT:      -8.2      0.647      1.104
REMARK  Name = 
REMARK  4 active torsions:
REMARK  status: ('A' for Active; 'I' for Inactive)
REMARK    1  A    between atoms: C_2  and  C_4
REMARK    2  A    between atoms: C_6  and  N_7
REMARK    3  A    between atoms: C_15  and  O_16
REMARK    4  A    between atoms: O_16  and  C_17
REMARK                            x       y       z     vdW  Elec       q    Type
REMARK                         _______ _______ _______ _____ _____    ______ ____
ROOT
ATOM      1  N   UNL     1       2.653   7.852  18.050  0.00  0.00    +0.000 N 
ATOM      2  C   UNL     1       1.869   8.349  19.099  0.00  0.00    +0.000 A 
ATOM      3  N   UNL     1       1.961   7.795  20.304  0.00  0.00    +0.000 NA
ATOM      4  C   UNL     1       1.173   8.326  21.225  0.00  0.00    +0.000 A 
ATOM      5  N   UNL     1       0.348   9.344  21.043  0.00  0.00    +0.000 NA
ATOM      6  C   UNL     1       0.343   9.854  19.813  0.00  0.00    +0.000 A 
ATOM      7  N   UNL     1      -0.491  10.954  19.560  0.00  0.00    +0.000 N 
ATOM      8  C   UNL     1      -0.255  11.925  18.537  0.00  0.00    +0.000 C 
ATOM      9  C   UNL     1      -0.482  13.038  19.567  0.00  0.00    +0.000 C 
ATOM     10  C   UNL     1      -0.857  11.919  20.550  0.00  0.00    +0.000 C 
ATOM     11  N   UNL     1       1.083   9.379  18.811  0.00  0.00    +0.000 NA
ATOM     12  H   UNL     1       2.344   8.303  17.197  0.00  0.00    +0.000 HD
ENDROOT
BRANCH   1  15
ATOM     13  C   UNL     1       4.777   4.827  17.477  0.00  0.00    +0.000 A 
ATOM     14  C   UNL     1       4.396   6.165  17.651  0.00  0.00    +0.000 A 
ATOM     15  C   UNL     1       3.057   6.516  17.872  0.00  0.00    +0.000 A 
ATOM     16  C   UNL     1       2.101   5.499  17.973  0.00  0.00    +0.000 A 
ATOM     17  C   UNL     1       2.468   4.164  17.791  0.00  0.00    +0.000 A 
ATOM     18  C   UNL     1       3.798   3.838  17.540  0.00  0.00    +0.000 A 
ATOM     19  F   UNL     1       4.105   2.542  17.364  0.00  0.00    +0.000 F 
BRANCH  13  21
ATOM     20  N   UNL     1       7.014   4.307  18.318  0.00  0.00    +0.000 N 
ATOM     21  C   UNL     1       6.215   4.539  17.238  0.00  0.00    +0.000 C 
ATOM     22  O   UNL     1       6.686   4.513  16.106  0.00  0.00    +0.000 OA
ATOM     23  H   UNL     1       7.992   4.107  18.152  0.00  0.00    +0.000 HD
ATOM     24  H   UNL     1       6.672   4.316  19.271  0.00  0.00    +0.000 HD
ENDBRANCH  13  21
ENDBRANCH   1  15
BRANCH   9  25
ATOM     25  O   UNL     1       0.685  13.837  19.887  0.00  0.00    +0.000 OA
BRANCH  25  26
ATOM     26  C   UNL     1       0.878  15.018  19.211  0.00  0.00    +0.000 A 
ATOM     27  C   UNL     1       2.118  15.488  18.776  0.00  0.00    +0.000 A 
ATOM     28  C   UNL     1       2.204  16.706  18.098  0.00  0.00    +0.000 A 
ATOM     29  C   UNL     1       1.050  17.444  17.862  0.00  0.00    +0.000 A 
ATOM     30  F   UNL     1       1.139  18.611  17.213  0.00  0.00    +0.000 F 
ATOM     31  C   UNL     1      -0.189  16.989  18.292  0.00  0.00    +0.000 A 
ATOM     32  C   UNL     1      -0.276  15.771  18.969  0.00  0.00    +0.000 A 
ENDBRANCH  25  26
ENDBRANCH   9  25
TORSDOF 4
ENDMDL
MODEL 3
REMARK VINA RESULT:      -8.0      1.913      2.475
REMARK  Name = 
REMARK  4 active torsions:
REMARK  status: ('A' for Active; 'I' for Inactive)
REMARK    1  A    between atoms: C_2  and  C_4
REMARK    2  A    between atoms: C_6  and  N_7
REMARK    3  A    between atoms: C_15  and  O_16
REMARK    4  A    between atoms: O_16  and  C_17
REMARK                            x       y       z     vdW  Elec       q    Type
REMARK                         _______ _______ _______ _____ _____    ______ ____
ROOT
ATOM      1  N   UNL     1       2.457   7.520  18.323  0.00  0.00    +0.000 N 
ATOM      2  C   UNL     1       1.816   8.161  19.390  0.00  0.00    +0.000 A 
ATOM      3  N   UNL     1       1.910   7.650  20.613  0.00  0.00    +0.000 NA
ATOM      4  C   UNL     1       1.261   8.320  21.551  0.00  0.00    +0.000 A 
ATOM      5  N   UNL     1       0.569   9.434  21.368  0.00  0.00    +0.000 NA
ATOM      6  C   UNL     1       0.553   9.889  20.117  0.00  0.00    +0.000 A 
ATOM      7  N   UNL     1      -0.140  11.081  19.859  0.00  0.00    +0.000 N 
ATOM      8  C   UNL     1       0.157  11.968  18.777  0.00  0.00    +0.000 C 
ATOM      9  C   UNL     1       0.148  13.143  19.763  0.00  0.00    +0.000 C 
ATOM     10  C   UNL     1      -0.309  12.126  20.820  0.00  0.00    +0.000 C 
ATOM     11  N   UNL     1       1.158   9.277  19.098  0.00  0.00    +0.000 NA
ATOM     12  H   UNL     1       2.157   7.974  17.468  0.00  0.00    +0.000 HD
ENDROOT
BRANCH   1  15
ATOM     13  C   UNL     1       1.986   3.816  18.541  0.00  0.00    +0.000 A 
ATOM     14  C   UNL     1       1.757   5.191  18.687  0.00  0.00    +0.000 A 
ATOM     15  C   UNL     1       2.667   6.135  18.188  0.00  0.00    +0.000 A 
ATOM     16  C   UNL     1       3.789   5.684  17.486  0.00  0.00    +0.000 A 
ATOM     17  C   UNL     1       4.032   4.316  17.344  0.00  0.00    +0.000 A 
ATOM     18  C   UNL     1       3.134   3.393  17.875  0.00  0.00    +0.000 A 
ATOM     19  F   UNL     1       3.410   2.088  17.722  0.00  0.00    +0.000 F 
BRANCH  13  21
ATOM     20  N   UNL     1       0.790   2.876  20.457  0.00  0.00    +0.000 N 
ATOM     21  C   UNL     1       0.979   2.880  19.107  0.00  0.00    +0.000 C 
ATOM     22  O   UNL     1       0.334   2.122  18.391  0.00  0.00    +0.000 OA
ATOM     23  H   UNL     1       0.102   2.240  20.839  0.00  0.00    +0.000 HD
ATOM     24  H   UNL     1       1.298   3.483  21.089  0.00  0.00    +0.000 HD
ENDBRANCH  13  21
ENDBRANCH   1  15
BRANCH   9  25
ATOM     25  O   UNL     1       1.429  13.788  19.974  0.00  0.00    +0.000 OA
BRANCH  25  26
ATOM     26  C   UNL     1       1.798  14.808  19.131  0.00  0.00    +0.000 A 
ATOM     27  C   UNL     1       1.127  16.027  19.021  0.00  0.00    +0.000 A 
ATOM     28  C   UNL     1       1.586  16.998  18.128  0.00  0.00    +0.000 A 
ATOM     29  C   UNL     1       2.709  16.741  17.351  0.00  0.00    +0.000 A 
ATOM     30  F   UNL     1       3.143  17.676  16.496  0.00  0.00    +0.000 F 
ATOM     31  C   UNL     1       3.384  15.531  17.449  0.00  0.00    +0.000 A 
ATOM     32  C   UNL     1       2.927  14.561  18.342  0.00  0.00    +0.000 A 
ENDBRANCH  25  26
ENDBRANCH   9  25
TORSDOF 4
ENDMDL
MODEL 4
REMARK VINA RESULT:      -8.0      1.819      2.484
REMARK  Name = 
REMARK  4 active torsions:
REMARK  status: ('A' for Active; 'I' for Inactive)
REMARK    1  A    between atoms: C_2  and  C_4
REMARK    2  A    between atoms: C_6  and  N_7
REMARK    3  A    between atoms: C_15  and  O_16
REMARK    4  A    between atoms: O_16  and  C_17
REMARK                            x       y       z     vdW  Elec       q    Type
REMARK                         _______ _______ _______ _____ _____    ______ ____
ROOT
ATOM      1  N   UNL     1       2.265   7.989  19.084  0.00  0.00    +0.000 N 
ATOM      2  C   UNL     1       1.397   8.643  19.968  0.00  0.00    +0.000 A 
ATOM      3  N   UNL     1       1.329   8.243  21.234  0.00  0.00    +0.000 NA
ATOM      4  C   UNL     1       0.473   8.914  21.987  0.00  0.00    +0.000 A 
ATOM      5  N   UNL     1      -0.276   9.930  21.590  0.00  0.00    +0.000 NA
ATOM      6  C   UNL     1      -0.121  10.280  20.314  0.00  0.00    +0.000 A 
ATOM      7  N   UNL     1      -0.866  11.369  19.836  0.00  0.00    +0.000 N 
ATOM      8  C   UNL     1      -0.472  12.193  18.735  0.00  0.00    +0.000 C 
ATOM      9  C   UNL     1      -0.754  13.435  19.590  0.00  0.00    +0.000 C 
ATOM     10  C   UNL     1      -1.289  12.463  20.652  0.00  0.00    +0.000 C 
ATOM     11  N   UNL     1       0.699   9.656  19.469  0.00  0.00    +0.000 NA
ATOM     12  H   UNL     1       2.074   8.340  18.153  0.00  0.00    +0.000 HD
ENDROOT
BRANCH   1  15
ATOM     13  C   UNL     1       2.421   4.380  20.053  0.00  0.00    +0.000 A 
ATOM     14  C   UNL     1       2.053   5.733  20.037  0.00  0.00    +0.000 A 
ATOM     15  C   UNL     1       2.619   6.628  19.118  0.00  0.00    +0.000 A 
ATOM     16  C   UNL     1       3.523   6.139  18.169  0.00  0.00    +0.000 A 
ATOM     17  C   UNL     1       3.903   4.795  18.182  0.00  0.00    +0.000 A 
ATOM     18  C   UNL     1       3.355   3.928  19.125  0.00  0.00    +0.000 A 
ATOM     19  F   UNL     1       3.755   2.646  19.106  0.00  0.00    +0.000 F 
BRANCH  13  21
ATOM     20  N   UNL     1       0.614   2.878  20.734  0.00  0.00    +0.000 N 
ATOM     21  C   UNL     1       1.783   3.499  21.065  0.00  0.00    +0.000 C 
ATOM     22  O   UNL     1       2.278   3.329  22.173  0.00  0.00    +0.000 OA
ATOM     23  H   UNL     1       0.184   2.276  21.424  0.00  0.00    +0.000 HD
ATOM     24  H   UNL     1       0.167   2.986  19.832  0.00  0.00    +0.000 HD
ENDBRANCH  13  21
ENDBRANCH   1  15
BRANCH   9  25
ATOM     25  O   UNL     1       0.409  14.226  19.941  0.00  0.00    +0.000 OA
BRANCH  25  26
ATOM     26  C   UNL     1       0.727  15.310  19.159  0.00  0.00    +0.000 A 
ATOM     27  C   UNL     1       2.027  15.678  18.806  0.00  0.00    +0.000 A 
ATOM     28  C   UNL     1       2.241  16.803  18.007  0.00  0.00    +0.000 A 
ATOM     29  C   UNL     1       1.155  17.551  17.569  0.00  0.00    +0.000 A 
ATOM     30  F   UNL     1       1.367  18.629  16.804  0.00  0.00    +0.000 F 
ATOM     31  C   UNL     1      -0.142  17.198  17.916  0.00  0.00    +0.000 A 
ATOM     32  C   UNL     1      -0.358  16.073  18.714  0.00  0.00    +0.000 A 
ENDBRANCH  25  26
ENDBRANCH   9  25
TORSDOF 4
ENDMDL
MODEL 5
REMARK VINA RESULT:      -7.9      3.795     10.103
REMARK  Name = 
REMARK  4 active torsions:
REMARK  status: ('A' for Active; 'I' for Inactive)
REMARK    1  A    between atoms: C_2  and  C_4
REMARK    2  A    between atoms: C_6  and  N_7
REMARK    3  A    between atoms: C_15  and  O_16
REMARK    4  A    between atoms: O_16  and  C_17
REMARK                            x       y       z     vdW  Elec       q    Type
REMARK                         _______ _______ _______ _____ _____    ______ ____
ROOT
ATOM      1  N   UNL     1       1.710   8.500  19.854  0.00  0.00    +0.000 N 
ATOM      2  C   UNL     1       2.085   7.159  19.997  0.00  0.00    +0.000 A 
ATOM      3  N   UNL     1       1.249   6.304  20.577  0.00  0.00    +0.000 NA
ATOM      4  C   UNL     1       1.697   5.063  20.677  0.00  0.00    +0.000 A 
ATOM      5  N   UNL     1       2.866   4.625  20.237  0.00  0.00    +0.000 NA
ATOM      6  C   UNL     1       3.626   5.544  19.644  0.00  0.00    +0.000 A 
ATOM      7  N   UNL     1       4.867   5.139  19.129  0.00  0.00    +0.000 N 
ATOM      8  C   UNL     1       5.544   5.791  18.051  0.00  0.00    +0.000 C 
ATOM      9  C   UNL     1       5.750   4.428  17.381  0.00  0.00    +0.000 C 
ATOM     10  C   UNL     1       5.138   3.819  18.652  0.00  0.00    +0.000 C 
ATOM     11  N   UNL     1       3.274   6.823  19.512  0.00  0.00    +0.000 NA
ATOM     12  H   UNL     1       2.521   9.010  19.522  0.00  0.00    +0.000 HD
ENDROOT
BRANCH   1  15
ATOM     13  C   UNL     1      -0.671  11.052  21.198  0.00  0.00    +0.000 A 
ATOM     14  C   UNL     1       0.134  10.333  20.304  0.00  0.00    +0.000 A 
ATOM     15  C   UNL     1       0.895   9.236  20.734  0.00  0.00    +0.000 A 
ATOM     16  C   UNL     1       0.798   8.829  22.069  0.00  0.00    +0.000 A 
ATOM     17  C   UNL     1       0.007   9.545  22.970  0.00  0.00    +0.000 A 
ATOM     18  C   UNL     1      -0.716  10.651  22.532  0.00  0.00    +0.000 A 
ATOM     19  F   UNL     1      -1.459  11.314  23.434  0.00  0.00    +0.000 F 
BRANCH  13  21
ATOM     20  N   UNL     1      -0.830  13.427  20.635  0.00  0.00    +0.000 N 
ATOM     21  C   UNL     1      -1.440  12.208  20.667  0.00  0.00    +0.000 C 
ATOM     22  O   UNL     1      -2.593  12.084  20.269  0.00  0.00    +0.000 OA
ATOM     23  H   UNL     1      -1.356  14.212  20.270  0.00  0.00    +0.000 HD
ATOM     24  H   UNL     1       0.120  13.579  20.951  0.00  0.00    +0.000 HD
ENDBRANCH  13  21
ENDBRANCH   1  15
BRANCH   9  25
ATOM     25  O   UNL     1       5.031   4.229  16.138  0.00  0.00    +0.000 OA
BRANCH  25  26
ATOM     26  C   UNL     1       5.732   4.281  14.958  0.00  0.00    +0.000 A 
ATOM     27  C   UNL     1       6.939   4.961  14.782  0.00  0.00    +0.000 A 
ATOM     28  C   UNL     1       7.569   4.953  13.537  0.00  0.00    +0.000 A 
ATOM     29  C   UNL     1       6.988   4.268  12.477  0.00  0.00    +0.000 A 
ATOM     30  F   UNL     1       7.597   4.265  11.284  0.00  0.00    +0.000 F 
ATOM     31  C   UNL     1       5.787   3.591  12.637  0.00  0.00    +0.000 A 
ATOM     32  C   UNL     1       5.156   3.597  13.882  0.00  0.00    +0.000 A 
ENDBRANCH  25  26
ENDBRANCH   9  25
TORSDOF 4
ENDMDL
MODEL 6
REMARK VINA RESULT:      -7.9      1.115      1.469
REMARK  Name = 
REMARK  4 active torsions:
REMARK  status: ('A' for Active; 'I' for Inactive)
REMARK    1  A    between atoms: C_2  and  C_4
REMARK    2  A    between atoms: C_6  and  N_7
REMARK    3  A    between atoms: C_15  and  O_16
REMARK    4  A    between atoms: O_16  and  C_17
REMARK                            x       y       z     vdW  Elec       q    Type
REMARK                         _______ _______ _______ _____ _____    ______ ____
ROOT
ATOM      1  N   UNL     1       2.355   7.558  18.481  0.00  0.00    +0.000 N 
ATOM      2  C   UNL     1       1.694   8.208  19.530  0.00  0.00    +0.000 A 
ATOM      3  N   UNL     1       1.752   7.700  20.757  0.00  0.00    +0.000 NA
ATOM      4  C   UNL     1       1.087   8.378  21.677  0.00  0.00    +0.000 A 
ATOM      5  N   UNL     1       0.411   9.498  21.474  0.00  0.00    +0.000 NA
ATOM      6  C   UNL     1       0.430   9.950  20.222  0.00  0.00    +0.000 A 
ATOM      7  N   UNL     1      -0.244  11.148  19.944  0.00  0.00    +0.000 N 
ATOM      8  C   UNL     1       0.088  12.030  18.868  0.00  0.00    +0.000 C 
ATOM      9  C   UNL     1       0.066  13.207  19.851  0.00  0.00    +0.000 C 
ATOM     10  C   UNL     1      -0.427  12.197  20.899  0.00  0.00    +0.000 C 
ATOM     11  N   UNL     1       1.054   9.329  19.220  0.00  0.00    +0.000 NA
ATOM     12  H   UNL     1       2.081   8.013  17.618  0.00  0.00    +0.000 HD
ENDROOT
BRANCH   1  15
ATOM     13  C   UNL     1       3.907   4.160  18.657  0.00  0.00    +0.000 A 
ATOM     14  C   UNL     1       3.729   5.544  18.793  0.00  0.00    +0.000 A 
ATOM     15  C   UNL     1       2.555   6.171  18.354  0.00  0.00    +0.000 A 
ATOM     16  C   UNL     1       1.527   5.384  17.824  0.00  0.00    +0.000 A 
ATOM     17  C   UNL     1       1.697   4.006  17.675  0.00  0.00    +0.000 A 
ATOM     18  C   UNL     1       2.885   3.405  18.086  0.00  0.00    +0.000 A 
ATOM     19  F   UNL     1       3.008   2.078  17.917  0.00  0.00    +0.000 F 
BRANCH  13  21
ATOM     20  N   UNL     1       6.347   4.006  18.572  0.00  0.00    +0.000 N 
ATOM     21  C   UNL     1       5.184   3.572  19.138  0.00  0.00    +0.000 C 
ATOM     22  O   UNL     1       5.208   2.715  20.014  0.00  0.00    +0.000 OA
ATOM     23  H   UNL     1       7.215   3.606  18.904  0.00  0.00    +0.000 HD
ATOM     24  H   UNL     1       6.379   4.712  17.847  0.00  0.00    +0.000 HD
ENDBRANCH  13  21
ENDBRANCH   1  15
BRANCH   9  25
ATOM     25  O   UNL     1       1.348  13.840  20.093  0.00  0.00    +0.000 OA
BRANCH  25  26
ATOM     26  C   UNL     1       1.817  14.746  19.173  0.00  0.00    +0.000 A 
ATOM     27  C   UNL     1       2.928  14.540  18.352  0.00  0.00    +0.000 A 
ATOM     28  C   UNL     1       3.323  15.530  17.451  0.00  0.00    +0.000 A 
ATOM     29  C   UNL     1       2.607  16.718  17.378  0.00  0.00    +0.000 A 
ATOM     30  F   UNL     1       2.992  17.664  16.512  0.00  0.00    +0.000 F 
ATOM     31  C   UNL     1       1.502  16.938  18.191  0.00  0.00    +0.000 A 
ATOM     32  C   UNL     1       1.105  15.948  19.091  0.00  0.00    +0.000 A 
ENDBRANCH  25  26
ENDBRANCH   9  25
TORSDOF 4
ENDMDL
MODEL 7
REMARK VINA RESULT:      -7.9      1.431      1.465
REMARK  Name = 
REMARK  4 active torsions:
REMARK  status: ('A' for Active; 'I' for Inactive)
REMARK    1  A    between atoms: C_2  and  C_4
REMARK    2  A    between atoms: C_6  and  N_7
REMARK    3  A    between atoms: C_15  and  O_16
REMARK    4  A    between atoms: O_16  and  C_17
REMARK                            x       y       z     vdW  Elec       q    Type
REMARK                         _______ _______ _______ _____ _____    ______ ____
ROOT
ATOM      1  N   UNL     1       2.110   7.944  19.477  0.00  0.00    +0.000 N 
ATOM      2  C   UNL     1       1.285   8.679  20.338  0.00  0.00    +0.000 A 
ATOM      3  N   UNL     1       1.267   8.388  21.634  0.00  0.00    +0.000 NA
ATOM      4  C   UNL     1       0.448   9.129  22.363  0.00  0.00    +0.000 A 
ATOM      5  N   UNL     1      -0.309  10.117  21.912  0.00  0.00    +0.000 NA
ATOM      6  C   UNL     1      -0.205  10.357  20.606  0.00  0.00    +0.000 A 
ATOM      7  N   UNL     1      -0.960  11.410  20.069  0.00  0.00    +0.000 N 
ATOM      8  C   UNL     1      -0.606  12.135  18.887  0.00  0.00    +0.000 C 
ATOM      9  C   UNL     1      -0.843  13.446  19.645  0.00  0.00    +0.000 C 
ATOM     10  C   UNL     1      -1.340  12.574  20.807  0.00  0.00    +0.000 C 
ATOM     11  N   UNL     1       0.575   9.654  19.784  0.00  0.00    +0.000 NA
ATOM     12  H   UNL     1       1.882   8.217  18.528  0.00  0.00    +0.000 HD
ENDROOT
BRANCH   1  15
ATOM     13  C   UNL     1       3.800   4.642  19.000  0.00  0.00    +0.000 A 
ATOM     14  C   UNL     1       3.474   5.997  18.850  0.00  0.00    +0.000 A 
ATOM     15  C   UNL     1       2.454   6.586  19.611  0.00  0.00    +0.000 A 
ATOM     16  C   UNL     1       1.796   5.812  20.572  0.00  0.00    +0.000 A 
ATOM     17  C   UNL     1       2.107   4.458  20.723  0.00  0.00    +0.000 A 
ATOM     18  C   UNL     1       3.100   3.882  19.934  0.00  0.00    +0.000 A 
ATOM     19  F   UNL     1       3.361   2.576  20.107  0.00  0.00    +0.000 F 
BRANCH  13  21
ATOM     20  N   UNL     1       6.149   4.046  18.665  0.00  0.00    +0.000 N 
ATOM     21  C   UNL     1       4.887   4.091  18.149  0.00  0.00    +0.000 C 
ATOM     22  O   UNL     1       4.671   3.688  17.011  0.00  0.00    +0.000 OA
ATOM     23  H   UNL     1       6.886   3.667  18.084  0.00  0.00    +0.000 HD
ATOM     24  H   UNL     1       6.377   4.364  19.598  0.00  0.00    +0.000 HD
ENDBRANCH  13  21
ENDBRANCH   1  15
BRANCH   9  25
ATOM     25  O   UNL     1       0.340  14.251  19.880  0.00  0.00    +0.000 OA
BRANCH  25  26
ATOM     26  C   UNL     1       0.543  15.365  19.102  0.00  0.00    +0.000 A 
ATOM     27  C   UNL     1      -0.469  16.228  18.675  0.00  0.00    +0.000 A 
ATOM     28  C   UNL     1      -0.154  17.333  17.882  0.00  0.00    +0.000 A 
ATOM     29  C   UNL     1       1.167  17.566  17.521  0.00  0.00    +0.000 A 
ATOM     30  F   UNL     1       1.462  18.628  16.760  0.00  0.00    +0.000 F 
ATOM     31  C   UNL     1       2.182  16.715  17.937  0.00  0.00    +0.000 A 
ATOM     32  C   UNL     1       1.869  15.610  18.731  0.00  0.00    +0.000 A 
ENDBRANCH  25  26
ENDBRANCH   9  25
TORSDOF 4
ENDMDL
MODEL 8
REMARK VINA RESULT:      -7.8      1.642      1.992
REMARK  Name = 
REMARK  4 active torsions:
REMARK  status: ('A' for Active; 'I' for Inactive)
REMARK    1  A    between atoms: C_2  and  C_4
REMARK    2  A    between atoms: C_6  and  N_7
REMARK    3  A    between atoms: C_15  and  O_16
REMARK    4  A    between atoms: O_16  and  C_17
REMARK                            x       y       z     vdW  Elec       q    Type
REMARK                         _______ _______ _______ _____ _____    ______ ____
ROOT
ATOM      1  N   UNL     1       2.560   8.212  18.118  0.00  0.00    +0.000 N 
ATOM      2  C   UNL     1       1.720   8.663  19.143  0.00  0.00    +0.000 A 
ATOM      3  N   UNL     1       1.797   8.105  20.347  0.00  0.00    +0.000 NA
ATOM      4  C   UNL     1       0.955   8.591  21.244  0.00  0.00    +0.000 A 
ATOM      5  N   UNL     1       0.089   9.571  21.042  0.00  0.00    +0.000 NA
ATOM      6  C   UNL     1       0.101  10.089  19.815  0.00  0.00    +0.000 A 
ATOM      7  N   UNL     1      -0.775  11.151  19.541  0.00  0.00    +0.000 N 
ATOM      8  C   UNL     1      -0.551  12.140  18.532  0.00  0.00    +0.000 C 
ATOM      9  C   UNL     1      -0.864  13.233  19.561  0.00  0.00    +0.000 C 
ATOM     10  C   UNL     1      -1.218  12.089  20.525  0.00  0.00    +0.000 C 
ATOM     11  N   UNL     1       0.895   9.657  18.835  0.00  0.00    +0.000 NA
ATOM     12  H   UNL     1       2.259   8.655  17.258  0.00  0.00    +0.000 HD
ENDROOT
BRANCH   1  15
ATOM     13  C   UNL     1       2.779   4.479  18.167  0.00  0.00    +0.000 A 
ATOM     14  C   UNL     1       2.289   5.779  18.348  0.00  0.00    +0.000 A 
ATOM     15  C   UNL     1       3.033   6.898  17.945  0.00  0.00    +0.000 A 
ATOM     16  C   UNL     1       4.259   6.697  17.302  0.00  0.00    +0.000 A 
ATOM     17  C   UNL     1       4.761   5.406  17.125  0.00  0.00    +0.000 A 
ATOM     18  C   UNL     1       4.023   4.308  17.562  0.00  0.00    +0.000 A 
ATOM     19  F   UNL     1       4.546   3.085  17.378  0.00  0.00    +0.000 F 
BRANCH  13  21
ATOM     20  N   UNL     1       1.801   3.149  19.972  0.00  0.00    +0.000 N 
ATOM     21  C   UNL     1       1.935   3.347  18.629  0.00  0.00    +0.000 C 
ATOM     22  O   UNL     1       1.372   2.599  17.837  0.00  0.00    +0.000 OA
ATOM     23  H   UNL     1       1.223   2.379  20.284  0.00  0.00    +0.000 HD
ATOM     24  H   UNL     1       2.245   3.739  20.665  0.00  0.00    +0.000 HD
ENDBRANCH  13  21
ENDBRANCH   1  15
BRANCH   9  25
ATOM     25  O   UNL     1       0.252  14.084  19.925  0.00  0.00    +0.000 OA
BRANCH  25  26
ATOM     26  C   UNL     1       0.459  15.237  19.209  0.00  0.00    +0.000 A 
ATOM     27  C   UNL     1      -0.555  16.096  18.777  0.00  0.00    +0.000 A 
ATOM     28  C   UNL     1      -0.234  17.244  18.051  0.00  0.00    +0.000 A 
ATOM     29  C   UNL     1       1.095  17.524  17.759  0.00  0.00    +0.000 A 
ATOM     30  F   UNL     1       1.395  18.627  17.061  0.00  0.00    +0.000 F 
ATOM     31  C   UNL     1       2.112  16.677  18.179  0.00  0.00    +0.000 A 
ATOM     32  C   UNL     1       1.794  15.530  18.907  0.00  0.00    +0.000 A 
ENDBRANCH  25  26
ENDBRANCH   9  25
TORSDOF 4
ENDMDL
MODEL 9
REMARK VINA RESULT:      -7.8      0.908      1.327
REMARK  Name = 
REMARK  4 active torsions:
REMARK  status: ('A' for Active; 'I' for Inactive)
REMARK    1  A    between atoms: C_2  and  C_4
REMARK    2  A    between atoms: C_6  and  N_7
REMARK    3  A    between atoms: C_15  and  O_16
REMARK    4  A    between atoms: O_16  and  C_17
REMARK                            x       y       z     vdW  Elec       q    Type
REMARK                         _______ _______ _______ _____ _____    ______ ____
ROOT
ATOM      1  N   UNL     1       2.801   7.609  18.042  0.00  0.00    +0.000 N 
ATOM      2  C   UNL     1       2.036   8.129  19.094  0.00  0.00    +0.000 A 
ATOM      3  N   UNL     1       2.062   7.530  20.280  0.00  0.00    +0.000 NA
ATOM      4  C   UNL     1       1.299   8.087  21.205  0.00  0.00    +0.000 A 
ATOM      5  N   UNL     1       0.556   9.171  21.045  0.00  0.00    +0.000 NA
ATOM      6  C   UNL     1       0.613   9.720  19.834  0.00  0.00    +0.000 A 
ATOM      7  N   UNL     1      -0.130  10.888  19.605  0.00  0.00    +0.000 N 
ATOM      8  C   UNL     1       0.198  11.873  18.620  0.00  0.00    +0.000 C 
ATOM      9  C   UNL     1       0.035  12.964  19.684  0.00  0.00    +0.000 C 
ATOM     10  C   UNL     1      -0.442  11.844  20.621  0.00  0.00    +0.000 C 
ATOM     11  N   UNL     1       1.335   9.225  18.829  0.00  0.00    +0.000 NA
ATOM     12  H   UNL     1       2.544   8.111  17.200  0.00  0.00    +0.000 HD
ENDROOT
BRANCH   1  15
ATOM     13  C   UNL     1       4.656   4.479  17.179  0.00  0.00    +0.000 A 
ATOM     14  C   UNL     1       4.373   5.835  17.389  0.00  0.00    +0.000 A 
ATOM     15  C   UNL     1       3.107   6.253  17.825  0.00  0.00    +0.000 A 
ATOM     16  C   UNL     1       2.137   5.286  18.105  0.00  0.00    +0.000 A 
ATOM     17  C   UNL     1       2.405   3.932  17.890  0.00  0.00    +0.000 A 
ATOM     18  C   UNL     1       3.658   3.539  17.424  0.00  0.00    +0.000 A 
ATOM     19  F   UNL     1       3.870   2.228  17.225  0.00  0.00    +0.000 F 
BRANCH  13  21
ATOM     20  N   UNL     1       6.131   3.397  15.555  0.00  0.00    +0.000 N 
ATOM     21  C   UNL     1       6.018   4.118  16.707  0.00  0.00    +0.000 C 
ATOM     22  O   UNL     1       7.022   4.447  17.329  0.00  0.00    +0.000 OA
ATOM     23  H   UNL     1       7.061   3.155  15.235  0.00  0.00    +0.000 HD
ATOM     24  H   UNL     1       5.333   3.103  15.006  0.00  0.00    +0.000 HD
ENDBRANCH  13  21
ENDBRANCH   1  15
BRANCH   9  25
ATOM     25  O   UNL     1       1.251  13.662  20.051  0.00  0.00    +0.000 OA
BRANCH  25  26
ATOM     26  C   UNL     1       1.762  14.595  19.181  0.00  0.00    +0.000 A 
ATOM     27  C   UNL     1       2.916  14.416  18.415  0.00  0.00    +0.000 A 
ATOM     28  C   UNL     1       3.350  15.432  17.562  0.00  0.00    +0.000 A 
ATOM     29  C   UNL     1       2.631  16.618  17.483  0.00  0.00    +0.000 A 
ATOM     30  F   UNL     1       3.054  17.588  16.663  0.00  0.00    +0.000 F 
ATOM     31  C   UNL     1       1.484  16.810  18.242  0.00  0.00    +0.000 A 
ATOM     32  C   UNL     1       1.047  15.794  19.094  0.00  0.00    +0.000 A 
ENDBRANCH  25  26
ENDBRANCH   9  25
TORSDOF 4
ENDMDL
