MODEL 1
REMARK VINA RESULT:      -7.0      0.000      0.000
REMARK  Name = 
REMARK  6 active torsions:
REMARK  status: ('A' for Active; 'I' for Inactive)
REMARK    1  A    between atoms: C_1  and  O_2
REMARK    2  A    between atoms: O_2  and  C_3
REMARK    3  A    between atoms: C_11  and  C_12
REMARK    4  A    between atoms: N_13  and  N_14
REMARK    5  A    between atoms: N_14  and  C_15
REMARK    6  A    between atoms: C_24  and  C_25
REMARK                            x       y       z     vdW  Elec       q    Type
REMARK                         _______ _______ _______ _____ _____    ______ ____
ROOT
ATOM      1  C   UNL     1       4.055   5.661  17.499  0.00  0.00    +0.000 A 
ATOM      2  C   UNL     1       3.794   4.979  18.682  0.00  0.00    +0.000 A 
ATOM      3  C   UNL     1       2.985   5.561  19.659  0.00  0.00    +0.000 A 
ATOM      4  C   UNL     1       2.418   6.840  19.476  0.00  0.00    +0.000 A 
ATOM      5  C   UNL     1       2.705   7.547  18.290  0.00  0.00    +0.000 A 
ATOM      6  C   UNL     1       3.535   6.943  17.320  0.00  0.00    +0.000 A 
ATOM      7  N   UNL     1       2.171   8.842  18.096  0.00  0.00    +0.000 N 
ATOM      8  O   UNL     1       2.566   9.501  17.078  0.00  0.00    +0.000 OA
ATOM      9  C   UNL     1       1.291   9.365  19.050  0.00  0.00    +0.000 A 
ATOM     10  C   UNL     1       0.985   8.655  20.226  0.00  0.00    +0.000 A 
ATOM     11  C   UNL     1       0.045   9.110  21.301  0.00  0.00    +0.000 C 
ATOM     12  N   UNL     1       1.580   7.414  20.449  0.00  0.00    +0.000 N 
ATOM     13  O   UNL     1       1.357   6.789  21.541  0.00  0.00    +0.000 OA
ENDROOT
BRANCH   1  15
ATOM     14  C   UNL     1       6.180   5.648  16.470  0.00  0.00    +0.000 C 
ATOM     15  O   UNL     1       4.831   5.194  16.477  0.00  0.00    +0.000 OA
ENDBRANCH   1  15
BRANCH   9  16
ATOM     16  C   UNL     1       0.635  10.656  18.743  0.00  0.00    +0.000 C 
ATOM     17  N   UNL     1      -0.488  10.687  18.104  0.00  0.00    +0.000 NA
BRANCH  17  18
ATOM     18  N   UNL     1      -1.104  11.892  18.004  0.00  0.00    +0.000 N 
ATOM     19  H   UNL     1      -0.860  12.387  17.136  0.00  0.00    +0.000 HD
BRANCH  18  20
ATOM     20  C   UNL     1      -2.538  11.776  18.040  0.00  0.00    +0.000 A 
ATOM     21  C   UNL     1      -3.307  11.302  16.947  0.00  0.00    +0.000 A 
ATOM     22 CL   UNL     1      -2.620  10.759  15.444  0.00  0.00    +0.000 Cl
ATOM     23  C   UNL     1      -4.701  11.200  17.034  0.00  0.00    +0.000 A 
ATOM     24  C   UNL     1      -5.349  11.519  18.220  0.00  0.00    +0.000 A 
ATOM     25 CL   UNL     1      -7.059  11.361  18.321  0.00  0.00    +0.000 Cl
ATOM     26  C   UNL     1      -4.625  11.944  19.328  0.00  0.00    +0.000 A 
ATOM     27  C   UNL     1      -3.233  12.068  19.236  0.00  0.00    +0.000 A 
ATOM     28 CL   UNL     1      -2.385  12.623  20.641  0.00  0.00    +0.000 Cl
ENDBRANCH  18  20
ENDBRANCH  17  18
ENDBRANCH   9  16
TORSDOF 4
ENDMDL
MODEL 2
REMARK VINA RESULT:      -7.0      0.479      1.829
REMARK  Name = 
REMARK  6 active torsions:
REMARK  status: ('A' for Active; 'I' for Inactive)
REMARK    1  A    between atoms: C_1  and  O_2
REMARK    2  A    between atoms: O_2  and  C_3
REMARK    3  A    between atoms: C_11  and  C_12
REMARK    4  A    between atoms: N_13  and  N_14
REMARK    5  A    between atoms: N_14  and  C_15
REMARK    6  A    between atoms: C_24  and  C_25
REMARK                            x       y       z     vdW  Elec       q    Type
REMARK                         _______ _______ _______ _____ _____    ______ ____
ROOT
ATOM      1  C   UNL     1       3.931   5.432  18.197  0.00  0.00    +0.000 A 
ATOM      2  C   UNL     1       3.652   4.975  19.481  0.00  0.00    +0.000 A 
ATOM      3  C   UNL     1       2.833   5.726  20.325  0.00  0.00    +0.000 A 
ATOM      4  C   UNL     1       2.274   6.952  19.908  0.00  0.00    +0.000 A 
ATOM      5  C   UNL     1       2.579   7.433  18.617  0.00  0.00    +0.000 A 
ATOM      6  C   UNL     1       3.419   6.662  17.783  0.00  0.00    +0.000 A 
ATOM      7  N   UNL     1       2.054   8.673  18.186  0.00  0.00    +0.000 N 
ATOM      8  O   UNL     1       2.464   9.137  17.071  0.00  0.00    +0.000 OA
ATOM      9  C   UNL     1       1.164   9.362  19.019  0.00  0.00    +0.000 A 
ATOM     10  C   UNL     1       0.840   8.876  20.299  0.00  0.00    +0.000 A 
ATOM     11  C   UNL     1      -0.111   9.518  21.262  0.00  0.00    +0.000 C 
ATOM     12  N   UNL     1       1.427   7.694  20.750  0.00  0.00    +0.000 N 
ATOM     13  O   UNL     1       1.187   7.276  21.934  0.00  0.00    +0.000 OA
ENDROOT
BRANCH   1  15
ATOM     14  C   UNL     1       5.324   5.616  16.300  0.00  0.00    +0.000 C 
ATOM     15  O   UNL     1       4.717   4.787  17.286  0.00  0.00    +0.000 OA
ENDBRANCH   1  15
BRANCH   9  16
ATOM     16  C   UNL     1       0.518  10.577  18.475  0.00  0.00    +0.000 C 
ATOM     17  N   UNL     1      -0.593  10.494  17.819  0.00  0.00    +0.000 NA
BRANCH  17  18
ATOM     18  N   UNL     1      -1.203  11.661  17.495  0.00  0.00    +0.000 N 
ATOM     19  H   UNL     1      -1.092  11.901  16.501  0.00  0.00    +0.000 HD
BRANCH  18  20
ATOM     20  C   UNL     1      -2.615  11.634  17.771  0.00  0.00    +0.000 A 
ATOM     21  C   UNL     1      -3.173  12.046  19.007  0.00  0.00    +0.000 A 
ATOM     22 CL   UNL     1      -2.235  12.677  20.329  0.00  0.00    +0.000 Cl
ATOM     23  C   UNL     1      -4.556  12.010  19.224  0.00  0.00    +0.000 A 
ATOM     24  C   UNL     1      -5.410  11.610  18.205  0.00  0.00    +0.000 A 
ATOM     25 CL   UNL     1      -7.108  11.598  18.477  0.00  0.00    +0.000 Cl
ATOM     26  C   UNL     1      -4.904  11.242  16.964  0.00  0.00    +0.000 A 
ATOM     27  C   UNL     1      -3.520  11.258  16.752  0.00  0.00    +0.000 A 
ATOM     28 CL   UNL     1      -2.944  10.769  15.193  0.00  0.00    +0.000 Cl
ENDBRANCH  18  20
ENDBRANCH  17  18
ENDBRANCH   9  16
TORSDOF 4
ENDMDL
MODEL 3
REMARK VINA RESULT:      -6.9      1.255      2.219
REMARK  Name = 
REMARK  6 active torsions:
REMARK  status: ('A' for Active; 'I' for Inactive)
REMARK    1  A    between atoms: C_1  and  O_2
REMARK    2  A    between atoms: O_2  and  C_3
REMARK    3  A    between atoms: C_11  and  C_12
REMARK    4  A    between atoms: N_13  and  N_14
REMARK    5  A    between atoms: N_14  and  C_15
REMARK    6  A    between atoms: C_24  and  C_25
REMARK                            x       y       z     vdW  Elec       q    Type
REMARK                         _______ _______ _______ _____ _____    ______ ____
ROOT
ATOM      1  C   UNL     1       3.788   6.459  17.696  0.00  0.00    +0.000 A 
ATOM      2  C   UNL     1       3.602   5.766  18.887  0.00  0.00    +0.000 A 
ATOM      3  C   UNL     1       2.776   6.295  19.879  0.00  0.00    +0.000 A 
ATOM      4  C   UNL     1       2.117   7.530  19.706  0.00  0.00    +0.000 A 
ATOM      5  C   UNL     1       2.326   8.250  18.511  0.00  0.00    +0.000 A 
ATOM      6  C   UNL     1       3.175   7.700  17.524  0.00  0.00    +0.000 A 
ATOM      7  N   UNL     1       1.699   9.503  18.326  0.00  0.00    +0.000 N 
ATOM      8  O   UNL     1       2.023  10.184  17.296  0.00  0.00    +0.000 OA
ATOM      9  C   UNL     1       0.806   9.968  19.298  0.00  0.00    +0.000 A 
ATOM     10  C   UNL     1       0.577   9.244  20.482  0.00  0.00    +0.000 A 
ATOM     11  C   UNL     1      -0.368   9.636  21.577  0.00  0.00    +0.000 C 
ATOM     12  N   UNL     1       1.263   8.049  20.696  0.00  0.00    +0.000 N 
ATOM     13  O   UNL     1       1.108   7.414  21.795  0.00  0.00    +0.000 OA
ENDROOT
BRANCH   1  15
ATOM     14  C   UNL     1       4.993   4.684  16.710  0.00  0.00    +0.000 C 
ATOM     15  O   UNL     1       4.571   6.043  16.658  0.00  0.00    +0.000 OA
ENDBRANCH   1  15
BRANCH   9  16
ATOM     16  C   UNL     1       0.054  11.207  19.001  0.00  0.00    +0.000 C 
ATOM     17  N   UNL     1      -1.131  11.152  18.487  0.00  0.00    +0.000 NA
BRANCH  17  18
ATOM     18  N   UNL     1      -1.816  12.319  18.396  0.00  0.00    +0.000 N 
ATOM     19  H   UNL     1      -2.086  12.542  17.429  0.00  0.00    +0.000 HD
BRANCH  18  20
ATOM     20  C   UNL     1      -3.021  12.307  19.183  0.00  0.00    +0.000 A 
ATOM     21  C   UNL     1      -3.073  12.747  20.530  0.00  0.00    +0.000 A 
ATOM     22 CL   UNL     1      -1.707  13.395  21.389  0.00  0.00    +0.000 Cl
ATOM     23  C   UNL     1      -4.273  12.725  21.251  0.00  0.00    +0.000 A 
ATOM     24  C   UNL     1      -5.447  12.313  20.636  0.00  0.00    +0.000 A 
ATOM     25 CL   UNL     1      -6.919  12.318  21.527  0.00  0.00    +0.000 Cl
ATOM     26  C   UNL     1      -5.445  11.918  19.303  0.00  0.00    +0.000 A 
ATOM     27  C   UNL     1      -4.242  11.919  18.586  0.00  0.00    +0.000 A 
ATOM     28 CL   UNL     1      -4.295  11.396  16.935  0.00  0.00    +0.000 Cl
ENDBRANCH  18  20
ENDBRANCH  17  18
ENDBRANCH   9  16
TORSDOF 4
ENDMDL
MODEL 4
REMARK VINA RESULT:      -6.8      1.642      2.669
REMARK  Name = 
REMARK  6 active torsions:
REMARK  status: ('A' for Active; 'I' for Inactive)
REMARK    1  A    between atoms: C_1  and  O_2
REMARK    2  A    between atoms: O_2  and  C_3
REMARK    3  A    between atoms: C_11  and  C_12
REMARK    4  A    between atoms: N_13  and  N_14
REMARK    5  A    between atoms: N_14  and  C_15
REMARK    6  A    between atoms: C_24  and  C_25
REMARK                            x       y       z     vdW  Elec       q    Type
REMARK                         _______ _______ _______ _____ _____    ______ ____
ROOT
ATOM      1  C   UNL     1       4.477   3.910  17.302  0.00  0.00    +0.000 A 
ATOM      2  C   UNL     1       4.052   3.306  18.480  0.00  0.00    +0.000 A 
ATOM      3  C   UNL     1       3.311   4.036  19.410  0.00  0.00    +0.000 A 
ATOM      4  C   UNL     1       2.979   5.388  19.186  0.00  0.00    +0.000 A 
ATOM      5  C   UNL     1       3.434   6.013  18.006  0.00  0.00    +0.000 A 
ATOM      6  C   UNL     1       4.191   5.258  17.083  0.00  0.00    +0.000 A 
ATOM      7  N   UNL     1       3.137   7.375  17.772  0.00  0.00    +0.000 N 
ATOM      8  O   UNL     1       3.682   7.938  16.765  0.00  0.00    +0.000 OA
ATOM      9  C   UNL     1       2.317   8.059  18.677  0.00  0.00    +0.000 A 
ATOM     10  C   UNL     1       1.843   7.434  19.845  0.00  0.00    +0.000 A 
ATOM     11  C   UNL     1       0.948   8.062  20.869  0.00  0.00    +0.000 C 
ATOM     12  N   UNL     1       2.209   6.115  20.112  0.00  0.00    +0.000 N 
ATOM     13  O   UNL     1       1.834   5.559  21.199  0.00  0.00    +0.000 OA
ENDROOT
BRANCH   1  15
ATOM     14  C   UNL     1       5.880   4.170  15.421  0.00  0.00    +0.000 C 
ATOM     15  O   UNL     1       5.207   3.299  16.324  0.00  0.00    +0.000 OA
ENDBRANCH   1  15
BRANCH   9  16
ATOM     16  C   UNL     1       1.904   9.435  18.323  0.00  0.00    +0.000 C 
ATOM     17  N   UNL     1       0.655   9.726  18.160  0.00  0.00    +0.000 NA
BRANCH  17  18
ATOM     18  N   UNL     1       0.347  11.037  17.998  0.00  0.00    +0.000 N 
ATOM     19  H   UNL     1       0.127  11.272  17.021  0.00  0.00    +0.000 HD
BRANCH  18  20
ATOM     20  C   UNL     1      -0.784  11.434  18.795  0.00  0.00    +0.000 A 
ATOM     21  C   UNL     1      -0.669  11.895  20.131  0.00  0.00    +0.000 A 
ATOM     22 CL   UNL     1       0.847  12.083  20.962  0.00  0.00    +0.000 Cl
ATOM     23  C   UNL     1      -1.799  12.279  20.863  0.00  0.00    +0.000 A 
ATOM     24  C   UNL     1      -3.053  12.257  20.268  0.00  0.00    +0.000 A 
ATOM     25 CL   UNL     1      -4.429  12.759  21.171  0.00  0.00    +0.000 Cl
ATOM     26  C   UNL     1      -3.201  11.855  18.946  0.00  0.00    +0.000 A 
ATOM     27  C   UNL     1      -2.074  11.451  18.219  0.00  0.00    +0.000 A 
ATOM     28 CL   UNL     1      -2.321  10.938  16.582  0.00  0.00    +0.000 Cl
ENDBRANCH  18  20
ENDBRANCH  17  18
ENDBRANCH   9  16
TORSDOF 4
ENDMDL
MODEL 5
REMARK VINA RESULT:      -6.8      1.644      2.105
REMARK  Name = 
REMARK  6 active torsions:
REMARK  status: ('A' for Active; 'I' for Inactive)
REMARK    1  A    between atoms: C_1  and  O_2
REMARK    2  A    between atoms: O_2  and  C_3
REMARK    3  A    between atoms: C_11  and  C_12
REMARK    4  A    between atoms: N_13  and  N_14
REMARK    5  A    between atoms: N_14  and  C_15
REMARK    6  A    between atoms: C_24  and  C_25
REMARK                            x       y       z     vdW  Elec       q    Type
REMARK                         _______ _______ _______ _____ _____    ______ ____
ROOT
ATOM      1  C   UNL     1       4.303   3.928  17.290  0.00  0.00    +0.000 A 
ATOM      2  C   UNL     1       3.872   3.325  18.467  0.00  0.00    +0.000 A 
ATOM      3  C   UNL     1       3.171   4.071  19.415  0.00  0.00    +0.000 A 
ATOM      4  C   UNL     1       2.884   5.436  19.211  0.00  0.00    +0.000 A 
ATOM      5  C   UNL     1       3.345   6.058  18.032  0.00  0.00    +0.000 A 
ATOM      6  C   UNL     1       4.062   5.287  17.090  0.00  0.00    +0.000 A 
ATOM      7  N   UNL     1       3.095   7.433  17.818  0.00  0.00    +0.000 N 
ATOM      8  O   UNL     1       3.646   7.988  16.810  0.00  0.00    +0.000 OA
ATOM      9  C   UNL     1       2.312   8.135  18.742  0.00  0.00    +0.000 A 
ATOM     10  C   UNL     1       1.832   7.514  19.909  0.00  0.00    +0.000 A 
ATOM     11  C   UNL     1       0.974   8.161  20.953  0.00  0.00    +0.000 C 
ATOM     12  N   UNL     1       2.153   6.179  20.156  0.00  0.00    +0.000 N 
ATOM     13  O   UNL     1       1.774   5.624  21.242  0.00  0.00    +0.000 OA
ENDROOT
BRANCH   1  15
ATOM     14  C   UNL     1       5.751   4.155  15.439  0.00  0.00    +0.000 C 
ATOM     15  O   UNL     1       4.997   3.302  16.294  0.00  0.00    +0.000 OA
ENDBRANCH   1  15
BRANCH   9  16
ATOM     16  C   UNL     1       1.945   9.529  18.410  0.00  0.00    +0.000 C 
ATOM     17  N   UNL     1       0.711   9.851  18.197  0.00  0.00    +0.000 NA
BRANCH  17  18
ATOM     18  N   UNL     1       0.437  11.173  18.059  0.00  0.00    +0.000 N 
ATOM     19  H   UNL     1       0.302  11.446  17.077  0.00  0.00    +0.000 HD
BRANCH  18  20
ATOM     20  C   UNL     1      -0.749  11.562  18.776  0.00  0.00    +0.000 A 
ATOM     21  C   UNL     1      -2.048  11.517  18.211  0.00  0.00    +0.000 A 
ATOM     22 CL   UNL     1      -2.385  10.948  16.602  0.00  0.00    +0.000 Cl
ATOM     23  C   UNL     1      -3.173  11.898  18.954  0.00  0.00    +0.000 A 
ATOM     24  C   UNL     1      -3.033  12.282  20.280  0.00  0.00    +0.000 A 
ATOM     25 CL   UNL     1      -4.427  12.719  21.189  0.00  0.00    +0.000 Cl
ATOM     26  C   UNL     1      -1.780  12.295  20.883  0.00  0.00    +0.000 A 
ATOM     27  C   UNL     1      -0.652  11.935  20.136  0.00  0.00    +0.000 A 
ATOM     28 CL   UNL     1       0.886  11.991  20.932  0.00  0.00    +0.000 Cl
ENDBRANCH  18  20
ENDBRANCH  17  18
ENDBRANCH   9  16
TORSDOF 4
ENDMDL
MODEL 6
REMARK VINA RESULT:      -6.7      4.805      8.628
REMARK  Name = 
REMARK  6 active torsions:
REMARK  status: ('A' for Active; 'I' for Inactive)
REMARK    1  A    between atoms: C_1  and  O_2
REMARK    2  A    between atoms: O_2  and  C_3
REMARK    3  A    between atoms: C_11  and  C_12
REMARK    4  A    between atoms: N_13  and  N_14
REMARK    5  A    between atoms: N_14  and  C_15
REMARK    6  A    between atoms: C_24  and  C_25
REMARK                            x       y       z     vdW  Elec       q    Type
REMARK                         _______ _______ _______ _____ _____    ______ ____
ROOT
ATOM      1  C   UNL     1       1.133  11.850  18.745  0.00  0.00    +0.000 A 
ATOM      2  C   UNL     1       0.318  11.717  19.865  0.00  0.00    +0.000 A 
ATOM      3  C   UNL     1       0.220  10.485  20.513  0.00  0.00    +0.000 A 
ATOM      4  C   UNL     1       0.933   9.357  20.058  0.00  0.00    +0.000 A 
ATOM      5  C   UNL     1       1.738   9.481  18.906  0.00  0.00    +0.000 A 
ATOM      6  C   UNL     1       1.813  10.734  18.259  0.00  0.00    +0.000 A 
ATOM      7  N   UNL     1       2.439   8.357  18.414  0.00  0.00    +0.000 N 
ATOM      8  O   UNL     1       3.041   8.474  17.295  0.00  0.00    +0.000 OA
ATOM      9  C   UNL     1       2.395   7.157  19.134  0.00  0.00    +0.000 A 
ATOM     10  C   UNL     1       1.611   7.034  20.296  0.00  0.00    +0.000 A 
ATOM     11  C   UNL     1       1.505   5.809  21.152  0.00  0.00    +0.000 C 
ATOM     12  N   UNL     1       0.855   8.123  20.729  0.00  0.00    +0.000 N 
ATOM     13  O   UNL     1       0.093   8.003  21.747  0.00  0.00    +0.000 OA
ENDROOT
BRANCH   1  15
ATOM     14  C   UNL     1       2.561  13.650  18.200  0.00  0.00    +0.000 C 
ATOM     15  O   UNL     1       1.305  13.001  18.030  0.00  0.00    +0.000 OA
ENDBRANCH   1  15
BRANCH   9  16
ATOM     16  C   UNL     1       3.261   6.049  18.673  0.00  0.00    +0.000 C 
ATOM     17  N   UNL     1       4.281   5.676  19.374  0.00  0.00    +0.000 NA
BRANCH  17  18
ATOM     18  N   UNL     1       4.926   4.553  18.970  0.00  0.00    +0.000 N 
ATOM     19  H   UNL     1       4.307   3.733  18.939  0.00  0.00    +0.000 HD
BRANCH  18  20
ATOM     20  C   UNL     1       5.505   4.699  17.660  0.00  0.00    +0.000 A 
ATOM     21  C   UNL     1       6.736   5.362  17.425  0.00  0.00    +0.000 A 
ATOM     22 CL   UNL     1       7.724   6.044  18.683  0.00  0.00    +0.000 Cl
ATOM     23  C   UNL     1       7.263   5.469  16.132  0.00  0.00    +0.000 A 
ATOM     24  C   UNL     1       6.604   4.881  15.061  0.00  0.00    +0.000 A 
ATOM     25 CL   UNL     1       7.279   4.997  13.482  0.00  0.00    +0.000 Cl
ATOM     26  C   UNL     1       5.418   4.183  15.258  0.00  0.00    +0.000 A 
ATOM     27  C   UNL     1       4.879   4.093  16.548  0.00  0.00    +0.000 A 
ATOM     28 CL   UNL     1       3.388   3.230  16.732  0.00  0.00    +0.000 Cl
ENDBRANCH  18  20
ENDBRANCH  17  18
ENDBRANCH   9  16
TORSDOF 4
ENDMDL
MODEL 7
REMARK VINA RESULT:      -6.6      4.443      8.890
REMARK  Name = 
REMARK  6 active torsions:
REMARK  status: ('A' for Active; 'I' for Inactive)
REMARK    1  A    between atoms: C_1  and  O_2
REMARK    2  A    between atoms: O_2  and  C_3
REMARK    3  A    between atoms: C_11  and  C_12
REMARK    4  A    between atoms: N_13  and  N_14
REMARK    5  A    between atoms: N_14  and  C_15
REMARK    6  A    between atoms: C_24  and  C_25
REMARK                            x       y       z     vdW  Elec       q    Type
REMARK                         _______ _______ _______ _____ _____    ______ ____
ROOT
ATOM      1  C   UNL     1      -1.027  10.977  22.311  0.00  0.00    +0.000 A 
ATOM      2  C   UNL     1      -0.820  11.973  21.362  0.00  0.00    +0.000 A 
ATOM      3  C   UNL     1      -0.011  11.723  20.254  0.00  0.00    +0.000 A 
ATOM      4  C   UNL     1       0.612  10.471  20.066  0.00  0.00    +0.000 A 
ATOM      5  C   UNL     1       0.428   9.468  21.041  0.00  0.00    +0.000 A 
ATOM      6  C   UNL     1      -0.386   9.747  22.161  0.00  0.00    +0.000 A 
ATOM      7  N   UNL     1       1.065   8.216  20.889  0.00  0.00    +0.000 N 
ATOM      8  O   UNL     1       0.987   7.388  21.857  0.00  0.00    +0.000 OA
ATOM      9  C   UNL     1       1.797   7.960  19.724  0.00  0.00    +0.000 A 
ATOM     10  C   UNL     1       1.966   8.950  18.739  0.00  0.00    +0.000 A 
ATOM     11  C   UNL     1       2.711   8.781  17.449  0.00  0.00    +0.000 C 
ATOM     12  N   UNL     1       1.405  10.212  18.934  0.00  0.00    +0.000 N 
ATOM     13  O   UNL     1       1.603  11.136  18.074  0.00  0.00    +0.000 OA
ENDROOT
BRANCH   1  15
ATOM     14  C   UNL     1      -2.699  12.205  23.438  0.00  0.00    +0.000 C 
ATOM     15  O   UNL     1      -1.793  11.107  23.433  0.00  0.00    +0.000 OA
ENDBRANCH   1  15
BRANCH   9  16
ATOM     16  C   UNL     1       2.322   6.590  19.531  0.00  0.00    +0.000 C 
ATOM     17  N   UNL     1       3.582   6.342  19.677  0.00  0.00    +0.000 NA
BRANCH  17  18
ATOM     18  N   UNL     1       3.959   5.039  19.643  0.00  0.00    +0.000 N 
ATOM     19  H   UNL     1       3.174   4.398  19.816  0.00  0.00    +0.000 HD
BRANCH  18  20
ATOM     20  C   UNL     1       4.537   4.671  18.377  0.00  0.00    +0.000 A 
ATOM     21  C   UNL     1       3.781   4.137  17.303  0.00  0.00    +0.000 A 
ATOM     22 CL   UNL     1       2.060   3.899  17.357  0.00  0.00    +0.000 Cl
ATOM     23  C   UNL     1       4.390   3.803  16.087  0.00  0.00    +0.000 A 
ATOM     24  C   UNL     1       5.745   4.037  15.900  0.00  0.00    +0.000 A 
ATOM     25 CL   UNL     1       6.473   3.648  14.390  0.00  0.00    +0.000 Cl
ATOM     26  C   UNL     1       6.511   4.602  16.913  0.00  0.00    +0.000 A 
ATOM     27  C   UNL     1       5.909   4.917  18.138  0.00  0.00    +0.000 A 
ATOM     28 CL   UNL     1       6.916   5.598  19.372  0.00  0.00    +0.000 Cl
ENDBRANCH  18  20
ENDBRANCH  17  18
ENDBRANCH   9  16
TORSDOF 4
ENDMDL
MODEL 8
REMARK VINA RESULT:      -6.5      3.395      4.663
REMARK  Name = 
REMARK  6 active torsions:
REMARK  status: ('A' for Active; 'I' for Inactive)
REMARK    1  A    between atoms: C_1  and  O_2
REMARK    2  A    between atoms: O_2  and  C_3
REMARK    3  A    between atoms: C_11  and  C_12
REMARK    4  A    between atoms: N_13  and  N_14
REMARK    5  A    between atoms: N_14  and  C_15
REMARK    6  A    between atoms: C_24  and  C_25
REMARK                            x       y       z     vdW  Elec       q    Type
REMARK                         _______ _______ _______ _____ _____    ______ ____
ROOT
ATOM      1  C   UNL     1       2.931   4.674  18.716  0.00  0.00    +0.000 A 
ATOM      2  C   UNL     1       2.453   4.532  20.014  0.00  0.00    +0.000 A 
ATOM      3  C   UNL     1       1.927   5.635  20.687  0.00  0.00    +0.000 A 
ATOM      4  C   UNL     1       1.867   6.907  20.080  0.00  0.00    +0.000 A 
ATOM      5  C   UNL     1       2.378   7.061  18.774  0.00  0.00    +0.000 A 
ATOM      6  C   UNL     1       2.916   5.933  18.116  0.00  0.00    +0.000 A 
ATOM      7  N   UNL     1       2.355   8.332  18.156  0.00  0.00    +0.000 N 
ATOM      8  O   UNL     1       2.951   8.458  17.035  0.00  0.00    +0.000 OA
ATOM      9  C   UNL     1       1.740   9.401  18.818  0.00  0.00    +0.000 A 
ATOM     10  C   UNL     1       1.210   9.247  20.112  0.00  0.00    +0.000 A 
ATOM     11  C   UNL     1       0.516  10.314  20.903  0.00  0.00    +0.000 C 
ATOM     12  N   UNL     1       1.310   8.012  20.750  0.00  0.00    +0.000 N 
ATOM     13  O   UNL     1       0.887   7.878  21.948  0.00  0.00    +0.000 OA
ENDROOT
BRANCH   1  15
ATOM     14  C   UNL     1       3.340   2.359  18.499  0.00  0.00    +0.000 C 
ATOM     15  O   UNL     1       3.469   3.671  17.961  0.00  0.00    +0.000 OA
ENDBRANCH   1  15
BRANCH   9  16
ATOM     16  C   UNL     1       1.600  10.675  18.079  0.00  0.00    +0.000 C 
ATOM     17  N   UNL     1       2.434  11.644  18.274  0.00  0.00    +0.000 NA
BRANCH  17  18
ATOM     18  N   UNL     1       2.337  12.713  17.446  0.00  0.00    +0.000 N 
ATOM     19  H   UNL     1       1.570  12.618  16.768  0.00  0.00    +0.000 HD
BRANCH  18  20
ATOM     20  C   UNL     1       2.121  13.942  18.164  0.00  0.00    +0.000 A 
ATOM     21  C   UNL     1       0.858  14.330  18.676  0.00  0.00    +0.000 A 
ATOM     22 CL   UNL     1      -0.579  13.359  18.545  0.00  0.00    +0.000 Cl
ATOM     23  C   UNL     1       0.701  15.532  19.377  0.00  0.00    +0.000 A 
ATOM     24  C   UNL     1       1.800  16.344  19.622  0.00  0.00    +0.000 A 
ATOM     25 CL   UNL     1       1.596  17.803  20.509  0.00  0.00    +0.000 Cl
ATOM     26  C   UNL     1       3.064  15.975  19.175  0.00  0.00    +0.000 A 
ATOM     27  C   UNL     1       3.219  14.783  18.456  0.00  0.00    +0.000 A 
ATOM     28 CL   UNL     1       4.812  14.384  17.904  0.00  0.00    +0.000 Cl
ENDBRANCH  18  20
ENDBRANCH  17  18
ENDBRANCH   9  16
TORSDOF 4
ENDMDL
MODEL 9
REMARK VINA RESULT:      -6.5      4.812      8.572
REMARK  Name = 
REMARK  6 active torsions:
REMARK  status: ('A' for Active; 'I' for Inactive)
REMARK    1  A    between atoms: C_1  and  O_2
REMARK    2  A    between atoms: O_2  and  C_3
REMARK    3  A    between atoms: C_11  and  C_12
REMARK    4  A    between atoms: N_13  and  N_14
REMARK    5  A    between atoms: N_14  and  C_15
REMARK    6  A    between atoms: C_24  and  C_25
REMARK                            x       y       z     vdW  Elec       q    Type
REMARK                         _______ _______ _______ _____ _____    ______ ____
ROOT
ATOM      1  C   UNL     1       1.401  11.809  18.596  0.00  0.00    +0.000 A 
ATOM      2  C   UNL     1       0.553  11.721  19.695  0.00  0.00    +0.000 A 
ATOM      3  C   UNL     1       0.399  10.504  20.360  0.00  0.00    +0.000 A 
ATOM      4  C   UNL     1       1.087   9.346  19.942  0.00  0.00    +0.000 A 
ATOM      5  C   UNL     1       1.924   9.424  18.810  0.00  0.00    +0.000 A 
ATOM      6  C   UNL     1       2.057  10.664  18.145  0.00  0.00    +0.000 A 
ATOM      7  N   UNL     1       2.602   8.270  18.355  0.00  0.00    +0.000 N 
ATOM      8  O   UNL     1       3.236   8.349  17.251  0.00  0.00    +0.000 OA
ATOM      9  C   UNL     1       2.500   7.085  19.093  0.00  0.00    +0.000 A 
ATOM     10  C   UNL     1       1.682   7.007  20.235  0.00  0.00    +0.000 A 
ATOM     11  C   UNL     1       1.514   5.800  21.107  0.00  0.00    +0.000 C 
ATOM     12  N   UNL     1       0.951   8.126  20.630  0.00  0.00    +0.000 N 
ATOM     13  O   UNL     1       0.159   8.048  21.630  0.00  0.00    +0.000 OA
ENDROOT
BRANCH   1  15
ATOM     14  C   UNL     1       2.255  14.010  18.569  0.00  0.00    +0.000 C 
ATOM     15  O   UNL     1       1.629  12.941  17.867  0.00  0.00    +0.000 OA
ENDBRANCH   1  15
BRANCH   9  16
ATOM     16  C   UNL     1       3.341   5.942  18.673  0.00  0.00    +0.000 C 
ATOM     17  N   UNL     1       4.435   5.664  19.303  0.00  0.00    +0.000 NA
BRANCH  17  18
ATOM     18  N   UNL     1       5.063   4.511  18.963  0.00  0.00    +0.000 N 
ATOM     19  H   UNL     1       4.451   3.689  19.049  0.00  0.00    +0.000 HD
BRANCH  18  20
ATOM     20  C   UNL     1       5.555   4.535  17.611  0.00  0.00    +0.000 A 
ATOM     21  C   UNL     1       4.836   3.999  16.513  0.00  0.00    +0.000 A 
ATOM     22 CL   UNL     1       3.256   3.286  16.646  0.00  0.00    +0.000 Cl
ATOM     23  C   UNL     1       5.355   4.056  15.213  0.00  0.00    +0.000 A 
ATOM     24  C   UNL     1       6.569   4.687  14.975  0.00  0.00    +0.000 A 
ATOM     25 CL   UNL     1       7.179   4.774  13.369  0.00  0.00    +0.000 Cl
ATOM     26  C   UNL     1       7.281   5.264  16.020  0.00  0.00    +0.000 A 
ATOM     27  C   UNL     1       6.774   5.190  17.323  0.00  0.00    +0.000 A 
ATOM     28 CL   UNL     1       7.715   5.908  18.589  0.00  0.00    +0.000 Cl
ENDBRANCH  18  20
ENDBRANCH  17  18
ENDBRANCH   9  16
TORSDOF 4
ENDMDL
