MODEL 1
REMARK VINA RESULT:      -8.8      0.000      0.000
REMARK  Name = 
REMARK  5 active torsions:
REMARK  status: ('A' for Active; 'I' for Inactive)
REMARK    1  A    between atoms: C_2  and  C_3
REMARK    2  A    between atoms: N_5  and  C_6
REMARK    3  A    between atoms: C_10  and  C_11
REMARK    4  A    between atoms: C_17  and  N_18
REMARK    5  A    between atoms: N_18  and  C_19
REMARK                            x       y       z     vdW  Elec       q    Type
REMARK                         _______ _______ _______ _____ _____    ______ ____
ROOT
ATOM      1  C   UNL     1       2.764   5.191  19.409  0.00  0.00    +0.000 A 
ATOM      2  N   UNL     1       2.049   4.542  20.363  0.00  0.00    +0.000 NA
ATOM      3  C   UNL     1       2.365   3.261  20.583  0.00  0.00    +0.000 A 
ATOM      4 CL   UNL     1       1.484   2.461  21.805  0.00  0.00    +0.000 Cl
ATOM      5  N   UNL     1       3.308   2.547  19.966  0.00  0.00    +0.000 NA
ATOM      6  C   UNL     1       4.004   3.226  19.035  0.00  0.00    +0.000 A 
ATOM      7  C   UNL     1       3.826   4.573  18.724  0.00  0.00    +0.000 A 
ENDROOT
BRANCH   1  12
ATOM      8  C   UNL     1       1.472   8.719  20.168  0.00  0.00    +0.000 A 
ATOM      9  C   UNL     1       1.614   9.319  18.921  0.00  0.00    +0.000 A 
ATOM     10  C   UNL     1       2.040   8.580  17.821  0.00  0.00    +0.000 A 
ATOM     11  C   UNL     1       2.353   7.231  17.963  0.00  0.00    +0.000 A 
ATOM     12  C   UNL     1       2.334   6.606  19.221  0.00  0.00    +0.000 A 
ATOM     13  C   UNL     1       1.858   7.374  20.314  0.00  0.00    +0.000 A 
BRANCH   8  16
ATOM     14  C   UNL     1      -0.172   9.067  22.009  0.00  0.00    +0.000 C 
ATOM     15  O   UNL     1      -0.881   8.084  21.826  0.00  0.00    +0.000 OA
ATOM     16  N   UNL     1       0.965   9.409  21.299  0.00  0.00    +0.000 N 
ATOM     17  H   UNL     1       1.526  10.175  21.650  0.00  0.00    +0.000 HD
BRANCH  14  19
ATOM     18  C   UNL     1      -0.984  11.236  22.800  0.00  0.00    +0.000 C 
ATOM     19  C   UNL     1      -0.492  10.027  23.104  0.00  0.00    +0.000 C 
ENDBRANCH  14  19
ENDBRANCH   8  16
ENDBRANCH   1  12
BRANCH   7  20
ATOM     20  N   UNL     1       4.612   5.192  17.720  0.00  0.00    +0.000 N 
ATOM     21  H   UNL     1       4.052   5.826  17.150  0.00  0.00    +0.000 HD
BRANCH  20  22
ATOM     22  C   UNL     1       5.869   5.827  17.897  0.00  0.00    +0.000 A 
ATOM     23  C   UNL     1       6.139   6.990  17.164  0.00  0.00    +0.000 A 
ATOM     24  C   UNL     1       7.307   7.723  17.392  0.00  0.00    +0.000 A 
ATOM     25  C   UNL     1       8.205   7.313  18.374  0.00  0.00    +0.000 A 
ATOM     26  C   UNL     1       7.938   6.170  19.125  0.00  0.00    +0.000 A 
ATOM     27  C   UNL     1       6.771   5.436  18.894  0.00  0.00    +0.000 A 
ENDBRANCH  20  22
ENDBRANCH   7  20
TORSDOF 5
ENDMDL
MODEL 2
REMARK VINA RESULT:      -8.7      1.340      1.822
REMARK  Name = 
REMARK  5 active torsions:
REMARK  status: ('A' for Active; 'I' for Inactive)
REMARK    1  A    between atoms: C_2  and  C_3
REMARK    2  A    between atoms: N_5  and  C_6
REMARK    3  A    between atoms: C_10  and  C_11
REMARK    4  A    between atoms: C_17  and  N_18
REMARK    5  A    between atoms: N_18  and  C_19
REMARK                            x       y       z     vdW  Elec       q    Type
REMARK                         _______ _______ _______ _____ _____    ______ ____
ROOT
ATOM      1  C   UNL     1       3.019   5.334  19.649  0.00  0.00    +0.000 A 
ATOM      2  N   UNL     1       2.199   4.565  20.409  0.00  0.00    +0.000 NA
ATOM      3  C   UNL     1       2.619   3.325  20.681  0.00  0.00    +0.000 A 
ATOM      4 CL   UNL     1       1.598   2.375  21.663  0.00  0.00    +0.000 Cl
ATOM      5  N   UNL     1       3.760   2.756  20.286  0.00  0.00    +0.000 NA
ATOM      6  C   UNL     1       4.553   3.551  19.544  0.00  0.00    +0.000 A 
ATOM      7  C   UNL     1       4.278   4.878  19.216  0.00  0.00    +0.000 A 
ENDROOT
BRANCH   1  12
ATOM      8  C   UNL     1       1.441   8.780  20.219  0.00  0.00    +0.000 A 
ATOM      9  C   UNL     1       1.507   9.309  18.934  0.00  0.00    +0.000 A 
ATOM     10  C   UNL     1       1.975   8.541  17.872  0.00  0.00    +0.000 A 
ATOM     11  C   UNL     1       2.407   7.235  18.090  0.00  0.00    +0.000 A 
ATOM     12  C   UNL     1       2.465   6.692  19.384  0.00  0.00    +0.000 A 
ATOM     13  C   UNL     1       1.945   7.485  20.439  0.00  0.00    +0.000 A 
BRANCH   8  16
ATOM     14  C   UNL     1      -0.227   9.132  22.038  0.00  0.00    +0.000 C 
ATOM     15  O   UNL     1      -0.888   8.109  21.897  0.00  0.00    +0.000 OA
ATOM     16  N   UNL     1       0.897   9.495  21.316  0.00  0.00    +0.000 N 
ATOM     17  H   UNL     1       1.419  10.301  21.635  0.00  0.00    +0.000 HD
BRANCH  14  19
ATOM     18  C   UNL     1      -1.167  11.282  22.732  0.00  0.00    +0.000 C 
ATOM     19  C   UNL     1      -0.596  10.123  23.089  0.00  0.00    +0.000 C 
ENDBRANCH  14  19
ENDBRANCH   8  16
ENDBRANCH   1  12
BRANCH   7  20
ATOM     20  N   UNL     1       5.182   5.628  18.422  0.00  0.00    +0.000 N 
ATOM     21  H   UNL     1       6.018   5.880  18.949  0.00  0.00    +0.000 HD
BRANCH  20  22
ATOM     22  C   UNL     1       5.623   5.314  17.111  0.00  0.00    +0.000 A 
ATOM     23  C   UNL     1       6.993   5.400  16.828  0.00  0.00    +0.000 A 
ATOM     24  C   UNL     1       7.495   4.982  15.593  0.00  0.00    +0.000 A 
ATOM     25  C   UNL     1       6.634   4.448  14.637  0.00  0.00    +0.000 A 
ATOM     26  C   UNL     1       5.274   4.337  14.913  0.00  0.00    +0.000 A 
ATOM     27  C   UNL     1       4.772   4.759  16.147  0.00  0.00    +0.000 A 
ENDBRANCH  20  22
ENDBRANCH   7  20
TORSDOF 5
ENDMDL
MODEL 3
REMARK VINA RESULT:      -8.6      1.508      1.867
REMARK  Name = 
REMARK  5 active torsions:
REMARK  status: ('A' for Active; 'I' for Inactive)
REMARK    1  A    between atoms: C_2  and  C_3
REMARK    2  A    between atoms: N_5  and  C_6
REMARK    3  A    between atoms: C_10  and  C_11
REMARK    4  A    between atoms: C_17  and  N_18
REMARK    5  A    between atoms: N_18  and  C_19
REMARK                            x       y       z     vdW  Elec       q    Type
REMARK                         _______ _______ _______ _____ _____    ______ ____
ROOT
ATOM      1  C   UNL     1       3.031   5.297  19.701  0.00  0.00    +0.000 A 
ATOM      2  N   UNL     1       2.193   4.570  20.483  0.00  0.00    +0.000 NA
ATOM      3  C   UNL     1       2.578   3.325  20.782  0.00  0.00    +0.000 A 
ATOM      4 CL   UNL     1       1.536   2.429  21.791  0.00  0.00    +0.000 Cl
ATOM      5  N   UNL     1       3.699   2.714  20.394  0.00  0.00    +0.000 NA
ATOM      6  C   UNL     1       4.511   3.468  19.630  0.00  0.00    +0.000 A 
ATOM      7  C   UNL     1       4.274   4.794  19.272  0.00  0.00    +0.000 A 
ENDROOT
BRANCH   1  12
ATOM      8  C   UNL     1       1.171   8.627  20.074  0.00  0.00    +0.000 A 
ATOM      9  C   UNL     1       1.607   9.295  18.933  0.00  0.00    +0.000 A 
ATOM     10  C   UNL     1       2.424   8.657  18.005  0.00  0.00    +0.000 A 
ATOM     11  C   UNL     1       2.836   7.344  18.221  0.00  0.00    +0.000 A 
ATOM     12  C   UNL     1       2.516   6.664  19.407  0.00  0.00    +0.000 A 
ATOM     13  C   UNL     1       1.650   7.326  20.315  0.00  0.00    +0.000 A 
BRANCH   8  16
ATOM     14  C   UNL     1       0.576   9.546  22.313  0.00  0.00    +0.000 C 
ATOM     15  O   UNL     1       1.674   9.470  22.853  0.00  0.00    +0.000 OA
ATOM     16  N   UNL     1       0.273   9.207  21.006  0.00  0.00    +0.000 N 
ATOM     17  H   UNL     1      -0.645   9.451  20.658  0.00  0.00    +0.000 HD
BRANCH  14  19
ATOM     18  C   UNL     1      -1.015  11.324  22.855  0.00  0.00    +0.000 C 
ATOM     19  C   UNL     1      -0.596  10.069  23.071  0.00  0.00    +0.000 C 
ENDBRANCH  14  19
ENDBRANCH   8  16
ENDBRANCH   1  12
BRANCH   7  20
ATOM     20  N   UNL     1       5.194   5.498  18.457  0.00  0.00    +0.000 N 
ATOM     21  H   UNL     1       5.995   5.825  18.998  0.00  0.00    +0.000 HD
BRANCH  20  22
ATOM     22  C   UNL     1       5.711   5.081  17.203  0.00  0.00    +0.000 A 
ATOM     23  C   UNL     1       4.809   4.774  16.176  0.00  0.00    +0.000 A 
ATOM     24  C   UNL     1       5.264   4.481  14.889  0.00  0.00    +0.000 A 
ATOM     25  C   UNL     1       6.628   4.516  14.608  0.00  0.00    +0.000 A 
ATOM     26  C   UNL     1       7.535   4.839  15.615  0.00  0.00    +0.000 A 
ATOM     27  C   UNL     1       7.079   5.130  16.903  0.00  0.00    +0.000 A 
ENDBRANCH  20  22
ENDBRANCH   7  20
TORSDOF 5
ENDMDL
MODEL 4
REMARK VINA RESULT:      -8.4      3.846      7.436
REMARK  Name = 
REMARK  5 active torsions:
REMARK  status: ('A' for Active; 'I' for Inactive)
REMARK    1  A    between atoms: C_2  and  C_3
REMARK    2  A    between atoms: N_5  and  C_6
REMARK    3  A    between atoms: C_10  and  C_11
REMARK    4  A    between atoms: C_17  and  N_18
REMARK    5  A    between atoms: N_18  and  C_19
REMARK                            x       y       z     vdW  Elec       q    Type
REMARK                         _______ _______ _______ _____ _____    ______ ____
ROOT
ATOM      1  C   UNL     1       3.742   6.628  18.555  0.00  0.00    +0.000 A 
ATOM      2  N   UNL     1       3.522   7.818  17.941  0.00  0.00    +0.000 NA
ATOM      3  C   UNL     1       2.465   8.524  18.360  0.00  0.00    +0.000 A 
ATOM      4 CL   UNL     1       2.214  10.033  17.607  0.00  0.00    +0.000 Cl
ATOM      5  N   UNL     1       1.600   8.186  19.317  0.00  0.00    +0.000 NA
ATOM      6  C   UNL     1       1.855   7.006  19.911  0.00  0.00    +0.000 A 
ATOM      7  C   UNL     1       2.939   6.179  19.621  0.00  0.00    +0.000 A 
ENDROOT
BRANCH   1  12
ATOM      8  C   UNL     1       5.997   4.618  16.196  0.00  0.00    +0.000 A 
ATOM      9  C   UNL     1       7.188   4.618  16.916  0.00  0.00    +0.000 A 
ATOM     10  C   UNL     1       7.250   5.182  18.187  0.00  0.00    +0.000 A 
ATOM     11  C   UNL     1       6.122   5.778  18.744  0.00  0.00    +0.000 A 
ATOM     12  C   UNL     1       4.927   5.904  18.015  0.00  0.00    +0.000 A 
ATOM     13  C   UNL     1       4.883   5.284  16.740  0.00  0.00    +0.000 A 
BRANCH   8  16
ATOM     14  C   UNL     1       6.534   4.341  13.777  0.00  0.00    +0.000 C 
ATOM     15  O   UNL     1       7.397   5.205  13.669  0.00  0.00    +0.000 OA
ATOM     16  N   UNL     1       5.863   3.985  14.934  0.00  0.00    +0.000 N 
ATOM     17  H   UNL     1       5.275   3.162  14.901  0.00  0.00    +0.000 HD
BRANCH  14  19
ATOM     18  C   UNL     1       4.831   3.450  12.263  0.00  0.00    +0.000 C 
ATOM     19  C   UNL     1       6.129   3.535  12.590  0.00  0.00    +0.000 C 
ENDBRANCH  14  19
ENDBRANCH   8  16
ENDBRANCH   1  12
BRANCH   7  20
ATOM     20  N   UNL     1       3.114   4.950  20.304  0.00  0.00    +0.000 N 
ATOM     21  H   UNL     1       2.457   4.859  21.079  0.00  0.00    +0.000 HD
BRANCH  20  22
ATOM     22  C   UNL     1       3.214   3.660  19.720  0.00  0.00    +0.000 A 
ATOM     23  C   UNL     1       2.290   3.301  18.730  0.00  0.00    +0.000 A 
ATOM     24  C   UNL     1       2.420   2.096  18.035  0.00  0.00    +0.000 A 
ATOM     25  C   UNL     1       3.491   1.248  18.306  0.00  0.00    +0.000 A 
ATOM     26  C   UNL     1       4.429   1.603  19.273  0.00  0.00    +0.000 A 
ATOM     27  C   UNL     1       4.297   2.807  19.969  0.00  0.00    +0.000 A 
ENDBRANCH  20  22
ENDBRANCH   7  20
TORSDOF 5
ENDMDL
MODEL 5
REMARK VINA RESULT:      -8.4      0.726      1.206
REMARK  Name = 
REMARK  5 active torsions:
REMARK  status: ('A' for Active; 'I' for Inactive)
REMARK    1  A    between atoms: C_2  and  C_3
REMARK    2  A    between atoms: N_5  and  C_6
REMARK    3  A    between atoms: C_10  and  C_11
REMARK    4  A    between atoms: C_17  and  N_18
REMARK    5  A    between atoms: N_18  and  C_19
REMARK                            x       y       z     vdW  Elec       q    Type
REMARK                         _______ _______ _______ _____ _____    ______ ____
ROOT
ATOM      1  C   UNL     1       2.788   5.156  19.493  0.00  0.00    +0.000 A 
ATOM      2  N   UNL     1       2.054   4.497  20.425  0.00  0.00    +0.000 NA
ATOM      3  C   UNL     1       2.381   3.220  20.654  0.00  0.00    +0.000 A 
ATOM      4 CL   UNL     1       1.476   2.408  21.850  0.00  0.00    +0.000 Cl
ATOM      5  N   UNL     1       3.352   2.520  20.066  0.00  0.00    +0.000 NA
ATOM      6  C   UNL     1       4.066   3.209  19.156  0.00  0.00    +0.000 A 
ATOM      7  C   UNL     1       3.879   4.553  18.840  0.00  0.00    +0.000 A 
ENDROOT
BRANCH   1  12
ATOM      8  C   UNL     1       1.171   8.573  20.127  0.00  0.00    +0.000 A 
ATOM      9  C   UNL     1       1.579   9.266  18.991  0.00  0.00    +0.000 A 
ATOM     10  C   UNL     1       2.296   8.623  17.986  0.00  0.00    +0.000 A 
ATOM     11  C   UNL     1       2.634   7.279  18.118  0.00  0.00    +0.000 A 
ATOM     12  C   UNL     1       2.344   6.565  19.292  0.00  0.00    +0.000 A 
ATOM     13  C   UNL     1       1.579   7.235  20.280  0.00  0.00    +0.000 A 
BRANCH   8  16
ATOM     14  C   UNL     1       0.791   9.474  22.420  0.00  0.00    +0.000 C 
ATOM     15  O   UNL     1       1.928   9.360  22.865  0.00  0.00    +0.000 OA
ATOM     16  N   UNL     1       0.371   9.162  21.139  0.00  0.00    +0.000 N 
ATOM     17  H   UNL     1      -0.566   9.436  20.872  0.00  0.00    +0.000 HD
BRANCH  14  19
ATOM     18  C   UNL     1      -1.121  10.955  22.791  0.00  0.00    +0.000 C 
ATOM     19  C   UNL     1      -0.299  10.016  23.280  0.00  0.00    +0.000 C 
ENDBRANCH  14  19
ENDBRANCH   8  16
ENDBRANCH   1  12
BRANCH   7  20
ATOM     20  N   UNL     1       4.685   5.184  17.860  0.00  0.00    +0.000 N 
ATOM     21  H   UNL     1       4.119   5.722  17.204  0.00  0.00    +0.000 HD
BRANCH  20  22
ATOM     22  C   UNL     1       5.857   5.950  18.089  0.00  0.00    +0.000 A 
ATOM     23  C   UNL     1       6.765   5.508  19.061  0.00  0.00    +0.000 A 
ATOM     24  C   UNL     1       7.992   6.153  19.238  0.00  0.00    +0.000 A 
ATOM     25  C   UNL     1       8.334   7.232  18.427  0.00  0.00    +0.000 A 
ATOM     26  C   UNL     1       7.450   7.669  17.443  0.00  0.00    +0.000 A 
ATOM     27  C   UNL     1       6.222   7.025  17.269  0.00  0.00    +0.000 A 
ENDBRANCH  20  22
ENDBRANCH   7  20
TORSDOF 5
ENDMDL
MODEL 6
REMARK VINA RESULT:      -8.4      2.882      5.906
REMARK  Name = 
REMARK  5 active torsions:
REMARK  status: ('A' for Active; 'I' for Inactive)
REMARK    1  A    between atoms: C_2  and  C_3
REMARK    2  A    between atoms: N_5  and  C_6
REMARK    3  A    between atoms: C_10  and  C_11
REMARK    4  A    between atoms: C_17  and  N_18
REMARK    5  A    between atoms: N_18  and  C_19
REMARK                            x       y       z     vdW  Elec       q    Type
REMARK                         _______ _______ _______ _____ _____    ______ ____
ROOT
ATOM      1  C   UNL     1       4.231   3.650  19.069  0.00  0.00    +0.000 A 
ATOM      2  N   UNL     1       5.043   2.734  19.655  0.00  0.00    +0.000 NA
ATOM      3  C   UNL     1       4.575   2.132  20.754  0.00  0.00    +0.000 A 
ATOM      4 CL   UNL     1       5.587   0.958  21.466  0.00  0.00    +0.000 Cl
ATOM      5  N   UNL     1       3.394   2.332  21.341  0.00  0.00    +0.000 NA
ATOM      6  C   UNL     1       2.611   3.239  20.727  0.00  0.00    +0.000 A 
ATOM      7  C   UNL     1       2.936   3.915  19.552  0.00  0.00    +0.000 A 
ENDROOT
BRANCH   1  12
ATOM      8  C   UNL     1       6.119   6.130  16.838  0.00  0.00    +0.000 A 
ATOM      9  C   UNL     1       6.094   5.453  15.622  0.00  0.00    +0.000 A 
ATOM     10  C   UNL     1       5.405   4.251  15.492  0.00  0.00    +0.000 A 
ATOM     11  C   UNL     1       4.750   3.697  16.590  0.00  0.00    +0.000 A 
ATOM     12  C   UNL     1       4.838   4.281  17.864  0.00  0.00    +0.000 A 
ATOM     13  C   UNL     1       5.514   5.525  17.956  0.00  0.00    +0.000 A 
BRANCH   8  16
ATOM     14  C   UNL     1       7.738   7.695  17.907  0.00  0.00    +0.000 C 
ATOM     15  O   UNL     1       8.298   6.909  18.663  0.00  0.00    +0.000 OA
ATOM     16  N   UNL     1       6.738   7.396  16.999  0.00  0.00    +0.000 N 
ATOM     17  H   UNL     1       6.465   8.118  16.345  0.00  0.00    +0.000 HD
BRANCH  14  19
ATOM     18  C   UNL     1       8.924   9.608  18.865  0.00  0.00    +0.000 C 
ATOM     19  C   UNL     1       8.136   9.131  17.892  0.00  0.00    +0.000 C 
ENDBRANCH  14  19
ENDBRANCH   8  16
ENDBRANCH   1  12
BRANCH   7  20
ATOM     20  N   UNL     1       2.039   4.856  18.989  0.00  0.00    +0.000 N 
ATOM     21  H   UNL     1       1.070   4.553  19.090  0.00  0.00    +0.000 HD
BRANCH  20  22
ATOM     22  C   UNL     1       2.036   6.260  19.201  0.00  0.00    +0.000 A 
ATOM     23  C   UNL     1       2.256   7.102  18.104  0.00  0.00    +0.000 A 
ATOM     24  C   UNL     1       2.138   8.488  18.233  0.00  0.00    +0.000 A 
ATOM     25  C   UNL     1       1.775   9.045  19.456  0.00  0.00    +0.000 A 
ATOM     26  C   UNL     1       1.533   8.218  20.550  0.00  0.00    +0.000 A 
ATOM     27  C   UNL     1       1.653   6.832  20.421  0.00  0.00    +0.000 A 
ENDBRANCH  20  22
ENDBRANCH   7  20
TORSDOF 5
ENDMDL
MODEL 7
REMARK VINA RESULT:      -8.4      2.678      6.058
REMARK  Name = 
REMARK  5 active torsions:
REMARK  status: ('A' for Active; 'I' for Inactive)
REMARK    1  A    between atoms: C_2  and  C_3
REMARK    2  A    between atoms: N_5  and  C_6
REMARK    3  A    between atoms: C_10  and  C_11
REMARK    4  A    between atoms: C_17  and  N_18
REMARK    5  A    between atoms: N_18  and  C_19
REMARK                            x       y       z     vdW  Elec       q    Type
REMARK                         _______ _______ _______ _____ _____    ______ ____
ROOT
ATOM      1  C   UNL     1       3.031   4.535  18.564  0.00  0.00    +0.000 A 
ATOM      2  N   UNL     1       2.563   3.266  18.451  0.00  0.00    +0.000 NA
ATOM      3  C   UNL     1       1.590   2.907  19.297  0.00  0.00    +0.000 A 
ATOM      4 CL   UNL     1       0.985   1.322  19.127  0.00  0.00    +0.000 Cl
ATOM      5  N   UNL     1       1.027   3.660  20.243  0.00  0.00    +0.000 NA
ATOM      6  C   UNL     1       1.508   4.915  20.319  0.00  0.00    +0.000 A 
ATOM      7  C   UNL     1       2.484   5.453  19.481  0.00  0.00    +0.000 A 
ENDROOT
BRANCH   1  12
ATOM      8  C   UNL     1       5.946   6.327  16.837  0.00  0.00    +0.000 A 
ATOM      9  C   UNL     1       6.264   5.404  15.846  0.00  0.00    +0.000 A 
ATOM     10  C   UNL     1       5.500   4.254  15.673  0.00  0.00    +0.000 A 
ATOM     11  C   UNL     1       4.417   4.002  16.511  0.00  0.00    +0.000 A 
ATOM     12  C   UNL     1       4.121   4.843  17.596  0.00  0.00    +0.000 A 
ATOM     13  C   UNL     1       4.893   6.027  17.721  0.00  0.00    +0.000 A 
BRANCH   8  16
ATOM     14  C   UNL     1       7.683   7.776  17.885  0.00  0.00    +0.000 C 
ATOM     15  O   UNL     1       8.213   6.947  18.617  0.00  0.00    +0.000 OA
ATOM     16  N   UNL     1       6.643   7.551  17.000  0.00  0.00    +0.000 N 
ATOM     17  H   UNL     1       6.399   8.299  16.363  0.00  0.00    +0.000 HD
BRANCH  14  19
ATOM     18  C   UNL     1       8.951   9.619  18.875  0.00  0.00    +0.000 C 
ATOM     19  C   UNL     1       8.166   9.186  17.879  0.00  0.00    +0.000 C 
ENDBRANCH  14  19
ENDBRANCH   8  16
ENDBRANCH   1  12
BRANCH   7  20
ATOM     20  N   UNL     1       2.924   6.789  19.649  0.00  0.00    +0.000 N 
ATOM     21  H   UNL     1       3.812   6.950  19.174  0.00  0.00    +0.000 HD
BRANCH  20  22
ATOM     22  C   UNL     1       2.156   7.967  19.458  0.00  0.00    +0.000 A 
ATOM     23  C   UNL     1       2.031   8.480  18.160  0.00  0.00    +0.000 A 
ATOM     24  C   UNL     1       1.186   9.561  17.898  0.00  0.00    +0.000 A 
ATOM     25  C   UNL     1       0.436  10.124  18.927  0.00  0.00    +0.000 A 
ATOM     26  C   UNL     1       0.534   9.610  20.218  0.00  0.00    +0.000 A 
ATOM     27  C   UNL     1       1.382   8.531  20.480  0.00  0.00    +0.000 A 
ENDBRANCH  20  22
ENDBRANCH   7  20
TORSDOF 5
ENDMDL
MODEL 8
REMARK VINA RESULT:      -8.3      3.350      7.148
REMARK  Name = 
REMARK  5 active torsions:
REMARK  status: ('A' for Active; 'I' for Inactive)
REMARK    1  A    between atoms: C_2  and  C_3
REMARK    2  A    between atoms: N_5  and  C_6
REMARK    3  A    between atoms: C_10  and  C_11
REMARK    4  A    between atoms: C_17  and  N_18
REMARK    5  A    between atoms: N_18  and  C_19
REMARK                            x       y       z     vdW  Elec       q    Type
REMARK                         _______ _______ _______ _____ _____    ______ ____
ROOT
ATOM      1  C   UNL     1       3.207   4.190  18.902  0.00  0.00    +0.000 A 
ATOM      2  N   UNL     1       2.702   2.949  18.683  0.00  0.00    +0.000 NA
ATOM      3  C   UNL     1       1.514   2.679  19.234  0.00  0.00    +0.000 A 
ATOM      4 CL   UNL     1       0.870   1.129  18.928  0.00  0.00    +0.000 Cl
ATOM      5  N   UNL     1       0.766   3.495  19.979  0.00  0.00    +0.000 NA
ATOM      6  C   UNL     1       1.293   4.720  20.166  0.00  0.00    +0.000 A 
ATOM      7  C   UNL     1       2.495   5.169  19.621  0.00  0.00    +0.000 A 
ENDROOT
BRANCH   1  12
ATOM      8  C   UNL     1       5.977   4.338  16.257  0.00  0.00    +0.000 A 
ATOM      9  C   UNL     1       7.017   4.883  17.004  0.00  0.00    +0.000 A 
ATOM     10  C   UNL     1       6.864   5.124  18.366  0.00  0.00    +0.000 A 
ATOM     11  C   UNL     1       5.653   4.843  18.994  0.00  0.00    +0.000 A 
ATOM     12  C   UNL     1       4.538   4.398  18.266  0.00  0.00    +0.000 A 
ATOM     13  C   UNL     1       4.738   4.124  16.888  0.00  0.00    +0.000 A 
BRANCH   8  16
ATOM     14  C   UNL     1       6.941   4.631  13.977  0.00  0.00    +0.000 C 
ATOM     15  O   UNL     1       7.740   5.530  14.217  0.00  0.00    +0.000 OA
ATOM     16  N   UNL     1       6.112   3.999  14.887  0.00  0.00    +0.000 N 
ATOM     17  H   UNL     1       5.605   3.182  14.572  0.00  0.00    +0.000 HD
BRANCH  14  19
ATOM     18  C   UNL     1       5.821   3.237  12.307  0.00  0.00    +0.000 C 
ATOM     19  C   UNL     1       6.810   4.097  12.592  0.00  0.00    +0.000 C 
ENDBRANCH  14  19
ENDBRANCH   8  16
ENDBRANCH   1  12
BRANCH   7  20
ATOM     20  N   UNL     1       2.962   6.480  19.884  0.00  0.00    +0.000 N 
ATOM     21  H   UNL     1       3.932   6.594  19.590  0.00  0.00    +0.000 HD
BRANCH  20  22
ATOM     22  C   UNL     1       2.307   7.697  19.560  0.00  0.00    +0.000 A 
ATOM     23  C   UNL     1       2.342   8.142  18.232  0.00  0.00    +0.000 A 
ATOM     24  C   UNL     1       1.609   9.263  17.835  0.00  0.00    +0.000 A 
ATOM     25  C   UNL     1       0.813   9.937  18.758  0.00  0.00    +0.000 A 
ATOM     26  C   UNL     1       0.753   9.493  20.077  0.00  0.00    +0.000 A 
ATOM     27  C   UNL     1       1.489   8.372  20.474  0.00  0.00    +0.000 A 
ENDBRANCH  20  22
ENDBRANCH   7  20
TORSDOF 5
ENDMDL
MODEL 9
REMARK VINA RESULT:      -8.3      1.601      2.069
REMARK  Name = 
REMARK  5 active torsions:
REMARK  status: ('A' for Active; 'I' for Inactive)
REMARK    1  A    between atoms: C_2  and  C_3
REMARK    2  A    between atoms: N_5  and  C_6
REMARK    3  A    between atoms: C_10  and  C_11
REMARK    4  A    between atoms: C_17  and  N_18
REMARK    5  A    between atoms: N_18  and  C_19
REMARK                            x       y       z     vdW  Elec       q    Type
REMARK                         _______ _______ _______ _____ _____    ______ ____
ROOT
ATOM      1  C   UNL     1       2.929   5.532  19.648  0.00  0.00    +0.000 A 
ATOM      2  N   UNL     1       2.027   4.793  20.341  0.00  0.00    +0.000 NA
ATOM      3  C   UNL     1       2.398   3.554  20.679  0.00  0.00    +0.000 A 
ATOM      4 CL   UNL     1       1.271   2.642  21.579  0.00  0.00    +0.000 Cl
ATOM      5  N   UNL     1       3.561   2.959  20.409  0.00  0.00    +0.000 NA
ATOM      6  C   UNL     1       4.435   3.725  19.730  0.00  0.00    +0.000 A 
ATOM      7  C   UNL     1       4.216   5.048  19.348  0.00  0.00    +0.000 A 
ENDROOT
BRANCH   1  12
ATOM      8  C   UNL     1       1.154   8.918  19.916  0.00  0.00    +0.000 A 
ATOM      9  C   UNL     1       1.546   9.511  18.720  0.00  0.00    +0.000 A 
ATOM     10  C   UNL     1       2.304   8.803  17.791  0.00  0.00    +0.000 A 
ATOM     11  C   UNL     1       2.700   7.496  18.062  0.00  0.00    +0.000 A 
ATOM     12  C   UNL     1       2.426   6.891  19.300  0.00  0.00    +0.000 A 
ATOM     13  C   UNL     1       1.619   7.623  20.209  0.00  0.00    +0.000 A 
BRANCH   8  16
ATOM     14  C   UNL     1       0.518  10.835  21.379  0.00  0.00    +0.000 C 
ATOM     15  O   UNL     1       1.406  11.621  21.067  0.00  0.00    +0.000 OA
ATOM     16  N   UNL     1       0.315   9.569  20.856  0.00  0.00    +0.000 N 
ATOM     17  H   UNL     1      -0.539   9.088  21.110  0.00  0.00    +0.000 HD
BRANCH  14  19
ATOM     18  C   UNL     1      -0.983  10.284  23.231  0.00  0.00    +0.000 C 
ATOM     19  C   UNL     1      -0.496  11.218  22.402  0.00  0.00    +0.000 C 
ENDBRANCH  14  19
ENDBRANCH   8  16
ENDBRANCH   1  12
BRANCH   7  20
ATOM     20  N   UNL     1       5.205   5.766  18.629  0.00  0.00    +0.000 N 
ATOM     21  H   UNL     1       6.018   5.962  19.212  0.00  0.00    +0.000 HD
BRANCH  20  22
ATOM     22  C   UNL     1       5.711   5.456  17.340  0.00  0.00    +0.000 A 
ATOM     23  C   UNL     1       6.990   4.894  17.241  0.00  0.00    +0.000 A 
ATOM     24  C   UNL     1       7.484   4.455  16.011  0.00  0.00    +0.000 A 
ATOM     25  C   UNL     1       6.693   4.550  14.869  0.00  0.00    +0.000 A 
ATOM     26  C   UNL     1       5.411   5.087  14.957  0.00  0.00    +0.000 A 
ATOM     27  C   UNL     1       4.918   5.529  16.188  0.00  0.00    +0.000 A 
ENDBRANCH  20  22
ENDBRANCH   7  20
TORSDOF 5
ENDMDL
