MODEL 1
REMARK VINA RESULT:      -8.2      0.000      0.000
REMARK  Name = 
REMARK  9 active torsions:
REMARK  status: ('A' for Active; 'I' for Inactive)
REMARK    1  A    between atoms: C_1  and  C_2
REMARK    2  A    between atoms: C_7  and  N_8
REMARK    3  A    between atoms: N_8  and  C_9
REMARK    4  A    between atoms: C_12  and  N_13
REMARK    5  A    between atoms: N_13  and  S_14
REMARK    6  A    between atoms: S_14  and  C_15
REMARK    7  A    between atoms: C_19  and  N_20
REMARK    8  A    between atoms: N_20  and  C_21
REMARK    9  A    between atoms: N_20  and  C_22
REMARK                            x       y       z     vdW  Elec       q    Type
REMARK                         _______ _______ _______ _____ _____    ______ ____
ROOT
ATOM      1  N   UNL     1       2.693   6.998  19.816  0.00  0.00    +0.000 N 
ATOM      2  H   UNL     1       3.492   7.276  20.384  0.00  0.00    +0.000 HD
ENDROOT
BRANCH   1   9
ATOM      3  C   UNL     1       5.493   3.946  15.129  0.00  0.00    +0.000 C 
ATOM      4  C   UNL     1       5.336   5.024  16.169  0.00  0.00    +0.000 A 
ATOM      5  C   UNL     1       6.187   6.139  16.118  0.00  0.00    +0.000 A 
ATOM      6  C   UNL     1       6.118   7.107  17.103  0.00  0.00    +0.000 A 
ATOM      7  C   UNL     1       5.162   6.986  18.100  0.00  0.00    +0.000 A 
ATOM      8  C   UNL     1       4.201   5.945  18.102  0.00  0.00    +0.000 A 
ATOM      9  C   UNL     1       3.067   5.883  18.973  0.00  0.00    +0.000 A 
ATOM     10  C   UNL     1       2.303   4.686  19.039  0.00  0.00    +0.000 A 
ATOM     11  C   UNL     1       1.245   4.461  19.956  0.00  0.00    +0.000 A 
ATOM     12  C   UNL     1       0.542   3.256  19.965  0.00  0.00    +0.000 A 
ATOM     13  C   UNL     1       0.880   2.259  19.058  0.00  0.00    +0.000 A 
ATOM     14  C   UNL     1       1.898   2.485  18.137  0.00  0.00    +0.000 A 
ATOM     15  C   UNL     1       2.617   3.677  18.114  0.00  0.00    +0.000 A 
ATOM     16  N   UNL     1       3.575   3.805  17.191  0.00  0.00    +0.000 NA
ATOM     17  C   UNL     1       4.352   4.908  17.166  0.00  0.00    +0.000 A 
ENDBRANCH   1   9
BRANCH   1  18
ATOM     18  C   UNL     1       2.019   8.189  19.366  0.00  0.00    +0.000 A 
ATOM     19  C   UNL     1       2.232   8.613  18.032  0.00  0.00    +0.000 A 
ATOM     20  C   UNL     1       1.863   9.886  17.609  0.00  0.00    +0.000 A 
ATOM     21  C   UNL     1       1.164  10.703  18.479  0.00  0.00    +0.000 A 
ATOM     22  C   UNL     1       0.819  10.241  19.755  0.00  0.00    +0.000 A 
ATOM     23  C   UNL     1       1.213   8.973  20.247  0.00  0.00    +0.000 A 
BRANCH  23  24
ATOM     24  N   UNL     1       0.895   8.574  21.549  0.00  0.00    +0.000 N 
ATOM     25  C   UNL     1      -0.466   8.148  21.892  0.00  0.00    +0.000 C 
ATOM     26  C   UNL     1       1.691   8.994  22.706  0.00  0.00    +0.000 C 
ENDBRANCH  23  24
BRANCH  21  27
ATOM     27  N   UNL     1       0.797  12.027  18.085  0.00  0.00    +0.000 N 
ATOM     28  H   UNL     1       0.763  12.171  17.073  0.00  0.00    +0.000 HD
BRANCH  27  29
ATOM     29  S   UNL     1       1.644  13.324  18.774  0.00  0.00    +0.000 S 
ATOM     30  C   UNL     1       0.354  14.546  18.914  0.00  0.00    +0.000 C 
ATOM     31  O   UNL     1       2.116  12.986  20.095  0.00  0.00    +0.000 OA
ATOM     32  O   UNL     1       2.556  13.772  17.743  0.00  0.00    +0.000 OA
ENDBRANCH  27  29
ENDBRANCH  21  27
ENDBRANCH   1  18
TORSDOF 5
ENDMDL
MODEL 2
REMARK VINA RESULT:      -8.0      2.137      2.231
REMARK  Name = 
REMARK  9 active torsions:
REMARK  status: ('A' for Active; 'I' for Inactive)
REMARK    1  A    between atoms: C_1  and  C_2
REMARK    2  A    between atoms: C_7  and  N_8
REMARK    3  A    between atoms: N_8  and  C_9
REMARK    4  A    between atoms: C_12  and  N_13
REMARK    5  A    between atoms: N_13  and  S_14
REMARK    6  A    between atoms: S_14  and  C_15
REMARK    7  A    between atoms: C_19  and  N_20
REMARK    8  A    between atoms: N_20  and  C_21
REMARK    9  A    between atoms: N_20  and  C_22
REMARK                            x       y       z     vdW  Elec       q    Type
REMARK                         _______ _______ _______ _____ _____    ______ ____
ROOT
ATOM      1  N   UNL     1       2.747   7.273  19.878  0.00  0.00    +0.000 N 
ATOM      2  H   UNL     1       3.556   7.856  20.086  0.00  0.00    +0.000 HD
ENDROOT
BRANCH   1   9
ATOM      3  C   UNL     1       5.482   3.553  15.658  0.00  0.00    +0.000 C 
ATOM      4  C   UNL     1       5.279   4.818  16.451  0.00  0.00    +0.000 A 
ATOM      5  C   UNL     1       5.962   5.979  16.055  0.00  0.00    +0.000 A 
ATOM      6  C   UNL     1       5.855   7.133  16.807  0.00  0.00    +0.000 A 
ATOM      7  C   UNL     1       5.021   7.140  17.916  0.00  0.00    +0.000 A 
ATOM      8  C   UNL     1       4.216   6.027  18.262  0.00  0.00    +0.000 A 
ATOM      9  C   UNL     1       3.189   6.043  19.258  0.00  0.00    +0.000 A 
ATOM     10  C   UNL     1       2.604   4.815  19.675  0.00  0.00    +0.000 A 
ATOM     11  C   UNL     1       1.678   4.691  20.741  0.00  0.00    +0.000 A 
ATOM     12  C   UNL     1       1.149   3.450  21.098  0.00  0.00    +0.000 A 
ATOM     13  C   UNL     1       1.533   2.315  20.395  0.00  0.00    +0.000 A 
ATOM     14  C   UNL     1       2.420   2.434  19.329  0.00  0.00    +0.000 A 
ATOM     15  C   UNL     1       2.964   3.661  18.959  0.00  0.00    +0.000 A 
ATOM     16  N   UNL     1       3.804   3.679  17.921  0.00  0.00    +0.000 NA
ATOM     17  C   UNL     1       4.418   4.826  17.562  0.00  0.00    +0.000 A 
ENDBRANCH   1   9
BRANCH   1  18
ATOM     18  C   UNL     1       1.692   8.119  19.383  0.00  0.00    +0.000 A 
ATOM     19  C   UNL     1       1.564   8.277  17.981  0.00  0.00    +0.000 A 
ATOM     20  C   UNL     1       0.776   9.285  17.435  0.00  0.00    +0.000 A 
ATOM     21  C   UNL     1       0.009  10.067  18.280  0.00  0.00    +0.000 A 
ATOM     22  C   UNL     1       0.014   9.826  19.660  0.00  0.00    +0.000 A 
ATOM     23  C   UNL     1       0.835   8.844  20.266  0.00  0.00    +0.000 A 
BRANCH  23  24
ATOM     24  N   UNL     1       0.850   8.675  21.655  0.00  0.00    +0.000 N 
ATOM     25  C   UNL     1      -0.380   8.353  22.385  0.00  0.00    +0.000 C 
ATOM     26  C   UNL     1       1.902   9.255  22.495  0.00  0.00    +0.000 C 
ENDBRANCH  23  24
BRANCH  21  27
ATOM     27  N   UNL     1      -0.788  11.130  17.752  0.00  0.00    +0.000 N 
ATOM     28  H   UNL     1      -0.647  12.031  18.214  0.00  0.00    +0.000 HD
BRANCH  27  29
ATOM     29  S   UNL     1      -2.456  10.869  17.599  0.00  0.00    +0.000 S 
ATOM     30  C   UNL     1      -2.701  11.200  15.865  0.00  0.00    +0.000 C 
ATOM     31  O   UNL     1      -2.789   9.491  17.867  0.00  0.00    +0.000 OA
ATOM     32  O   UNL     1      -3.078  11.948  18.338  0.00  0.00    +0.000 OA
ENDBRANCH  27  29
ENDBRANCH  21  27
ENDBRANCH   1  18
TORSDOF 5
ENDMDL
MODEL 3
REMARK VINA RESULT:      -7.9      3.943      8.088
REMARK  Name = 
REMARK  9 active torsions:
REMARK  status: ('A' for Active; 'I' for Inactive)
REMARK    1  A    between atoms: C_1  and  C_2
REMARK    2  A    between atoms: C_7  and  N_8
REMARK    3  A    between atoms: N_8  and  C_9
REMARK    4  A    between atoms: C_12  and  N_13
REMARK    5  A    between atoms: N_13  and  S_14
REMARK    6  A    between atoms: S_14  and  C_15
REMARK    7  A    between atoms: C_19  and  N_20
REMARK    8  A    between atoms: N_20  and  C_21
REMARK    9  A    between atoms: N_20  and  C_22
REMARK                            x       y       z     vdW  Elec       q    Type
REMARK                         _______ _______ _______ _____ _____    ______ ____
ROOT
ATOM      1  N   UNL     1       0.713  11.215  19.368  0.00  0.00    +0.000 N 
ATOM      2  H   UNL     1       1.194  11.701  20.123  0.00  0.00    +0.000 HD
ENDROOT
BRANCH   1   9
ATOM      3  C   UNL     1      -5.260  11.671  17.568  0.00  0.00    +0.000 C 
ATOM      4  C   UNL     1      -3.844  11.160  17.520  0.00  0.00    +0.000 A 
ATOM      5  C   UNL     1      -3.434  10.414  16.403  0.00  0.00    +0.000 A 
ATOM      6  C   UNL     1      -2.165   9.868  16.366  0.00  0.00    +0.000 A 
ATOM      7  C   UNL     1      -1.293  10.117  17.416  0.00  0.00    +0.000 A 
ATOM      8  C   UNL     1      -1.631  10.977  18.490  0.00  0.00    +0.000 A 
ATOM      9  C   UNL     1      -0.712  11.439  19.485  0.00  0.00    +0.000 A 
ATOM     10  C   UNL     1      -1.209  12.109  20.636  0.00  0.00    +0.000 A 
ATOM     11  C   UNL     1      -0.414  12.493  21.744  0.00  0.00    +0.000 A 
ATOM     12  C   UNL     1      -0.975  13.145  22.844  0.00  0.00    +0.000 A 
ATOM     13  C   UNL     1      -2.335  13.427  22.852  0.00  0.00    +0.000 A 
ATOM     14  C   UNL     1      -3.115  13.078  21.754  0.00  0.00    +0.000 A 
ATOM     15  C   UNL     1      -2.579  12.422  20.650  0.00  0.00    +0.000 A 
ATOM     16  N   UNL     1      -3.404  12.130  19.641  0.00  0.00    +0.000 NA
ATOM     17  C   UNL     1      -2.958  11.432  18.576  0.00  0.00    +0.000 A 
ENDBRANCH   1   9
BRANCH   1  18
ATOM     18  C   UNL     1       1.338   9.931  19.182  0.00  0.00    +0.000 A 
ATOM     19  C   UNL     1       1.993   9.678  17.953  0.00  0.00    +0.000 A 
ATOM     20  C   UNL     1       2.363   8.390  17.581  0.00  0.00    +0.000 A 
ATOM     21  C   UNL     1       2.197   7.358  18.488  0.00  0.00    +0.000 A 
ATOM     22  C   UNL     1       1.684   7.619  19.765  0.00  0.00    +0.000 A 
ATOM     23  C   UNL     1       1.250   8.904  20.171  0.00  0.00    +0.000 A 
BRANCH  23  24
ATOM     24  N   UNL     1       0.691   9.108  21.437  0.00  0.00    +0.000 N 
ATOM     25  C   UNL     1       1.539   9.433  22.588  0.00  0.00    +0.000 C 
ATOM     26  C   UNL     1      -0.620   8.564  21.804  0.00  0.00    +0.000 C 
ENDBRANCH  23  24
BRANCH  21  27
ATOM     27  N   UNL     1       2.540   6.018  18.124  0.00  0.00    +0.000 N 
ATOM     28  H   UNL     1       1.987   5.300  18.597  0.00  0.00    +0.000 HD
BRANCH  27  29
ATOM     29  S   UNL     1       4.172   5.568  18.205  0.00  0.00    +0.000 S 
ATOM     30  C   UNL     1       4.103   3.899  17.584  0.00  0.00    +0.000 C 
ATOM     31  O   UNL     1       4.972   6.370  17.312  0.00  0.00    +0.000 OA
ATOM     32  O   UNL     1       4.475   5.492  19.619  0.00  0.00    +0.000 OA
ENDBRANCH  27  29
ENDBRANCH  21  27
ENDBRANCH   1  18
TORSDOF 5
ENDMDL
MODEL 4
REMARK VINA RESULT:      -7.8      1.122      1.122
REMARK  Name = 
REMARK  9 active torsions:
REMARK  status: ('A' for Active; 'I' for Inactive)
REMARK    1  A    between atoms: C_1  and  C_2
REMARK    2  A    between atoms: C_7  and  N_8
REMARK    3  A    between atoms: N_8  and  C_9
REMARK    4  A    between atoms: C_12  and  N_13
REMARK    5  A    between atoms: N_13  and  S_14
REMARK    6  A    between atoms: S_14  and  C_15
REMARK    7  A    between atoms: C_19  and  N_20
REMARK    8  A    between atoms: N_20  and  C_21
REMARK    9  A    between atoms: N_20  and  C_22
REMARK                            x       y       z     vdW  Elec       q    Type
REMARK                         _______ _______ _______ _____ _____    ______ ____
ROOT
ATOM      1  N   UNL     1       2.671   6.927  19.843  0.00  0.00    +0.000 N 
ATOM      2  H   UNL     1       3.461   7.189  20.431  0.00  0.00    +0.000 HD
ENDROOT
BRANCH   1   9
ATOM      3  C   UNL     1       5.495   3.890  15.161  0.00  0.00    +0.000 C 
ATOM      4  C   UNL     1       5.334   4.965  16.204  0.00  0.00    +0.000 A 
ATOM      5  C   UNL     1       6.186   6.079  16.161  0.00  0.00    +0.000 A 
ATOM      6  C   UNL     1       6.112   7.043  17.149  0.00  0.00    +0.000 A 
ATOM      7  C   UNL     1       5.150   6.920  18.141  0.00  0.00    +0.000 A 
ATOM      8  C   UNL     1       4.188   5.879  18.134  0.00  0.00    +0.000 A 
ATOM      9  C   UNL     1       3.050   5.815  18.999  0.00  0.00    +0.000 A 
ATOM     10  C   UNL     1       2.284   4.619  19.056  0.00  0.00    +0.000 A 
ATOM     11  C   UNL     1       1.221   4.391  19.965  0.00  0.00    +0.000 A 
ATOM     12  C   UNL     1       0.517   3.186  19.966  0.00  0.00    +0.000 A 
ATOM     13  C   UNL     1       0.859   2.192  19.058  0.00  0.00    +0.000 A 
ATOM     14  C   UNL     1       1.882   2.421  18.144  0.00  0.00    +0.000 A 
ATOM     15  C   UNL     1       2.602   3.613  18.128  0.00  0.00    +0.000 A 
ATOM     16  N   UNL     1       3.565   3.743  17.212  0.00  0.00    +0.000 NA
ATOM     17  C   UNL     1       4.344   4.845  17.195  0.00  0.00    +0.000 A 
ENDBRANCH   1   9
BRANCH   1  18
ATOM     18  C   UNL     1       2.023   8.131  19.389  0.00  0.00    +0.000 A 
ATOM     19  C   UNL     1       2.229   8.536  18.049  0.00  0.00    +0.000 A 
ATOM     20  C   UNL     1       1.888   9.814  17.618  0.00  0.00    +0.000 A 
ATOM     21  C   UNL     1       1.221  10.658  18.489  0.00  0.00    +0.000 A 
ATOM     22  C   UNL     1       0.881  10.217  19.773  0.00  0.00    +0.000 A 
ATOM     23  C   UNL     1       1.249   8.944  20.273  0.00  0.00    +0.000 A 
BRANCH  23  24
ATOM     24  N   UNL     1       0.936   8.566  21.583  0.00  0.00    +0.000 N 
ATOM     25  C   UNL     1      -0.430   8.178  21.946  0.00  0.00    +0.000 C 
ATOM     26  C   UNL     1       1.758   8.976  22.725  0.00  0.00    +0.000 C 
ENDBRANCH  23  24
BRANCH  21  27
ATOM     27  N   UNL     1       0.884  11.987  18.085  0.00  0.00    +0.000 N 
ATOM     28  H   UNL     1       1.629  12.672  18.226  0.00  0.00    +0.000 HD
BRANCH  27  29
ATOM     29  S   UNL     1      -0.561  12.651  18.673  0.00  0.00    +0.000 S 
ATOM     30  C   UNL     1      -1.769  11.763  17.708  0.00  0.00    +0.000 C 
ATOM     31  O   UNL     1      -0.745  12.330  20.068  0.00  0.00    +0.000 OA
ATOM     32  O   UNL     1      -0.562  14.024  18.213  0.00  0.00    +0.000 OA
ENDBRANCH  27  29
ENDBRANCH  21  27
ENDBRANCH   1  18
TORSDOF 5
ENDMDL
MODEL 5
REMARK VINA RESULT:      -7.5      2.287      4.085
REMARK  Name = 
REMARK  9 active torsions:
REMARK  status: ('A' for Active; 'I' for Inactive)
REMARK    1  A    between atoms: C_1  and  C_2
REMARK    2  A    between atoms: C_7  and  N_8
REMARK    3  A    between atoms: N_8  and  C_9
REMARK    4  A    between atoms: C_12  and  N_13
REMARK    5  A    between atoms: N_13  and  S_14
REMARK    6  A    between atoms: S_14  and  C_15
REMARK    7  A    between atoms: C_19  and  N_20
REMARK    8  A    between atoms: N_20  and  C_21
REMARK    9  A    between atoms: N_20  and  C_22
REMARK                            x       y       z     vdW  Elec       q    Type
REMARK                         _______ _______ _______ _____ _____    ______ ____
ROOT
ATOM      1  N   UNL     1       2.680   7.385  19.668  0.00  0.00    +0.000 N 
ATOM      2  H   UNL     1       3.520   7.957  19.731  0.00  0.00    +0.000 HD
ENDROOT
BRANCH   1   9
ATOM      3  C   UNL     1       3.303   1.183  19.147  0.00  0.00    +0.000 C 
ATOM      4  C   UNL     1       2.698   2.467  19.651  0.00  0.00    +0.000 A 
ATOM      5  C   UNL     1       1.796   2.412  20.725  0.00  0.00    +0.000 A 
ATOM      6  C   UNL     1       1.167   3.564  21.158  0.00  0.00    +0.000 A 
ATOM      7  C   UNL     1       1.485   4.773  20.556  0.00  0.00    +0.000 A 
ATOM      8  C   UNL     1       2.490   4.880  19.563  0.00  0.00    +0.000 A 
ATOM      9  C   UNL     1       3.009   6.115  19.059  0.00  0.00    +0.000 A 
ATOM     10  C   UNL     1       3.846   6.101  17.910  0.00  0.00    +0.000 A 
ATOM     11  C   UNL     1       4.310   7.263  17.243  0.00  0.00    +0.000 A 
ATOM     12  C   UNL     1       5.127   7.171  16.115  0.00  0.00    +0.000 A 
ATOM     13  C   UNL     1       5.496   5.920  15.638  0.00  0.00    +0.000 A 
ATOM     14  C   UNL     1       5.068   4.776  16.304  0.00  0.00    +0.000 A 
ATOM     15  C   UNL     1       4.248   4.844  17.428  0.00  0.00    +0.000 A 
ATOM     16  N   UNL     1       3.890   3.693  18.004  0.00  0.00    +0.000 NA
ATOM     17  C   UNL     1       3.038   3.692  19.051  0.00  0.00    +0.000 A 
ENDBRANCH   1   9
BRANCH   1  18
ATOM     18  C   UNL     1       1.581   8.232  19.279  0.00  0.00    +0.000 A 
ATOM     19  C   UNL     1       1.361   8.447  17.897  0.00  0.00    +0.000 A 
ATOM     20  C   UNL     1       0.523   9.463  17.447  0.00  0.00    +0.000 A 
ATOM     21  C   UNL     1      -0.201  10.192  18.374  0.00  0.00    +0.000 A 
ATOM     22  C   UNL     1      -0.103   9.892  19.738  0.00  0.00    +0.000 A 
ATOM     23  C   UNL     1       0.771   8.901  20.246  0.00  0.00    +0.000 A 
BRANCH  23  24
ATOM     24  N   UNL     1       0.879   8.672  21.622  0.00  0.00    +0.000 N 
ATOM     25  C   UNL     1      -0.301   8.321  22.419  0.00  0.00    +0.000 C 
ATOM     26  C   UNL     1       1.987   9.214  22.414  0.00  0.00    +0.000 C 
ENDBRANCH  23  24
BRANCH  21  27
ATOM     27  N   UNL     1      -1.048  11.261  17.945  0.00  0.00    +0.000 N 
ATOM     28  H   UNL     1      -1.024  12.085  18.550  0.00  0.00    +0.000 HD
BRANCH  27  29
ATOM     29  S   UNL     1      -2.669  10.902  17.605  0.00  0.00    +0.000 S 
ATOM     30  C   UNL     1      -2.716  11.142  15.840  0.00  0.00    +0.000 C 
ATOM     31  O   UNL     1      -2.963   9.520  17.900  0.00  0.00    +0.000 OA
ATOM     32  O   UNL     1      -3.430  11.975  18.209  0.00  0.00    +0.000 OA
ENDBRANCH  27  29
ENDBRANCH  21  27
ENDBRANCH   1  18
TORSDOF 5
ENDMDL
MODEL 6
REMARK VINA RESULT:      -7.4      2.129      4.068
REMARK  Name = 
REMARK  9 active torsions:
REMARK  status: ('A' for Active; 'I' for Inactive)
REMARK    1  A    between atoms: C_1  and  C_2
REMARK    2  A    between atoms: C_7  and  N_8
REMARK    3  A    between atoms: N_8  and  C_9
REMARK    4  A    between atoms: C_12  and  N_13
REMARK    5  A    between atoms: N_13  and  S_14
REMARK    6  A    between atoms: S_14  and  C_15
REMARK    7  A    between atoms: C_19  and  N_20
REMARK    8  A    between atoms: N_20  and  C_21
REMARK    9  A    between atoms: N_20  and  C_22
REMARK                            x       y       z     vdW  Elec       q    Type
REMARK                         _______ _______ _______ _____ _____    ______ ____
ROOT
ATOM      1  N   UNL     1       2.832   7.257  19.847  0.00  0.00    +0.000 N 
ATOM      2  H   UNL     1       3.651   7.823  20.065  0.00  0.00    +0.000 HD
ENDROOT
BRANCH   1   9
ATOM      3  C   UNL     1       3.331   1.101  18.860  0.00  0.00    +0.000 C 
ATOM      4  C   UNL     1       2.669   2.369  19.331  0.00  0.00    +0.000 A 
ATOM      5  C   UNL     1       1.529   2.273  20.145  0.00  0.00    +0.000 A 
ATOM      6  C   UNL     1       0.856   3.418  20.529  0.00  0.00    +0.000 A 
ATOM      7  C   UNL     1       1.358   4.654  20.149  0.00  0.00    +0.000 A 
ATOM      8  C   UNL     1       2.580   4.788  19.444  0.00  0.00    +0.000 A 
ATOM      9  C   UNL     1       3.253   6.029  19.209  0.00  0.00    +0.000 A 
ATOM     10  C   UNL     1       4.346   6.068  18.300  0.00  0.00    +0.000 A 
ATOM     11  C   UNL     1       5.003   7.254  17.888  0.00  0.00    +0.000 A 
ATOM     12  C   UNL     1       6.068   7.214  16.988  0.00  0.00    +0.000 A 
ATOM     13  C   UNL     1       6.497   5.991  16.487  0.00  0.00    +0.000 A 
ATOM     14  C   UNL     1       5.874   4.820  16.910  0.00  0.00    +0.000 A 
ATOM     15  C   UNL     1       4.806   4.837  17.804  0.00  0.00    +0.000 A 
ATOM     16  N   UNL     1       4.274   3.663  18.155  0.00  0.00    +0.000 NA
ATOM     17  C   UNL     1       3.192   3.620  18.960  0.00  0.00    +0.000 A 
ENDBRANCH   1   9
BRANCH   1  18
ATOM     18  C   UNL     1       1.793   8.130  19.364  0.00  0.00    +0.000 A 
ATOM     19  C   UNL     1       1.691   8.337  17.967  0.00  0.00    +0.000 A 
ATOM     20  C   UNL     1       0.921   9.371  17.443  0.00  0.00    +0.000 A 
ATOM     21  C   UNL     1       0.145  10.129  18.302  0.00  0.00    +0.000 A 
ATOM     22  C   UNL     1       0.123   9.840  19.672  0.00  0.00    +0.000 A 
ATOM     23  C   UNL     1       0.926   8.830  20.257  0.00  0.00    +0.000 A 
BRANCH  23  24
ATOM     24  N   UNL     1       0.915   8.613  21.639  0.00  0.00    +0.000 N 
ATOM     25  C   UNL     1      -0.329   8.275  22.336  0.00  0.00    +0.000 C 
ATOM     26  C   UNL     1       1.956   9.155  22.518  0.00  0.00    +0.000 C 
ENDBRANCH  23  24
BRANCH  21  27
ATOM     27  N   UNL     1      -0.634  11.216  17.797  0.00  0.00    +0.000 N 
ATOM     28  H   UNL     1      -0.618  12.053  18.385  0.00  0.00    +0.000 HD
BRANCH  27  29
ATOM     29  S   UNL     1      -2.243  10.905  17.364  0.00  0.00    +0.000 S 
ATOM     30  C   UNL     1      -3.123  11.869  18.578  0.00  0.00    +0.000 C 
ATOM     31  O   UNL     1      -2.532  11.427  16.050  0.00  0.00    +0.000 OA
ATOM     32  O   UNL     1      -2.458   9.509  17.679  0.00  0.00    +0.000 OA
ENDBRANCH  27  29
ENDBRANCH  21  27
ENDBRANCH   1  18
TORSDOF 5
ENDMDL
MODEL 7
REMARK VINA RESULT:      -7.3      4.281      8.722
REMARK  Name = 
REMARK  9 active torsions:
REMARK  status: ('A' for Active; 'I' for Inactive)
REMARK    1  A    between atoms: C_1  and  C_2
REMARK    2  A    between atoms: C_7  and  N_8
REMARK    3  A    between atoms: N_8  and  C_9
REMARK    4  A    between atoms: C_12  and  N_13
REMARK    5  A    between atoms: N_13  and  S_14
REMARK    6  A    between atoms: S_14  and  C_15
REMARK    7  A    between atoms: C_19  and  N_20
REMARK    8  A    between atoms: N_20  and  C_21
REMARK    9  A    between atoms: N_20  and  C_22
REMARK                            x       y       z     vdW  Elec       q    Type
REMARK                         _______ _______ _______ _____ _____    ______ ____
ROOT
ATOM      1  N   UNL     1      -1.220  11.546  19.985  0.00  0.00    +0.000 N 
ATOM      2  H   UNL     1      -1.091  10.536  19.965  0.00  0.00    +0.000 HD
ENDROOT
BRANCH   1   9
ATOM      3  C   UNL     1      -7.202  13.364  20.167  0.00  0.00    +0.000 C 
ATOM      4  C   UNL     1      -5.767  13.309  20.621  0.00  0.00    +0.000 A 
ATOM      5  C   UNL     1      -5.434  13.851  21.872  0.00  0.00    +0.000 A 
ATOM      6  C   UNL     1      -4.114  13.883  22.281  0.00  0.00    +0.000 A 
ATOM      7  C   UNL     1      -3.142  13.322  21.466  0.00  0.00    +0.000 A 
ATOM      8  C   UNL     1      -3.463  12.648  20.263  0.00  0.00    +0.000 A 
ATOM      9  C   UNL     1      -2.540  11.872  19.492  0.00  0.00    +0.000 A 
ATOM     10  C   UNL     1      -2.915  11.432  18.192  0.00  0.00    +0.000 A 
ATOM     11  C   UNL     1      -2.044  10.774  17.288  0.00  0.00    +0.000 A 
ATOM     12  C   UNL     1      -2.482  10.376  16.024  0.00  0.00    +0.000 A 
ATOM     13  C   UNL     1      -3.795  10.623  15.645  0.00  0.00    +0.000 A 
ATOM     14  C   UNL     1      -4.663  11.242  16.539  0.00  0.00    +0.000 A 
ATOM     15  C   UNL     1      -4.246  11.654  17.803  0.00  0.00    +0.000 A 
ATOM     16  N   UNL     1      -5.151  12.237  18.594  0.00  0.00    +0.000 NA
ATOM     17  C   UNL     1      -4.788  12.721  19.800  0.00  0.00    +0.000 A 
ENDBRANCH   1   9
BRANCH   1  18
ATOM     18  C   UNL     1       0.005  12.169  19.552  0.00  0.00    +0.000 A 
ATOM     19  C   UNL     1       0.080  13.583  19.577  0.00  0.00    +0.000 A 
ATOM     20  C   UNL     1       1.095  14.266  18.914  0.00  0.00    +0.000 A 
ATOM     21  C   UNL     1       2.115  13.540  18.324  0.00  0.00    +0.000 A 
ATOM     22  C   UNL     1       2.130  12.143  18.417  0.00  0.00    +0.000 A 
ATOM     23  C   UNL     1       1.096  11.402  19.040  0.00  0.00    +0.000 A 
BRANCH  23  24
ATOM     24  N   UNL     1       1.123  10.004  19.060  0.00  0.00    +0.000 N 
ATOM     25  C   UNL     1       1.165   9.273  20.330  0.00  0.00    +0.000 C 
ATOM     26  C   UNL     1       1.585   9.220  17.911  0.00  0.00    +0.000 C 
ENDBRANCH  23  24
BRANCH  21  27
ATOM     27  N   UNL     1       3.156  14.211  17.610  0.00  0.00    +0.000 N 
ATOM     28  H   UNL     1       3.698  13.606  16.989  0.00  0.00    +0.000 HD
BRANCH  27  29
ATOM     29  S   UNL     1       4.242  15.163  18.499  0.00  0.00    +0.000 S 
ATOM     30  C   UNL     1       5.802  14.647  17.808  0.00  0.00    +0.000 C 
ATOM     31  O   UNL     1       4.044  16.565  18.222  0.00  0.00    +0.000 OA
ATOM     32  O   UNL     1       4.176  14.650  19.852  0.00  0.00    +0.000 OA
ENDBRANCH  27  29
ENDBRANCH  21  27
ENDBRANCH   1  18
TORSDOF 5
ENDMDL
MODEL 8
REMARK VINA RESULT:      -7.2      4.358      8.629
REMARK  Name = 
REMARK  9 active torsions:
REMARK  status: ('A' for Active; 'I' for Inactive)
REMARK    1  A    between atoms: C_1  and  C_2
REMARK    2  A    between atoms: C_7  and  N_8
REMARK    3  A    between atoms: N_8  and  C_9
REMARK    4  A    between atoms: C_12  and  N_13
REMARK    5  A    between atoms: N_13  and  S_14
REMARK    6  A    between atoms: S_14  and  C_15
REMARK    7  A    between atoms: C_19  and  N_20
REMARK    8  A    between atoms: N_20  and  C_21
REMARK    9  A    between atoms: N_20  and  C_22
REMARK                            x       y       z     vdW  Elec       q    Type
REMARK                         _______ _______ _______ _____ _____    ______ ____
ROOT
ATOM      1  N   UNL     1      -1.103  11.485  19.911  0.00  0.00    +0.000 N 
ATOM      2  H   UNL     1      -0.967  10.480  19.818  0.00  0.00    +0.000 HD
ENDROOT
BRANCH   1   9
ATOM      3  C   UNL     1      -7.054  13.359  20.359  0.00  0.00    +0.000 C 
ATOM      4  C   UNL     1      -5.602  13.282  20.754  0.00  0.00    +0.000 A 
ATOM      5  C   UNL     1      -5.214  13.800  22.000  0.00  0.00    +0.000 A 
ATOM      6  C   UNL     1      -3.879  13.813  22.357  0.00  0.00    +0.000 A 
ATOM      7  C   UNL     1      -2.945  13.256  21.496  0.00  0.00    +0.000 A 
ATOM      8  C   UNL     1      -3.322  12.604  20.295  0.00  0.00    +0.000 A 
ATOM      9  C   UNL     1      -2.438  11.832  19.476  0.00  0.00    +0.000 A 
ATOM     10  C   UNL     1      -2.868  11.418  18.185  0.00  0.00    +0.000 A 
ATOM     11  C   UNL     1      -2.041  10.766  17.236  0.00  0.00    +0.000 A 
ATOM     12  C   UNL     1      -2.532  10.393  15.985  0.00  0.00    +0.000 A 
ATOM     13  C   UNL     1      -3.857  10.660  15.662  0.00  0.00    +0.000 A 
ATOM     14  C   UNL     1      -4.682  11.273  16.600  0.00  0.00    +0.000 A 
ATOM     15  C   UNL     1      -4.211  11.659  17.852  0.00  0.00    +0.000 A 
ATOM     16  N   UNL     1      -5.078  12.238  18.688  0.00  0.00    +0.000 NA
ATOM     17  C   UNL     1      -4.663  12.699  19.887  0.00  0.00    +0.000 A 
ENDBRANCH   1   9
BRANCH   1  18
ATOM     18  C   UNL     1       0.105  12.148  19.490  0.00  0.00    +0.000 A 
ATOM     19  C   UNL     1       0.121  13.564  19.477  0.00  0.00    +0.000 A 
ATOM     20  C   UNL     1       1.123  14.271  18.820  0.00  0.00    +0.000 A 
ATOM     21  C   UNL     1       2.188  13.574  18.277  0.00  0.00    +0.000 A 
ATOM     22  C   UNL     1       2.259  12.181  18.410  0.00  0.00    +0.000 A 
ATOM     23  C   UNL     1       1.241  11.415  19.028  0.00  0.00    +0.000 A 
BRANCH  23  24
ATOM     24  N   UNL     1       1.326  10.020  19.089  0.00  0.00    +0.000 N 
ATOM     25  C   UNL     1       1.264   9.211  17.868  0.00  0.00    +0.000 C 
ATOM     26  C   UNL     1       1.001   9.276  20.309  0.00  0.00    +0.000 C 
ENDBRANCH  23  24
BRANCH  21  27
ATOM     27  N   UNL     1       3.217  14.269  17.570  0.00  0.00    +0.000 N 
ATOM     28  H   UNL     1       3.630  13.739  16.799  0.00  0.00    +0.000 HD
BRANCH  27  29
ATOM     29  S   UNL     1       4.477  14.954  18.475  0.00  0.00    +0.000 S 
ATOM     30  C   UNL     1       4.113  16.691  18.317  0.00  0.00    +0.000 C 
ATOM     31  O   UNL     1       4.377  14.576  19.864  0.00  0.00    +0.000 OA
ATOM     32  O   UNL     1       5.678  14.691  17.711  0.00  0.00    +0.000 OA
ENDBRANCH  27  29
ENDBRANCH  21  27
ENDBRANCH   1  18
TORSDOF 5
ENDMDL
MODEL 9
REMARK VINA RESULT:      -7.2      4.035      7.958
REMARK  Name = 
REMARK  9 active torsions:
REMARK  status: ('A' for Active; 'I' for Inactive)
REMARK    1  A    between atoms: C_1  and  C_2
REMARK    2  A    between atoms: C_7  and  N_8
REMARK    3  A    between atoms: N_8  and  C_9
REMARK    4  A    between atoms: C_12  and  N_13
REMARK    5  A    between atoms: N_13  and  S_14
REMARK    6  A    between atoms: S_14  and  C_15
REMARK    7  A    between atoms: C_19  and  N_20
REMARK    8  A    between atoms: N_20  and  C_21
REMARK    9  A    between atoms: N_20  and  C_22
REMARK                            x       y       z     vdW  Elec       q    Type
REMARK                         _______ _______ _______ _____ _____    ______ ____
ROOT
ATOM      1  N   UNL     1       0.930  10.872  19.200  0.00  0.00    +0.000 N 
ATOM      2  H   UNL     1       1.411  11.452  19.886  0.00  0.00    +0.000 HD
ENDROOT
BRANCH   1   9
ATOM      3  C   UNL     1      -5.038  11.233  17.362  0.00  0.00    +0.000 C 
ATOM      4  C   UNL     1      -3.617  10.731  17.334  0.00  0.00    +0.000 A 
ATOM      5  C   UNL     1      -3.197   9.959  16.240  0.00  0.00    +0.000 A 
ATOM      6  C   UNL     1      -1.924   9.421  16.223  0.00  0.00    +0.000 A 
ATOM      7  C   UNL     1      -1.058   9.705  17.270  0.00  0.00    +0.000 A 
ATOM      8  C   UNL     1      -1.408  10.592  18.319  0.00  0.00    +0.000 A 
ATOM      9  C   UNL     1      -0.496  11.088  19.304  0.00  0.00    +0.000 A 
ATOM     10  C   UNL     1      -1.004  11.786  20.434  0.00  0.00    +0.000 A 
ATOM     11  C   UNL     1      -0.217  12.206  21.535  0.00  0.00    +0.000 A 
ATOM     12  C   UNL     1      -0.788  12.884  22.614  0.00  0.00    +0.000 A 
ATOM     13  C   UNL     1      -2.150  13.155  22.609  0.00  0.00    +0.000 A 
ATOM     14  C   UNL     1      -2.923  12.770  21.517  0.00  0.00    +0.000 A 
ATOM     15  C   UNL     1      -2.376  12.089  20.433  0.00  0.00    +0.000 A 
ATOM     16  N   UNL     1      -3.195  11.763  19.429  0.00  0.00    +0.000 NA
ATOM     17  C   UNL     1      -2.738  11.039  18.386  0.00  0.00    +0.000 A 
ENDBRANCH   1   9
BRANCH   1  18
ATOM     18  C   UNL     1       1.574   9.584  19.162  0.00  0.00    +0.000 A 
ATOM     19  C   UNL     1       2.299   9.233  17.998  0.00  0.00    +0.000 A 
ATOM     20  C   UNL     1       2.698   7.922  17.761  0.00  0.00    +0.000 A 
ATOM     21  C   UNL     1       2.487   6.971  18.744  0.00  0.00    +0.000 A 
ATOM     22  C   UNL     1       1.901   7.335  19.962  0.00  0.00    +0.000 A 
ATOM     23  C   UNL     1       1.436   8.645  20.230  0.00  0.00    +0.000 A 
BRANCH  23  24
ATOM     24  N   UNL     1       0.805   8.952  21.441  0.00  0.00    +0.000 N 
ATOM     25  C   UNL     1       1.587   9.361  22.612  0.00  0.00    +0.000 C 
ATOM     26  C   UNL     1      -0.532   8.448  21.769  0.00  0.00    +0.000 C 
ENDBRANCH  23  24
BRANCH  21  27
ATOM     27  N   UNL     1       2.859   5.609  18.519  0.00  0.00    +0.000 N 
ATOM     28  H   UNL     1       3.476   5.468  17.715  0.00  0.00    +0.000 HD
BRANCH  27  29
ATOM     29  S   UNL     1       1.622   4.451  18.444  0.00  0.00    +0.000 S 
ATOM     30  C   UNL     1       2.557   2.964  18.142  0.00  0.00    +0.000 C 
ATOM     31  O   UNL     1       0.950   4.334  19.716  0.00  0.00    +0.000 OA
ATOM     32  O   UNL     1       0.889   4.757  17.234  0.00  0.00    +0.000 OA
ENDBRANCH  27  29
ENDBRANCH  21  27
ENDBRANCH   1  18
TORSDOF 5
ENDMDL
