MODEL 1
REMARK VINA RESULT:      -8.0      0.000      0.000
REMARK  Name = 
REMARK  11 active torsions:
REMARK  status: ('A' for Active; 'I' for Inactive)
REMARK    1  A    between atoms: C_1  and  C_2
REMARK    2  A    between atoms: C_3  and  C_4
REMARK    3  A    between atoms: C_5  and  C_6
REMARK    4  A    between atoms: N_8  and  C_9
REMARK    5  A    between atoms: C_13  and  C_14
REMARK    6  A    between atoms: C_20  and  C_21
REMARK    7  A    between atoms: C_25  and  C_27
REMARK    8  A    between atoms: C_27  and  C_28
REMARK    9  A    between atoms: C_28  and  C_29
REMARK   10  A    between atoms: C_29  and  C_30
REMARK   11  A    between atoms: C_30  and  C_31
REMARK                            x       y       z     vdW  Elec       q    Type
REMARK                         _______ _______ _______ _____ _____    ______ ____
ROOT
ATOM      1  C   UNL     1       2.268   8.387  18.441  0.00  0.00    +0.000 C 
ATOM      2  N   UNL     1       1.719   8.189  19.599  0.00  0.00    +0.000 NA
ATOM      3  O   UNL     1       0.980   9.348  19.924  0.00  0.00    +0.000 OA
ATOM      4  C   UNL     1       0.841  10.138  18.731  0.00  0.00    +0.000 C 
ATOM      5  C   UNL     1       1.996   9.727  17.847  0.00  0.00    +0.000 C 
ATOM      6  C   UNL     1       0.835  11.610  19.125  0.00  0.00    +0.000 C 
ATOM      7  C   UNL     1      -0.633  11.880  19.488  0.00  0.00    +0.000 C 
ATOM      8  N   UNL     1      -1.366  11.029  18.550  0.00  0.00    +0.000 N 
ATOM      9  C   UNL     1      -2.730  10.956  18.348  0.00  0.00    +0.000 C 
ATOM     10  O   UNL     1      -3.211  10.104  17.599  0.00  0.00    +0.000 OA
ATOM     11  C   UNL     1      -0.540   9.910  18.112  0.00  0.00    +0.000 C 
ENDROOT
BRANCH   1  16
ATOM     12  C   UNL     1       3.733   5.074  17.441  0.00  0.00    +0.000 A 
ATOM     13  C   UNL     1       4.903   5.466  16.784  0.00  0.00    +0.000 A 
ATOM     14  C   UNL     1       5.194   6.817  16.613  0.00  0.00    +0.000 A 
ATOM     15  C   UNL     1       4.333   7.785  17.134  0.00  0.00    +0.000 A 
ATOM     16  C   UNL     1       3.157   7.398  17.787  0.00  0.00    +0.000 A 
ATOM     17  C   UNL     1       2.835   6.038  17.898  0.00  0.00    +0.000 A 
BRANCH  12  20
ATOM     18  C   UNL     1       4.101   3.019  18.685  0.00  0.00    +0.000 C 
ATOM     19  O   UNL     1       4.914   3.484  19.476  0.00  0.00    +0.000 OA
ATOM     20  N   UNL     1       3.450   3.719  17.692  0.00  0.00    +0.000 N 
ATOM     21  H   UNL     1       2.585   3.342  17.330  0.00  0.00    +0.000 HD
BRANCH  18  23
ATOM     22  C   UNL     1       2.383   1.265  18.989  0.00  0.00    +0.000 C 
ATOM     23  C   UNL     1       3.664   1.605  18.777  0.00  0.00    +0.000 C 
BRANCH  22  26
ATOM     24  C   UNL     1       1.785   2.724  21.640  0.00  0.00    +0.000 C 
ATOM     25  C   UNL     1       1.025   2.827  20.364  0.00  0.00    +0.000 C 
ATOM     26  C   UNL     1       1.291   2.186  19.218  0.00  0.00    +0.000 C 
ENDBRANCH  22  26
ENDBRANCH  18  23
ENDBRANCH  12  20
ENDBRANCH   1  16
BRANCH   7  27
ATOM     27  C   UNL     1      -0.889  13.385  19.337  0.00  0.00    +0.000 C 
ATOM     28  N   UNL     1      -0.682  13.889  18.082  0.00  0.00    +0.000 N 
ATOM     29  O   UNL     1      -1.256  14.119  20.250  0.00  0.00    +0.000 OA
ATOM     30  H   UNL     1      -0.757  14.895  17.978  0.00  0.00    +0.000 HD
ATOM     31  H   UNL     1      -0.188  13.381  17.361  0.00  0.00    +0.000 HD
ENDBRANCH   7  27
BRANCH   9  32
ATOM     32  C   UNL     1      -3.607  11.989  19.036  0.00  0.00    +0.000 C 
BRANCH  32  33
ATOM     33  C   UNL     1      -4.988  12.111  18.388  0.00  0.00    +0.000 C 
BRANCH  33  34
ATOM     34  C   UNL     1      -6.086  12.293  19.440  0.00  0.00    +0.000 C 
BRANCH  34  35
ATOM     35  C   UNL     1      -7.156  11.210  19.338  0.00  0.00    +0.000 C 
ATOM     36  C   UNL     1      -7.591  10.748  20.721  0.00  0.00    +0.000 C 
ENDBRANCH  34  35
ENDBRANCH  33  34
ENDBRANCH  32  33
ENDBRANCH   9  32
TORSDOF 9
ENDMDL
MODEL 2
REMARK VINA RESULT:      -7.8      2.586      4.158
REMARK  Name = 
REMARK  11 active torsions:
REMARK  status: ('A' for Active; 'I' for Inactive)
REMARK    1  A    between atoms: C_1  and  C_2
REMARK    2  A    between atoms: C_3  and  C_4
REMARK    3  A    between atoms: C_5  and  C_6
REMARK    4  A    between atoms: N_8  and  C_9
REMARK    5  A    between atoms: C_13  and  C_14
REMARK    6  A    between atoms: C_20  and  C_21
REMARK    7  A    between atoms: C_25  and  C_27
REMARK    8  A    between atoms: C_27  and  C_28
REMARK    9  A    between atoms: C_28  and  C_29
REMARK   10  A    between atoms: C_29  and  C_30
REMARK   11  A    between atoms: C_30  and  C_31
REMARK                            x       y       z     vdW  Elec       q    Type
REMARK                         _______ _______ _______ _____ _____    ______ ____
ROOT
ATOM      1  C   UNL     1       2.851   7.094  18.443  0.00  0.00    +0.000 C 
ATOM      2  N   UNL     1       2.145   7.046  19.530  0.00  0.00    +0.000 NA
ATOM      3  O   UNL     1       1.585   8.328  19.731  0.00  0.00    +0.000 OA
ATOM      4  C   UNL     1       1.724   9.072  18.509  0.00  0.00    +0.000 C 
ATOM      5  C   UNL     1       2.885   8.430  17.784  0.00  0.00    +0.000 C 
ATOM      6  C   UNL     1       1.926  10.541  18.858  0.00  0.00    +0.000 C 
ATOM      7  C   UNL     1       0.495  11.071  19.031  0.00  0.00    +0.000 C 
ATOM      8  N   UNL     1      -0.260  10.312  18.034  0.00  0.00    +0.000 N 
ATOM      9  C   UNL     1      -1.583  10.460  17.668  0.00  0.00    +0.000 C 
ATOM     10  O   UNL     1      -2.114   9.666  16.889  0.00  0.00    +0.000 OA
ATOM     11  C   UNL     1       0.405   9.050  17.731  0.00  0.00    +0.000 C 
ENDROOT
BRANCH   1  16
ATOM     12  C   UNL     1       4.955   4.993  16.145  0.00  0.00    +0.000 A 
ATOM     13  C   UNL     1       4.917   3.749  16.781  0.00  0.00    +0.000 A 
ATOM     14  C   UNL     1       4.249   3.600  17.994  0.00  0.00    +0.000 A 
ATOM     15  C   UNL     1       3.584   4.689  18.560  0.00  0.00    +0.000 A 
ATOM     16  C   UNL     1       3.625   5.939  17.931  0.00  0.00    +0.000 A 
ATOM     17  C   UNL     1       4.353   6.099  16.743  0.00  0.00    +0.000 A 
BRANCH  12  20
ATOM     18  C   UNL     1       6.903   4.923  14.694  0.00  0.00    +0.000 C 
ATOM     19  O   UNL     1       7.685   4.503  15.540  0.00  0.00    +0.000 OA
ATOM     20  N   UNL     1       5.558   5.155  14.884  0.00  0.00    +0.000 N 
ATOM     21  H   UNL     1       4.957   5.175  14.071  0.00  0.00    +0.000 HD
BRANCH  18  23
ATOM     22  C   UNL     1       7.042   4.314  12.301  0.00  0.00    +0.000 C 
ATOM     23  C   UNL     1       7.339   5.162  13.297  0.00  0.00    +0.000 C 
BRANCH  22  26
ATOM     24  C   UNL     1       4.254   3.671  11.149  0.00  0.00    +0.000 C 
ATOM     25  C   UNL     1       5.130   2.767  11.943  0.00  0.00    +0.000 C 
ATOM     26  C   UNL     1       6.340   3.056  12.442  0.00  0.00    +0.000 C 
ENDBRANCH  22  26
ENDBRANCH  18  23
ENDBRANCH  12  20
ENDBRANCH   1  16
BRANCH   7  27
ATOM     27  C   UNL     1       0.522  12.589  18.808  0.00  0.00    +0.000 C 
ATOM     28  N   UNL     1       1.242  13.007  17.723  0.00  0.00    +0.000 N 
ATOM     29  O   UNL     1      -0.050  13.404  19.527  0.00  0.00    +0.000 OA
ATOM     30  H   UNL     1       1.350  14.008  17.608  0.00  0.00    +0.000 HD
ATOM     31  H   UNL     1       1.892  12.407  17.232  0.00  0.00    +0.000 HD
ENDBRANCH   7  27
BRANCH   9  32
ATOM     32  C   UNL     1      -2.343  11.657  18.215  0.00  0.00    +0.000 C 
BRANCH  32  33
ATOM     33  C   UNL     1      -3.830  11.363  18.423  0.00  0.00    +0.000 C 
BRANCH  33  34
ATOM     34  C   UNL     1      -4.648  11.702  17.173  0.00  0.00    +0.000 C 
BRANCH  34  35
ATOM     35  C   UNL     1      -5.886  12.528  17.511  0.00  0.00    +0.000 C 
ATOM     36  C   UNL     1      -6.981  11.648  18.094  0.00  0.00    +0.000 C 
ENDBRANCH  34  35
ENDBRANCH  33  34
ENDBRANCH  32  33
ENDBRANCH   9  32
TORSDOF 9
ENDMDL
MODEL 3
REMARK VINA RESULT:      -7.6      2.311      3.855
REMARK  Name = 
REMARK  11 active torsions:
REMARK  status: ('A' for Active; 'I' for Inactive)
REMARK    1  A    between atoms: C_1  and  C_2
REMARK    2  A    between atoms: C_3  and  C_4
REMARK    3  A    between atoms: C_5  and  C_6
REMARK    4  A    between atoms: N_8  and  C_9
REMARK    5  A    between atoms: C_13  and  C_14
REMARK    6  A    between atoms: C_20  and  C_21
REMARK    7  A    between atoms: C_25  and  C_27
REMARK    8  A    between atoms: C_27  and  C_28
REMARK    9  A    between atoms: C_28  and  C_29
REMARK   10  A    between atoms: C_29  and  C_30
REMARK   11  A    between atoms: C_30  and  C_31
REMARK                            x       y       z     vdW  Elec       q    Type
REMARK                         _______ _______ _______ _____ _____    ______ ____
ROOT
ATOM      1  C   UNL     1       2.489   7.614  18.742  0.00  0.00    +0.000 C 
ATOM      2  N   UNL     1       1.970   7.698  19.927  0.00  0.00    +0.000 NA
ATOM      3  O   UNL     1       1.332   8.955  20.025  0.00  0.00    +0.000 OA
ATOM      4  C   UNL     1       1.207   9.496  18.699  0.00  0.00    +0.000 C 
ATOM      5  C   UNL     1       2.295   8.824  17.892  0.00  0.00    +0.000 C 
ATOM      6  C   UNL     1       1.324  11.013  18.783  0.00  0.00    +0.000 C 
ATOM      7  C   UNL     1      -0.105  11.467  19.116  0.00  0.00    +0.000 C 
ATOM      8  N   UNL     1      -0.934  10.506  18.387  0.00  0.00    +0.000 N 
ATOM      9  C   UNL     1      -2.306  10.502  18.233  0.00  0.00    +0.000 C 
ATOM     10  O   UNL     1      -2.876   9.558  17.684  0.00  0.00    +0.000 OA
ATOM     11  C   UNL     1      -0.210   9.258  18.169  0.00  0.00    +0.000 C 
ENDROOT
BRANCH   1  16
ATOM     12  C   UNL     1       4.689   5.463  16.583  0.00  0.00    +0.000 A 
ATOM     13  C   UNL     1       4.605   4.228  17.232  0.00  0.00    +0.000 A 
ATOM     14  C   UNL     1       3.874   4.102  18.411  0.00  0.00    +0.000 A 
ATOM     15  C   UNL     1       3.191   5.205  18.927  0.00  0.00    +0.000 A 
ATOM     16  C   UNL     1       3.277   6.446  18.285  0.00  0.00    +0.000 A 
ATOM     17  C   UNL     1       4.068   6.583  17.135  0.00  0.00    +0.000 A 
BRANCH  12  20
ATOM     18  C   UNL     1       6.631   5.110  15.166  0.00  0.00    +0.000 C 
ATOM     19  O   UNL     1       7.277   4.461  15.983  0.00  0.00    +0.000 OA
ATOM     20  N   UNL     1       5.358   5.603  15.354  0.00  0.00    +0.000 N 
ATOM     21  H   UNL     1       4.805   5.821  14.536  0.00  0.00    +0.000 HD
BRANCH  18  23
ATOM     22  C   UNL     1       6.936   4.535  12.780  0.00  0.00    +0.000 C 
ATOM     23  C   UNL     1       7.158   5.371  13.806  0.00  0.00    +0.000 C 
BRANCH  22  26
ATOM     24  C   UNL     1       4.403   3.784  11.189  0.00  0.00    +0.000 C 
ATOM     25  C   UNL     1       5.136   2.935  12.167  0.00  0.00    +0.000 C 
ATOM     26  C   UNL     1       6.235   3.271  12.856  0.00  0.00    +0.000 C 
ENDBRANCH  22  26
ENDBRANCH  18  23
ENDBRANCH  12  20
ENDBRANCH   1  16
BRANCH   7  27
ATOM     27  C   UNL     1      -0.255  12.926  18.665  0.00  0.00    +0.000 C 
ATOM     28  N   UNL     1      -0.589  13.100  17.350  0.00  0.00    +0.000 N 
ATOM     29  O   UNL     1      -0.098  13.897  19.401  0.00  0.00    +0.000 OA
ATOM     30  H   UNL     1      -0.604  14.054  17.007  0.00  0.00    +0.000 HD
ATOM     31  H   UNL     1      -0.525  12.358  16.664  0.00  0.00    +0.000 HD
ENDBRANCH   7  27
BRANCH   9  32
ATOM     32  C   UNL     1      -3.078  11.719  18.714  0.00  0.00    +0.000 C 
BRANCH  32  33
ATOM     33  C   UNL     1      -4.538  11.707  18.256  0.00  0.00    +0.000 C 
BRANCH  33  34
ATOM     34  C   UNL     1      -5.449  12.410  19.267  0.00  0.00    +0.000 C 
BRANCH  34  35
ATOM     35  C   UNL     1      -6.495  11.462  19.845  0.00  0.00    +0.000 C 
ATOM     36  C   UNL     1      -6.690  10.254  18.940  0.00  0.00    +0.000 C 
ENDBRANCH  34  35
ENDBRANCH  33  34
ENDBRANCH  32  33
ENDBRANCH   9  32
TORSDOF 9
ENDMDL
MODEL 4
REMARK VINA RESULT:      -7.6      2.715      4.317
REMARK  Name = 
REMARK  11 active torsions:
REMARK  status: ('A' for Active; 'I' for Inactive)
REMARK    1  A    between atoms: C_1  and  C_2
REMARK    2  A    between atoms: C_3  and  C_4
REMARK    3  A    between atoms: C_5  and  C_6
REMARK    4  A    between atoms: N_8  and  C_9
REMARK    5  A    between atoms: C_13  and  C_14
REMARK    6  A    between atoms: C_20  and  C_21
REMARK    7  A    between atoms: C_25  and  C_27
REMARK    8  A    between atoms: C_27  and  C_28
REMARK    9  A    between atoms: C_28  and  C_29
REMARK   10  A    between atoms: C_29  and  C_30
REMARK   11  A    between atoms: C_30  and  C_31
REMARK                            x       y       z     vdW  Elec       q    Type
REMARK                         _______ _______ _______ _____ _____    ______ ____
ROOT
ATOM      1  C   UNL     1       2.283   7.046  18.764  0.00  0.00    +0.000 C 
ATOM      2  N   UNL     1       1.963   7.259  20.003  0.00  0.00    +0.000 NA
ATOM      3  O   UNL     1       1.745   8.647  20.154  0.00  0.00    +0.000 OA
ATOM      4  C   UNL     1       1.625   9.225  18.843  0.00  0.00    +0.000 C 
ATOM      5  C   UNL     1       2.355   8.274  17.922  0.00  0.00    +0.000 C 
ATOM      6  C   UNL     1       2.198  10.636  18.883  0.00  0.00    +0.000 C 
ATOM      7  C   UNL     1       1.021  11.489  19.380  0.00  0.00    +0.000 C 
ATOM      8  N   UNL     1      -0.139  10.832  18.777  0.00  0.00    +0.000 N 
ATOM      9  C   UNL     1      -1.458  11.241  18.793  0.00  0.00    +0.000 C 
ATOM     10  O   UNL     1      -2.347  10.519  18.337  0.00  0.00    +0.000 OA
ATOM     11  C   UNL     1       0.148   9.430  18.496  0.00  0.00    +0.000 C 
ENDROOT
BRANCH   1  16
ATOM     12  C   UNL     1       4.137   4.338  16.933  0.00  0.00    +0.000 A 
ATOM     13  C   UNL     1       3.239   3.271  17.016  0.00  0.00    +0.000 A 
ATOM     14  C   UNL     1       2.044   3.411  17.718  0.00  0.00    +0.000 A 
ATOM     15  C   UNL     1       1.726   4.635  18.311  0.00  0.00    +0.000 A 
ATOM     16  C   UNL     1       2.625   5.704  18.237  0.00  0.00    +0.000 A 
ATOM     17  C   UNL     1       3.856   5.538  17.585  0.00  0.00    +0.000 A 
BRANCH  12  20
ATOM     18  C   UNL     1       5.693   5.255  15.306  0.00  0.00    +0.000 C 
ATOM     19  O   UNL     1       5.114   6.326  15.155  0.00  0.00    +0.000 OA
ATOM     20  N   UNL     1       5.315   4.249  16.169  0.00  0.00    +0.000 N 
ATOM     21  H   UNL     1       6.016   3.579  16.457  0.00  0.00    +0.000 HD
BRANCH  18  23
ATOM     22  C   UNL     1       6.985   4.257  13.448  0.00  0.00    +0.000 C 
ATOM     23  C   UNL     1       6.957   4.959  14.591  0.00  0.00    +0.000 C 
BRANCH  22  26
ATOM     24  C   UNL     1       7.099   2.091  11.255  0.00  0.00    +0.000 C 
ATOM     25  C   UNL     1       5.881   2.706  11.851  0.00  0.00    +0.000 C 
ATOM     26  C   UNL     1       5.841   3.649  12.802  0.00  0.00    +0.000 C 
ENDBRANCH  22  26
ENDBRANCH  18  23
ENDBRANCH  12  20
ENDBRANCH   1  16
BRANCH   7  27
ATOM     27  C   UNL     1       1.259  12.935  18.923  0.00  0.00    +0.000 C 
ATOM     28  N   UNL     1       1.499  13.093  17.585  0.00  0.00    +0.000 N 
ATOM     29  O   UNL     1       1.240  13.908  19.671  0.00  0.00    +0.000 OA
ATOM     30  H   UNL     1       1.748  14.025  17.275  0.00  0.00    +0.000 HD
ATOM     31  H   UNL     1       1.730  12.320  16.974  0.00  0.00    +0.000 HD
ENDBRANCH   7  27
BRANCH   9  32
ATOM     32  C   UNL     1      -1.767  12.623  19.342  0.00  0.00    +0.000 C 
BRANCH  32  33
ATOM     33  C   UNL     1      -3.181  12.723  19.918  0.00  0.00    +0.000 C 
BRANCH  33  34
ATOM     34  C   UNL     1      -3.189  13.466  21.257  0.00  0.00    +0.000 C 
BRANCH  34  35
ATOM     35  C   UNL     1      -3.940  12.690  22.334  0.00  0.00    +0.000 C 
ATOM     36  C   UNL     1      -2.993  12.240  23.437  0.00  0.00    +0.000 C 
ENDBRANCH  34  35
ENDBRANCH  33  34
ENDBRANCH  32  33
ENDBRANCH   9  32
TORSDOF 9
ENDMDL
MODEL 5
REMARK VINA RESULT:      -7.5      0.846      1.124
REMARK  Name = 
REMARK  11 active torsions:
REMARK  status: ('A' for Active; 'I' for Inactive)
REMARK    1  A    between atoms: C_1  and  C_2
REMARK    2  A    between atoms: C_3  and  C_4
REMARK    3  A    between atoms: C_5  and  C_6
REMARK    4  A    between atoms: N_8  and  C_9
REMARK    5  A    between atoms: C_13  and  C_14
REMARK    6  A    between atoms: C_20  and  C_21
REMARK    7  A    between atoms: C_25  and  C_27
REMARK    8  A    between atoms: C_27  and  C_28
REMARK    9  A    between atoms: C_28  and  C_29
REMARK   10  A    between atoms: C_29  and  C_30
REMARK   11  A    between atoms: C_30  and  C_31
REMARK                            x       y       z     vdW  Elec       q    Type
REMARK                         _______ _______ _______ _____ _____    ______ ____
ROOT
ATOM      1  C   UNL     1       2.196   8.467  18.503  0.00  0.00    +0.000 C 
ATOM      2  N   UNL     1       1.681   8.319  19.684  0.00  0.00    +0.000 NA
ATOM      3  O   UNL     1       0.972   9.502  19.990  0.00  0.00    +0.000 OA
ATOM      4  C   UNL     1       0.809  10.252  18.775  0.00  0.00    +0.000 C 
ATOM      5  C   UNL     1       1.928   9.789  17.870  0.00  0.00    +0.000 C 
ATOM      6  C   UNL     1       0.839  11.737  19.115  0.00  0.00    +0.000 C 
ATOM      7  C   UNL     1      -0.612  12.045  19.513  0.00  0.00    +0.000 C 
ATOM      8  N   UNL     1      -1.388  11.175  18.630  0.00  0.00    +0.000 N 
ATOM      9  C   UNL     1      -2.759  11.119  18.472  0.00  0.00    +0.000 C 
ATOM     10  O   UNL     1      -3.278  10.250  17.770  0.00  0.00    +0.000 OA
ATOM     11  C   UNL     1      -0.595  10.026  18.207  0.00  0.00    +0.000 C 
ENDROOT
BRANCH   1  16
ATOM     12  C   UNL     1       3.840   5.153  17.836  0.00  0.00    +0.000 A 
ATOM     13  C   UNL     1       4.778   5.492  16.857  0.00  0.00    +0.000 A 
ATOM     14  C   UNL     1       4.844   6.795  16.368  0.00  0.00    +0.000 A 
ATOM     15  C   UNL     1       3.994   7.775  16.883  0.00  0.00    +0.000 A 
ATOM     16  C   UNL     1       3.048   7.439  17.858  0.00  0.00    +0.000 A 
ATOM     17  C   UNL     1       2.941   6.113  18.300  0.00  0.00    +0.000 A 
BRANCH  12  20
ATOM     18  C   UNL     1       4.644   3.503  19.428  0.00  0.00    +0.000 C 
ATOM     19  O   UNL     1       5.446   4.240  19.992  0.00  0.00    +0.000 OA
ATOM     20  N   UNL     1       3.800   3.866  18.401  0.00  0.00    +0.000 N 
ATOM     21  H   UNL     1       2.975   3.304  18.240  0.00  0.00    +0.000 HD
BRANCH  18  23
ATOM     22  C   UNL     1       3.531   1.765  20.791  0.00  0.00    +0.000 C 
ATOM     23  C   UNL     1       4.448   2.102  19.871  0.00  0.00    +0.000 C 
BRANCH  22  26
ATOM     24  C   UNL     1       0.816   2.845  19.805  0.00  0.00    +0.000 C 
ATOM     25  C   UNL     1       1.495   3.158  21.091  0.00  0.00    +0.000 C 
ATOM     26  C   UNL     1       2.678   2.686  21.511  0.00  0.00    +0.000 C 
ENDBRANCH  22  26
ENDBRANCH  18  23
ENDBRANCH  12  20
ENDBRANCH   1  16
BRANCH   7  27
ATOM     27  C   UNL     1      -0.848  13.548  19.315  0.00  0.00    +0.000 C 
ATOM     28  N   UNL     1      -0.642  14.010  18.044  0.00  0.00    +0.000 N 
ATOM     29  O   UNL     1      -1.199  14.317  20.207  0.00  0.00    +0.000 OA
ATOM     30  H   UNL     1      -0.703  15.012  17.909  0.00  0.00    +0.000 HD
ATOM     31  H   UNL     1      -0.159  13.471  17.337  0.00  0.00    +0.000 HD
ENDBRANCH   7  27
BRANCH   9  32
ATOM     32  C   UNL     1      -3.596  12.191  19.150  0.00  0.00    +0.000 C 
BRANCH  32  33
ATOM     33  C   UNL     1      -5.081  12.087  18.793  0.00  0.00    +0.000 C 
BRANCH  33  34
ATOM     34  C   UNL     1      -5.968  12.579  19.940  0.00  0.00    +0.000 C 
BRANCH  34  35
ATOM     35  C   UNL     1      -7.056  13.530  19.451  0.00  0.00    +0.000 C 
ATOM     36  C   UNL     1      -7.607  13.076  18.107  0.00  0.00    +0.000 C 
ENDBRANCH  34  35
ENDBRANCH  33  34
ENDBRANCH  32  33
ENDBRANCH   9  32
TORSDOF 9
ENDMDL
MODEL 6
REMARK VINA RESULT:      -7.5      1.082      1.302
REMARK  Name = 
REMARK  11 active torsions:
REMARK  status: ('A' for Active; 'I' for Inactive)
REMARK    1  A    between atoms: C_1  and  C_2
REMARK    2  A    between atoms: C_3  and  C_4
REMARK    3  A    between atoms: C_5  and  C_6
REMARK    4  A    between atoms: N_8  and  C_9
REMARK    5  A    between atoms: C_13  and  C_14
REMARK    6  A    between atoms: C_20  and  C_21
REMARK    7  A    between atoms: C_25  and  C_27
REMARK    8  A    between atoms: C_27  and  C_28
REMARK    9  A    between atoms: C_28  and  C_29
REMARK   10  A    between atoms: C_29  and  C_30
REMARK   11  A    between atoms: C_30  and  C_31
REMARK                            x       y       z     vdW  Elec       q    Type
REMARK                         _______ _______ _______ _____ _____    ______ ____
ROOT
ATOM      1  C   UNL     1       2.139   8.576  18.565  0.00  0.00    +0.000 C 
ATOM      2  N   UNL     1       1.588   8.394  19.725  0.00  0.00    +0.000 NA
ATOM      3  O   UNL     1       0.857   9.562  20.037  0.00  0.00    +0.000 OA
ATOM      4  C   UNL     1       0.725  10.340  18.836  0.00  0.00    +0.000 C 
ATOM      5  C   UNL     1       1.877   9.911  17.957  0.00  0.00    +0.000 C 
ATOM      6  C   UNL     1       0.728  11.816  19.214  0.00  0.00    +0.000 C 
ATOM      7  C   UNL     1      -0.737  12.100  19.574  0.00  0.00    +0.000 C 
ATOM      8  N   UNL     1      -1.476  11.245  18.644  0.00  0.00    +0.000 N 
ATOM      9  C   UNL     1      -2.840  11.179  18.441  0.00  0.00    +0.000 C 
ATOM     10  O   UNL     1      -3.327  10.323  17.701  0.00  0.00    +0.000 OA
ATOM     11  C   UNL     1      -0.658  10.115  18.218  0.00  0.00    +0.000 C 
ENDROOT
BRANCH   1  16
ATOM     12  C   UNL     1       3.763   5.274  17.801  0.00  0.00    +0.000 A 
ATOM     13  C   UNL     1       4.791   5.655  16.934  0.00  0.00    +0.000 A 
ATOM     14  C   UNL     1       4.928   6.987  16.549  0.00  0.00    +0.000 A 
ATOM     15  C   UNL     1       4.057   7.951  17.060  0.00  0.00    +0.000 A 
ATOM     16  C   UNL     1       3.022   7.574  17.922  0.00  0.00    +0.000 A 
ATOM     17  C   UNL     1       2.848   6.223  18.255  0.00  0.00    +0.000 A 
BRANCH  12  20
ATOM     18  C   UNL     1       2.828   3.037  17.635  0.00  0.00    +0.000 C 
ATOM     19  O   UNL     1       2.189   3.235  16.607  0.00  0.00    +0.000 OA
ATOM     20  N   UNL     1       3.646   3.951  18.264  0.00  0.00    +0.000 N 
ATOM     21  H   UNL     1       4.363   3.602  18.886  0.00  0.00    +0.000 HD
BRANCH  18  23
ATOM     22  C   UNL     1       1.964   1.372  19.248  0.00  0.00    +0.000 C 
ATOM     23  C   UNL     1       2.840   1.706  18.287  0.00  0.00    +0.000 C 
BRANCH  22  26
ATOM     24  C   UNL     1       2.358   3.219  21.687  0.00  0.00    +0.000 C 
ATOM     25  C   UNL     1       1.123   3.054  20.873  0.00  0.00    +0.000 C 
ATOM     26  C   UNL     1       0.960   2.246  19.816  0.00  0.00    +0.000 C 
ENDBRANCH  22  26
ENDBRANCH  18  23
ENDBRANCH  12  20
ENDBRANCH   1  16
BRANCH   7  27
ATOM     27  C   UNL     1      -0.983  13.605  19.406  0.00  0.00    +0.000 C 
ATOM     28  N   UNL     1      -0.706  14.108  18.164  0.00  0.00    +0.000 N 
ATOM     29  O   UNL     1      -1.400  14.341  20.296  0.00  0.00    +0.000 OA
ATOM     30  H   UNL     1      -0.773  15.113  18.055  0.00  0.00    +0.000 HD
ATOM     31  H   UNL     1      -0.172  13.597  17.472  0.00  0.00    +0.000 HD
ENDBRANCH   7  27
BRANCH   9  32
ATOM     32  C   UNL     1      -3.711  12.225  19.118  0.00  0.00    +0.000 C 
BRANCH  32  33
ATOM     33  C   UNL     1      -5.205  11.958  18.926  0.00  0.00    +0.000 C 
BRANCH  33  34
ATOM     34  C   UNL     1      -6.051  13.147  19.390  0.00  0.00    +0.000 C 
BRANCH  34  35
ATOM     35  C   UNL     1      -5.405  13.882  20.561  0.00  0.00    +0.000 C 
ATOM     36  C   UNL     1      -6.295  15.017  21.045  0.00  0.00    +0.000 C 
ENDBRANCH  34  35
ENDBRANCH  33  34
ENDBRANCH  32  33
ENDBRANCH   9  32
TORSDOF 9
ENDMDL
MODEL 7
REMARK VINA RESULT:      -7.5      0.895      1.052
REMARK  Name = 
REMARK  11 active torsions:
REMARK  status: ('A' for Active; 'I' for Inactive)
REMARK    1  A    between atoms: C_1  and  C_2
REMARK    2  A    between atoms: C_3  and  C_4
REMARK    3  A    between atoms: C_5  and  C_6
REMARK    4  A    between atoms: N_8  and  C_9
REMARK    5  A    between atoms: C_13  and  C_14
REMARK    6  A    between atoms: C_20  and  C_21
REMARK    7  A    between atoms: C_25  and  C_27
REMARK    8  A    between atoms: C_27  and  C_28
REMARK    9  A    between atoms: C_28  and  C_29
REMARK   10  A    between atoms: C_29  and  C_30
REMARK   11  A    between atoms: C_30  and  C_31
REMARK                            x       y       z     vdW  Elec       q    Type
REMARK                         _______ _______ _______ _____ _____    ______ ____
ROOT
ATOM      1  C   UNL     1       2.298   8.429  18.482  0.00  0.00    +0.000 C 
ATOM      2  N   UNL     1       1.761   8.228  19.646  0.00  0.00    +0.000 NA
ATOM      3  O   UNL     1       1.084   9.413  20.012  0.00  0.00    +0.000 OA
ATOM      4  C   UNL     1       0.960  10.236  18.841  0.00  0.00    +0.000 C 
ATOM      5  C   UNL     1       2.078   9.793  17.925  0.00  0.00    +0.000 C 
ATOM      6  C   UNL     1       1.030  11.697  19.269  0.00  0.00    +0.000 C 
ATOM      7  C   UNL     1      -0.416  12.026  19.667  0.00  0.00    +0.000 C 
ATOM      8  N   UNL     1      -1.206  11.234  18.724  0.00  0.00    +0.000 N 
ATOM      9  C   UNL     1      -2.575  11.229  18.547  0.00  0.00    +0.000 C 
ATOM     10  O   UNL     1      -3.110  10.418  17.788  0.00  0.00    +0.000 OA
ATOM     11  C   UNL     1      -0.442  10.088  18.244  0.00  0.00    +0.000 C 
ENDROOT
BRANCH   1  16
ATOM     12  C   UNL     1       3.628   5.076  17.427  0.00  0.00    +0.000 A 
ATOM     13  C   UNL     1       4.770   5.436  16.707  0.00  0.00    +0.000 A 
ATOM     14  C   UNL     1       5.085   6.779  16.513  0.00  0.00    +0.000 A 
ATOM     15  C   UNL     1       4.275   7.770  17.072  0.00  0.00    +0.000 A 
ATOM     16  C   UNL     1       3.126   7.415  17.789  0.00  0.00    +0.000 A 
ATOM     17  C   UNL     1       2.779   6.063  17.925  0.00  0.00    +0.000 A 
BRANCH  12  20
ATOM     18  C   UNL     1       4.030   3.011  18.644  0.00  0.00    +0.000 C 
ATOM     19  O   UNL     1       4.913   3.453  19.371  0.00  0.00    +0.000 OA
ATOM     20  N   UNL     1       3.327   3.730  17.701  0.00  0.00    +0.000 N 
ATOM     21  H   UNL     1       2.426   3.377  17.406  0.00  0.00    +0.000 HD
BRANCH  18  23
ATOM     22  C   UNL     1       2.280   1.305  19.027  0.00  0.00    +0.000 C 
ATOM     23  C   UNL     1       3.561   1.610  18.770  0.00  0.00    +0.000 C 
BRANCH  22  26
ATOM     24  C   UNL     1       1.795   2.812  21.674  0.00  0.00    +0.000 C 
ATOM     25  C   UNL     1       1.002   2.918  20.420  0.00  0.00    +0.000 C 
ATOM     26  C   UNL     1       1.218   2.257  19.275  0.00  0.00    +0.000 C 
ENDBRANCH  22  26
ENDBRANCH  18  23
ENDBRANCH  12  20
ENDBRANCH   1  16
BRANCH   7  27
ATOM     27  C   UNL     1      -0.605  13.545  19.555  0.00  0.00    +0.000 C 
ATOM     28  N   UNL     1      -0.911  14.184  20.725  0.00  0.00    +0.000 N 
ATOM     29  O   UNL     1      -0.495  14.180  18.509  0.00  0.00    +0.000 OA
ATOM     30  H   UNL     1      -1.129  15.172  20.660  0.00  0.00    +0.000 HD
ATOM     31  H   UNL     1      -1.214  13.692  21.556  0.00  0.00    +0.000 HD
ENDBRANCH   7  27
BRANCH   9  32
ATOM     32  C   UNL     1      -3.390  12.284  19.276  0.00  0.00    +0.000 C 
BRANCH  32  33
ATOM     33  C   UNL     1      -4.897  12.052  19.150  0.00  0.00    +0.000 C 
BRANCH  33  34
ATOM     34  C   UNL     1      -5.618  12.320  20.474  0.00  0.00    +0.000 C 
BRANCH  34  35
ATOM     35  C   UNL     1      -6.394  13.633  20.444  0.00  0.00    +0.000 C 
ATOM     36  C   UNL     1      -6.419  14.280  21.821  0.00  0.00    +0.000 C 
ENDBRANCH  34  35
ENDBRANCH  33  34
ENDBRANCH  32  33
ENDBRANCH   9  32
TORSDOF 9
ENDMDL
MODEL 8
REMARK VINA RESULT:      -7.4      2.528      4.049
REMARK  Name = 
REMARK  11 active torsions:
REMARK  status: ('A' for Active; 'I' for Inactive)
REMARK    1  A    between atoms: C_1  and  C_2
REMARK    2  A    between atoms: C_3  and  C_4
REMARK    3  A    between atoms: C_5  and  C_6
REMARK    4  A    between atoms: N_8  and  C_9
REMARK    5  A    between atoms: C_13  and  C_14
REMARK    6  A    between atoms: C_20  and  C_21
REMARK    7  A    between atoms: C_25  and  C_27
REMARK    8  A    between atoms: C_27  and  C_28
REMARK    9  A    between atoms: C_28  and  C_29
REMARK   10  A    between atoms: C_29  and  C_30
REMARK   11  A    between atoms: C_30  and  C_31
REMARK                            x       y       z     vdW  Elec       q    Type
REMARK                         _______ _______ _______ _____ _____    ______ ____
ROOT
ATOM      1  C   UNL     1       2.627   7.388  18.659  0.00  0.00    +0.000 C 
ATOM      2  N   UNL     1       2.054   7.422  19.823  0.00  0.00    +0.000 NA
ATOM      3  O   UNL     1       1.466   8.698  19.970  0.00  0.00    +0.000 OA
ATOM      4  C   UNL     1       1.430   9.325  18.678  0.00  0.00    +0.000 C 
ATOM      5  C   UNL     1       2.526   8.655  17.881  0.00  0.00    +0.000 C 
ATOM      6  C   UNL     1       1.606  10.827  18.864  0.00  0.00    +0.000 C 
ATOM      7  C   UNL     1       0.183  11.324  19.158  0.00  0.00    +0.000 C 
ATOM      8  N   UNL     1      -0.649  10.449  18.332  0.00  0.00    +0.000 N 
ATOM      9  C   UNL     1      -2.010  10.517  18.115  0.00  0.00    +0.000 C 
ATOM     10  O   UNL     1      -2.593   9.635  17.481  0.00  0.00    +0.000 OA
ATOM     11  C   UNL     1       0.032   9.185  18.068  0.00  0.00    +0.000 C 
ENDROOT
BRANCH   1  16
ATOM     12  C   UNL     1       4.747   5.241  16.419  0.00  0.00    +0.000 A 
ATOM     13  C   UNL     1       4.656   3.996  17.047  0.00  0.00    +0.000 A 
ATOM     14  C   UNL     1       3.946   3.860  18.237  0.00  0.00    +0.000 A 
ATOM     15  C   UNL     1       3.291   4.964  18.787  0.00  0.00    +0.000 A 
ATOM     16  C   UNL     1       3.386   6.215  18.166  0.00  0.00    +0.000 A 
ATOM     17  C   UNL     1       4.156   6.361  17.003  0.00  0.00    +0.000 A 
BRANCH  12  20
ATOM     18  C   UNL     1       6.706   5.008  14.999  0.00  0.00    +0.000 C 
ATOM     19  O   UNL     1       7.411   4.453  15.834  0.00  0.00    +0.000 OA
ATOM     20  N   UNL     1       5.394   5.393  15.179  0.00  0.00    +0.000 N 
ATOM     21  H   UNL     1       4.819   5.528  14.359  0.00  0.00    +0.000 HD
BRANCH  18  23
ATOM     22  C   UNL     1       6.926   4.438  12.602  0.00  0.00    +0.000 C 
ATOM     23  C   UNL     1       7.199   5.263  13.625  0.00  0.00    +0.000 C 
BRANCH  22  26
ATOM     24  C   UNL     1       4.310   3.772  11.111  0.00  0.00    +0.000 C 
ATOM     25  C   UNL     1       5.061   2.893  12.047  0.00  0.00    +0.000 C 
ATOM     26  C   UNL     1       6.196   3.192  12.694  0.00  0.00    +0.000 C 
ENDBRANCH  22  26
ENDBRANCH  18  23
ENDBRANCH  12  20
ENDBRANCH   1  16
BRANCH   7  27
ATOM     27  C   UNL     1       0.118  12.813  18.795  0.00  0.00    +0.000 C 
ATOM     28  N   UNL     1       0.073  13.673  19.859  0.00  0.00    +0.000 N 
ATOM     29  O   UNL     1       0.106  13.245  17.645  0.00  0.00    +0.000 OA
ATOM     30  H   UNL     1      -0.062  14.654  19.645  0.00  0.00    +0.000 HD
ATOM     31  H   UNL     1      -0.128  13.368  20.802  0.00  0.00    +0.000 HD
ENDBRANCH   7  27
BRANCH   9  32
ATOM     32  C   UNL     1      -2.753  11.736  18.637  0.00  0.00    +0.000 C 
BRANCH  32  33
ATOM     33  C   UNL     1      -4.242  11.711  18.284  0.00  0.00    +0.000 C 
BRANCH  33  34
ATOM     34  C   UNL     1      -5.108  12.115  19.481  0.00  0.00    +0.000 C 
BRANCH  34  35
ATOM     35  C   UNL     1      -4.396  13.116  20.386  0.00  0.00    +0.000 C 
ATOM     36  C   UNL     1      -4.601  12.763  21.851  0.00  0.00    +0.000 C 
ENDBRANCH  34  35
ENDBRANCH  33  34
ENDBRANCH  32  33
ENDBRANCH   9  32
TORSDOF 9
ENDMDL
MODEL 9
REMARK VINA RESULT:      -7.4      2.496      4.056
REMARK  Name = 
REMARK  11 active torsions:
REMARK  status: ('A' for Active; 'I' for Inactive)
REMARK    1  A    between atoms: C_1  and  C_2
REMARK    2  A    between atoms: C_3  and  C_4
REMARK    3  A    between atoms: C_5  and  C_6
REMARK    4  A    between atoms: N_8  and  C_9
REMARK    5  A    between atoms: C_13  and  C_14
REMARK    6  A    between atoms: C_20  and  C_21
REMARK    7  A    between atoms: C_25  and  C_27
REMARK    8  A    between atoms: C_27  and  C_28
REMARK    9  A    between atoms: C_28  and  C_29
REMARK   10  A    between atoms: C_29  and  C_30
REMARK   11  A    between atoms: C_30  and  C_31
REMARK                            x       y       z     vdW  Elec       q    Type
REMARK                         _______ _______ _______ _____ _____    ______ ____
ROOT
ATOM      1  C   UNL     1       2.350   7.622  18.746  0.00  0.00    +0.000 C 
ATOM      2  N   UNL     1       1.846   7.724  19.937  0.00  0.00    +0.000 NA
ATOM      3  O   UNL     1       1.248   9.000  20.037  0.00  0.00    +0.000 OA
ATOM      4  C   UNL     1       1.127   9.542  18.711  0.00  0.00    +0.000 C 
ATOM      5  C   UNL     1       2.185   8.834  17.896  0.00  0.00    +0.000 C 
ATOM      6  C   UNL     1       1.292  11.055  18.790  0.00  0.00    +0.000 C 
ATOM      7  C   UNL     1      -0.119  11.553  19.135  0.00  0.00    +0.000 C 
ATOM      8  N   UNL     1      -0.984  10.617  18.417  0.00  0.00    +0.000 N 
ATOM      9  C   UNL     1      -2.357  10.656  18.276  0.00  0.00    +0.000 C 
ATOM     10  O   UNL     1      -2.962   9.728  17.736  0.00  0.00    +0.000 OA
ATOM     11  C   UNL     1      -0.301   9.347  18.195  0.00  0.00    +0.000 C 
ENDROOT
BRANCH   1  16
ATOM     12  C   UNL     1       4.603   5.452  16.662  0.00  0.00    +0.000 A 
ATOM     13  C   UNL     1       4.368   4.188  17.209  0.00  0.00    +0.000 A 
ATOM     14  C   UNL     1       3.514   4.042  18.300  0.00  0.00    +0.000 A 
ATOM     15  C   UNL     1       2.860   5.158  18.825  0.00  0.00    +0.000 A 
ATOM     16  C   UNL     1       3.098   6.428  18.285  0.00  0.00    +0.000 A 
ATOM     17  C   UNL     1       4.009   6.578  17.230  0.00  0.00    +0.000 A 
BRANCH  12  20
ATOM     18  C   UNL     1       6.460   4.779  15.246  0.00  0.00    +0.000 C 
ATOM     19  O   UNL     1       6.776   3.791  15.901  0.00  0.00    +0.000 OA
ATOM     20  N   UNL     1       5.401   5.620  15.516  0.00  0.00    +0.000 N 
ATOM     21  H   UNL     1       5.033   6.181  14.760  0.00  0.00    +0.000 HD
BRANCH  18  23
ATOM     22  C   UNL     1       6.882   4.568  12.818  0.00  0.00    +0.000 C 
ATOM     23  C   UNL     1       7.177   5.134  13.998  0.00  0.00    +0.000 C 
BRANCH  22  26
ATOM     24  C   UNL     1       7.301   2.041  11.100  0.00  0.00    +0.000 C 
ATOM     25  C   UNL     1       6.080   2.419  11.862  0.00  0.00    +0.000 C 
ATOM     26  C   UNL     1       5.905   3.521  12.604  0.00  0.00    +0.000 C 
ENDBRANCH  22  26
ENDBRANCH  18  23
ENDBRANCH  12  20
ENDBRANCH   1  16
BRANCH   7  27
ATOM     27  C   UNL     1      -0.228  13.015  18.682  0.00  0.00    +0.000 C 
ATOM     28  N   UNL     1      -0.254  13.939  19.690  0.00  0.00    +0.000 N 
ATOM     29  O   UNL     1      -0.289  13.373  17.508  0.00  0.00    +0.000 OA
ATOM     30  H   UNL     1      -0.417  14.903  19.420  0.00  0.00    +0.000 HD
ATOM     31  H   UNL     1      -0.416  13.692  20.658  0.00  0.00    +0.000 HD
ENDBRANCH   7  27
BRANCH   9  32
ATOM     32  C   UNL     1      -3.086  11.897  18.762  0.00  0.00    +0.000 C 
BRANCH  32  33
ATOM     33  C   UNL     1      -4.608  11.751  18.685  0.00  0.00    +0.000 C 
BRANCH  33  34
ATOM     34  C   UNL     1      -5.129  12.051  17.277  0.00  0.00    +0.000 C 
BRANCH  34  35
ATOM     35  C   UNL     1      -6.504  12.712  17.308  0.00  0.00    +0.000 C 
ATOM     36  C   UNL     1      -7.260  12.329  18.571  0.00  0.00    +0.000 C 
ENDBRANCH  34  35
ENDBRANCH  33  34
ENDBRANCH  32  33
ENDBRANCH   9  32
TORSDOF 9
ENDMDL
