MODEL 1
REMARK VINA RESULT:      -9.1      0.000      0.000
REMARK  Name = 
REMARK  5 active torsions:
REMARK  status: ('A' for Active; 'I' for Inactive)
REMARK    1  A    between atoms: C_1  and  O_2
REMARK    2  A    between atoms: O_2  and  C_3
REMARK    3  A    between atoms: C_5  and  N_6
REMARK    4  A    between atoms: N_9  and  C_10
REMARK    5  A    between atoms: N_13  and  C_14
REMARK                            x       y       z     vdW  Elec       q    Type
REMARK                         _______ _______ _______ _____ _____    ______ ____
ROOT
ATOM      1  N   UNL     1       4.638   2.836  18.167  0.00  0.00    +0.000 N 
ATOM      2  C   UNL     1       3.295   2.376  17.763  0.00  0.00    +0.000 C 
ATOM      3  C   UNL     1       2.694   1.361  18.770  0.00  0.00    +0.000 C 
ATOM      4  N   UNL     1       2.780   1.745  20.193  0.00  0.00    +0.000 NA
ATOM      5  C   UNL     1       4.179   2.057  20.501  0.00  0.00    +0.000 C 
ATOM      6  C   UNL     1       4.834   3.125  19.606  0.00  0.00    +0.000 C 
ENDROOT
BRANCH   1   9
ATOM      7  C   UNL     1       5.527   4.500  14.995  0.00  0.00    +0.000 A 
ATOM      8  C   UNL     1       5.011   3.644  15.955  0.00  0.00    +0.000 A 
ATOM      9  C   UNL     1       5.309   3.774  17.329  0.00  0.00    +0.000 A 
ATOM     10  C   UNL     1       6.201   4.802  17.753  0.00  0.00    +0.000 A 
ATOM     11  N   UNL     1       6.609   4.962  19.041  0.00  0.00    +0.000 NA
ATOM     12  C   UNL     1       7.462   5.959  19.363  0.00  0.00    +0.000 A 
ATOM     13  C   UNL     1       7.950   6.873  18.458  0.00  0.00    +0.000 A 
ATOM     14  C   UNL     1       7.559   6.729  17.137  0.00  0.00    +0.000 A 
ATOM     15  C   UNL     1       6.700   5.685  16.759  0.00  0.00    +0.000 A 
ATOM     16  C   UNL     1       6.358   5.529  15.406  0.00  0.00    +0.000 A 
BRANCH   7  18
ATOM     17  C   UNL     1       6.192   3.662  12.880  0.00  0.00    +0.000 C 
ATOM     18  O   UNL     1       5.269   4.426  13.654  0.00  0.00    +0.000 OA
ENDBRANCH   7  18
ENDBRANCH   1   9
BRANCH   4  19
ATOM     19  C   UNL     1       1.699   2.601  20.725  0.00  0.00    +0.000 C 
ATOM     20  C   UNL     1       0.692   3.254  19.762  0.00  0.00    +0.000 C 
ATOM     21  C   UNL     1       1.220   4.515  19.090  0.00  0.00    +0.000 C 
ATOM     22  N   UNL     1       1.701   5.464  20.104  0.00  0.00    +0.000 N 
ATOM     23  C   UNL     1       2.625   4.965  21.127  0.00  0.00    +0.000 C 
ATOM     24  C   UNL     1       2.101   3.676  21.757  0.00  0.00    +0.000 C 
BRANCH  22  25
ATOM     25  C   UNL     1       1.894   6.793  19.643  0.00  0.00    +0.000 A 
ATOM     26  C   UNL     1       2.649   6.918  18.457  0.00  0.00    +0.000 A 
ATOM     27  C   UNL     1       2.771   8.138  17.817  0.00  0.00    +0.000 A 
ATOM     28  F   UNL     1       3.460   8.211  16.668  0.00  0.00    +0.000 F 
ATOM     29  C   UNL     1       2.151   9.263  18.317  0.00  0.00    +0.000 A 
ATOM     30  C   UNL     1       1.428   9.189  19.515  0.00  0.00    +0.000 A 
ATOM     31  C   UNL     1       0.807  10.339  20.006  0.00  0.00    +0.000 A 
ATOM     32  C   UNL     1       0.103  10.297  21.203  0.00  0.00    +0.000 A 
ATOM     33  C   UNL     1       0.057   9.094  21.867  0.00  0.00    +0.000 A 
ATOM     34  N   UNL     1       0.627   7.954  21.404  0.00  0.00    +0.000 NA
ATOM     35  C   UNL     1       1.304   7.964  20.224  0.00  0.00    +0.000 A 
ENDBRANCH  22  25
ENDBRANCH   4  19
TORSDOF 4
ENDMDL
MODEL 2
REMARK VINA RESULT:      -9.0      4.097      6.859
REMARK  Name = 
REMARK  5 active torsions:
REMARK  status: ('A' for Active; 'I' for Inactive)
REMARK    1  A    between atoms: C_1  and  O_2
REMARK    2  A    between atoms: O_2  and  C_3
REMARK    3  A    between atoms: C_5  and  N_6
REMARK    4  A    between atoms: N_9  and  C_10
REMARK    5  A    between atoms: N_13  and  C_14
REMARK                            x       y       z     vdW  Elec       q    Type
REMARK                         _______ _______ _______ _____ _____    ______ ____
ROOT
ATOM      1  N   UNL     1       2.635   7.416  18.781  0.00  0.00    +0.000 N 
ATOM      2  C   UNL     1       2.190   7.462  20.187  0.00  0.00    +0.000 C 
ATOM      3  C   UNL     1       1.955   8.912  20.684  0.00  0.00    +0.000 C 
ATOM      4  N   UNL     1       1.158   9.772  19.787  0.00  0.00    +0.000 NA
ATOM      5  C   UNL     1       1.771   9.743  18.457  0.00  0.00    +0.000 C 
ATOM      6  C   UNL     1       1.961   8.344  17.843  0.00  0.00    +0.000 C 
ENDROOT
BRANCH   1   9
ATOM      7  C   UNL     1       1.931   3.902  17.902  0.00  0.00    +0.000 A 
ATOM      8  C   UNL     1       1.884   5.180  18.435  0.00  0.00    +0.000 A 
ATOM      9  C   UNL     1       2.890   6.143  18.194  0.00  0.00    +0.000 A 
ATOM     10  C   UNL     1       4.018   5.786  17.399  0.00  0.00    +0.000 A 
ATOM     11  N   UNL     1       5.072   6.616  17.172  0.00  0.00    +0.000 NA
ATOM     12  C   UNL     1       6.109   6.201  16.411  0.00  0.00    +0.000 A 
ATOM     13  C   UNL     1       6.170   4.967  15.806  0.00  0.00    +0.000 A 
ATOM     14  C   UNL     1       5.115   4.098  16.027  0.00  0.00    +0.000 A 
ATOM     15  C   UNL     1       4.037   4.481  16.840  0.00  0.00    +0.000 A 
ATOM     16  C   UNL     1       3.002   3.564  17.091  0.00  0.00    +0.000 A 
BRANCH   7  18
ATOM     17  C   UNL     1       0.614   2.683  19.449  0.00  0.00    +0.000 C 
ATOM     18  O   UNL     1       0.987   2.933  18.095  0.00  0.00    +0.000 OA
ENDBRANCH   7  18
ENDBRANCH   1   9
BRANCH   4  19
ATOM     19  C   UNL     1      -0.313   9.706  19.924  0.00  0.00    +0.000 C 
ATOM     20  C   UNL     1      -1.189  10.837  19.357  0.00  0.00    +0.000 C 
ATOM     21  C   UNL     1      -1.262  12.062  20.258  0.00  0.00    +0.000 C 
ATOM     22  N   UNL     1      -1.684  11.670  21.611  0.00  0.00    +0.000 N 
ATOM     23  C   UNL     1      -0.974  10.561  22.256  0.00  0.00    +0.000 C 
ATOM     24  C   UNL     1      -0.870   9.359  21.321  0.00  0.00    +0.000 C 
BRANCH  22  25
ATOM     25  C   UNL     1      -2.120  12.737  22.440  0.00  0.00    +0.000 A 
ATOM     26  C   UNL     1      -1.092  13.506  23.025  0.00  0.00    +0.000 A 
ATOM     27  C   UNL     1      -1.380  14.667  23.719  0.00  0.00    +0.000 A 
ATOM     28  F   UNL     1      -0.373  15.396  24.226  0.00  0.00    +0.000 F 
ATOM     29  C   UNL     1      -2.679  15.108  23.851  0.00  0.00    +0.000 A 
ATOM     30  C   UNL     1      -3.731  14.350  23.321  0.00  0.00    +0.000 A 
ATOM     31  C   UNL     1      -5.041  14.812  23.465  0.00  0.00    +0.000 A 
ATOM     32  C   UNL     1      -6.104  14.068  22.967  0.00  0.00    +0.000 A 
ATOM     33  C   UNL     1      -5.806  12.876  22.348  0.00  0.00    +0.000 A 
ATOM     34  N   UNL     1      -4.544  12.413  22.170  0.00  0.00    +0.000 NA
ATOM     35  C   UNL     1      -3.485  13.134  22.629  0.00  0.00    +0.000 A 
ENDBRANCH  22  25
ENDBRANCH   4  19
TORSDOF 4
ENDMDL
MODEL 3
REMARK VINA RESULT:      -8.9      4.693     10.525
REMARK  Name = 
REMARK  5 active torsions:
REMARK  status: ('A' for Active; 'I' for Inactive)
REMARK    1  A    between atoms: C_1  and  O_2
REMARK    2  A    between atoms: O_2  and  C_3
REMARK    3  A    between atoms: C_5  and  N_6
REMARK    4  A    between atoms: N_9  and  C_10
REMARK    5  A    between atoms: N_13  and  C_14
REMARK                            x       y       z     vdW  Elec       q    Type
REMARK                         _______ _______ _______ _____ _____    ______ ____
ROOT
ATOM      1  N   UNL     1      -0.673  12.481  22.140  0.00  0.00    +0.000 N 
ATOM      2  C   UNL     1      -0.420  12.704  20.704  0.00  0.00    +0.000 C 
ATOM      3  C   UNL     1       0.885  12.017  20.222  0.00  0.00    +0.000 C 
ATOM      4  N   UNL     1       1.057  10.611  20.637  0.00  0.00    +0.000 NA
ATOM      5  C   UNL     1       0.908  10.541  22.093  0.00  0.00    +0.000 C 
ATOM      6  C   UNL     1      -0.403  11.119  22.657  0.00  0.00    +0.000 C 
ENDROOT
BRANCH   1   9
ATOM      7  C   UNL     1      -4.289  12.884  22.757  0.00  0.00    +0.000 A 
ATOM      8  C   UNL     1      -3.053  12.490  22.269  0.00  0.00    +0.000 A 
ATOM      9  C   UNL     1      -1.841  13.059  22.717  0.00  0.00    +0.000 A 
ATOM     10  C   UNL     1      -1.880  14.104  23.686  0.00  0.00    +0.000 A 
ATOM     11  N   UNL     1      -0.775  14.766  24.125  0.00  0.00    +0.000 NA
ATOM     12  C   UNL     1      -0.894  15.751  25.042  0.00  0.00    +0.000 A 
ATOM     13  C   UNL     1      -2.090  16.133  25.605  0.00  0.00    +0.000 A 
ATOM     14  C   UNL     1      -3.233  15.482  25.170  0.00  0.00    +0.000 A 
ATOM     15  C   UNL     1      -3.152  14.478  24.194  0.00  0.00    +0.000 A 
ATOM     16  C   UNL     1      -4.330  13.867  23.732  0.00  0.00    +0.000 A 
BRANCH   7  18
ATOM     17  C   UNL     1      -6.629  12.787  23.118  0.00  0.00    +0.000 C 
ATOM     18  O   UNL     1      -5.492  12.366  22.366  0.00  0.00    +0.000 OA
ENDBRANCH   7  18
ENDBRANCH   1   9
BRANCH   4  19
ATOM     19  C   UNL     1       0.439   9.576  19.781  0.00  0.00    +0.000 C 
ATOM     20  C   UNL     1       0.507   8.096  20.195  0.00  0.00    +0.000 C 
ATOM     21  C   UNL     1       1.836   7.431  19.865  0.00  0.00    +0.000 C 
ATOM     22  N   UNL     1       2.154   7.615  18.442  0.00  0.00    +0.000 N 
ATOM     23  C   UNL     1       2.072   8.971  17.891  0.00  0.00    +0.000 C 
ATOM     24  C   UNL     1       0.753   9.639  18.272  0.00  0.00    +0.000 C 
BRANCH  22  25
ATOM     25  C   UNL     1       3.172   6.765  17.935  0.00  0.00    +0.000 A 
ATOM     26  C   UNL     1       4.394   7.402  17.631  0.00  0.00    +0.000 A 
ATOM     27  C   UNL     1       5.514   6.666  17.286  0.00  0.00    +0.000 A 
ATOM     28  F   UNL     1       6.670   7.303  17.045  0.00  0.00    +0.000 F 
ATOM     29  C   UNL     1       5.466   5.289  17.239  0.00  0.00    +0.000 A 
ATOM     30  C   UNL     1       4.261   4.622  17.493  0.00  0.00    +0.000 A 
ATOM     31  C   UNL     1       4.232   3.227  17.440  0.00  0.00    +0.000 A 
ATOM     32  C   UNL     1       3.044   2.543  17.666  0.00  0.00    +0.000 A 
ATOM     33  C   UNL     1       1.923   3.294  17.931  0.00  0.00    +0.000 A 
ATOM     34  N   UNL     1       1.924   4.647  18.014  0.00  0.00    +0.000 NA
ATOM     35  C   UNL     1       3.078   5.339  17.818  0.00  0.00    +0.000 A 
ENDBRANCH  22  25
ENDBRANCH   4  19
TORSDOF 4
ENDMDL
MODEL 4
REMARK VINA RESULT:      -8.9      4.517     10.412
REMARK  Name = 
REMARK  5 active torsions:
REMARK  status: ('A' for Active; 'I' for Inactive)
REMARK    1  A    between atoms: C_1  and  O_2
REMARK    2  A    between atoms: O_2  and  C_3
REMARK    3  A    between atoms: C_5  and  N_6
REMARK    4  A    between atoms: N_9  and  C_10
REMARK    5  A    between atoms: N_13  and  C_14
REMARK                            x       y       z     vdW  Elec       q    Type
REMARK                         _______ _______ _______ _____ _____    ______ ____
ROOT
ATOM      1  N   UNL     1      -1.519  11.803  21.471  0.00  0.00    +0.000 N 
ATOM      2  C   UNL     1      -0.901  10.648  22.150  0.00  0.00    +0.000 C 
ATOM      3  C   UNL     1      -0.811   9.402  21.230  0.00  0.00    +0.000 C 
ATOM      4  N   UNL     1      -0.274   9.645  19.877  0.00  0.00    +0.000 NA
ATOM      5  C   UNL     1      -1.049  10.725  19.261  0.00  0.00    +0.000 C 
ATOM      6  C   UNL     1      -1.118  12.037  20.065  0.00  0.00    +0.000 C 
ENDROOT
BRANCH   1   9
ATOM      7  C   UNL     1      -0.415  14.968  23.015  0.00  0.00    +0.000 A 
ATOM      8  C   UNL     1      -0.462  13.739  22.377  0.00  0.00    +0.000 A 
ATOM      9  C   UNL     1      -1.664  13.017  22.203  0.00  0.00    +0.000 A 
ATOM     10  C   UNL     1      -2.877  13.549  22.730  0.00  0.00    +0.000 A 
ATOM     11  N   UNL     1      -4.070  12.897  22.680  0.00  0.00    +0.000 NA
ATOM     12  C   UNL     1      -5.176  13.466  23.208  0.00  0.00    +0.000 A 
ATOM     13  C   UNL     1      -5.193  14.711  23.792  0.00  0.00    +0.000 A 
ATOM     14  C   UNL     1      -3.990  15.395  23.865  0.00  0.00    +0.000 A 
ATOM     15  C   UNL     1      -2.815  14.821  23.358  0.00  0.00    +0.000 A 
ATOM     16  C   UNL     1      -1.598  15.511  23.488  0.00  0.00    +0.000 A 
BRANCH   7  18
ATOM     17  C   UNL     1       1.662  15.699  22.139  0.00  0.00    +0.000 C 
ATOM     18  O   UNL     1       0.715  15.713  23.206  0.00  0.00    +0.000 OA
ENDBRANCH   7  18
ENDBRANCH   1   9
BRANCH   4  19
ATOM     19  C   UNL     1       1.196   9.610  19.721  0.00  0.00    +0.000 C 
ATOM     20  C   UNL     1       1.817   9.468  18.320  0.00  0.00    +0.000 C 
ATOM     21  C   UNL     1       1.829   8.037  17.801  0.00  0.00    +0.000 C 
ATOM     22  N   UNL     1       2.478   7.150  18.778  0.00  0.00    +0.000 N 
ATOM     23  C   UNL     1       2.027   7.220  20.171  0.00  0.00    +0.000 C 
ATOM     24  C   UNL     1       1.976   8.666  20.660  0.00  0.00    +0.000 C 
BRANCH  22  25
ATOM     25  C   UNL     1       2.860   5.877  18.278  0.00  0.00    +0.000 A 
ATOM     26  C   UNL     1       1.923   4.842  18.484  0.00  0.00    +0.000 A 
ATOM     27  C   UNL     1       2.100   3.598  17.906  0.00  0.00    +0.000 A 
ATOM     28  F   UNL     1       1.167   2.651  18.088  0.00  0.00    +0.000 F 
ATOM     29  C   UNL     1       3.192   3.340  17.106  0.00  0.00    +0.000 A 
ATOM     30  C   UNL     1       4.166   4.328  16.913  0.00  0.00    +0.000 A 
ATOM     31  C   UNL     1       5.266   4.048  16.099  0.00  0.00    +0.000 A 
ATOM     32  C   UNL     1       6.257   5.004  15.909  0.00  0.00    +0.000 A 
ATOM     33  C   UNL     1       6.105   6.208  16.554  0.00  0.00    +0.000 A 
ATOM     34  N   UNL     1       5.037   6.520  17.329  0.00  0.00    +0.000 NA
ATOM     35  C   UNL     1       4.042   5.610  17.514  0.00  0.00    +0.000 A 
ENDBRANCH  22  25
ENDBRANCH   4  19
TORSDOF 4
ENDMDL
MODEL 5
REMARK VINA RESULT:      -8.8      4.244      6.881
REMARK  Name = 
REMARK  5 active torsions:
REMARK  status: ('A' for Active; 'I' for Inactive)
REMARK    1  A    between atoms: C_1  and  O_2
REMARK    2  A    between atoms: O_2  and  C_3
REMARK    3  A    between atoms: C_5  and  N_6
REMARK    4  A    between atoms: N_9  and  C_10
REMARK    5  A    between atoms: N_13  and  C_14
REMARK                            x       y       z     vdW  Elec       q    Type
REMARK                         _______ _______ _______ _____ _____    ______ ____
ROOT
ATOM      1  N   UNL     1       2.698   7.463  18.635  0.00  0.00    +0.000 N 
ATOM      2  C   UNL     1       2.068   7.568  19.965  0.00  0.00    +0.000 C 
ATOM      3  C   UNL     1       1.824   9.041  20.387  0.00  0.00    +0.000 C 
ATOM      4  N   UNL     1       1.191   9.900  19.367  0.00  0.00    +0.000 NA
ATOM      5  C   UNL     1       1.977   9.808  18.135  0.00  0.00    +0.000 C 
ATOM      6  C   UNL     1       2.195   8.385  17.589  0.00  0.00    +0.000 C 
ENDROOT
BRANCH   1   9
ATOM      7  C   UNL     1       2.004   3.932  17.817  0.00  0.00    +0.000 A 
ATOM      8  C   UNL     1       1.934   5.230  18.297  0.00  0.00    +0.000 A 
ATOM      9  C   UNL     1       2.979   6.164  18.122  0.00  0.00    +0.000 A 
ATOM     10  C   UNL     1       4.172   5.756  17.455  0.00  0.00    +0.000 A 
ATOM     11  N   UNL     1       5.261   6.556  17.304  0.00  0.00    +0.000 NA
ATOM     12  C   UNL     1       6.358   6.094  16.663  0.00  0.00    +0.000 A 
ATOM     13  C   UNL     1       6.451   4.837  16.112  0.00  0.00    +0.000 A 
ATOM     14  C   UNL     1       5.359   3.997  16.260  0.00  0.00    +0.000 A 
ATOM     15  C   UNL     1       4.216   4.431  16.948  0.00  0.00    +0.000 A 
ATOM     16  C   UNL     1       3.141   3.544  17.128  0.00  0.00    +0.000 A 
BRANCH   7  18
ATOM     17  C   UNL     1       0.811   2.490  19.270  0.00  0.00    +0.000 C 
ATOM     18  O   UNL     1       1.023   2.989  17.951  0.00  0.00    +0.000 OA
ENDBRANCH   7  18
ENDBRANCH   1   9
BRANCH   4  19
ATOM     19  C   UNL     1      -0.286   9.890  19.303  0.00  0.00    +0.000 C 
ATOM     20  C   UNL     1      -1.017  10.797  18.297  0.00  0.00    +0.000 C 
ATOM     21  C   UNL     1      -1.149  12.241  18.761  0.00  0.00    +0.000 C 
ATOM     22  N   UNL     1      -1.770  12.290  20.092  0.00  0.00    +0.000 N 
ATOM     23  C   UNL     1      -1.213  11.430  21.141  0.00  0.00    +0.000 C 
ATOM     24  C   UNL     1      -1.045   9.996  20.642  0.00  0.00    +0.000 C 
BRANCH  22  25
ATOM     25  C   UNL     1      -2.259  13.564  20.484  0.00  0.00    +0.000 A 
ATOM     26  C   UNL     1      -1.359  14.636  20.308  0.00  0.00    +0.000 A 
ATOM     27  C   UNL     1      -1.766  15.945  20.497  0.00  0.00    +0.000 A 
ATOM     28  F   UNL     1      -0.895  16.941  20.279  0.00  0.00    +0.000 F 
ATOM     29  C   UNL     1      -3.065  16.236  20.854  0.00  0.00    +0.000 A 
ATOM     30  C   UNL     1      -3.977  15.196  21.080  0.00  0.00    +0.000 A 
ATOM     31  C   UNL     1      -5.289  15.511  21.441  0.00  0.00    +0.000 A 
ATOM     32  C   UNL     1      -6.207  14.498  21.692  0.00  0.00    +0.000 A 
ATOM     33  C   UNL     1      -5.765  13.201  21.576  0.00  0.00    +0.000 A 
ATOM     34  N   UNL     1      -4.506  12.864  21.202  0.00  0.00    +0.000 NA
ATOM     35  C   UNL     1      -3.594  13.836  20.930  0.00  0.00    +0.000 A 
ENDBRANCH  22  25
ENDBRANCH   4  19
TORSDOF 4
ENDMDL
MODEL 6
REMARK VINA RESULT:      -8.7      4.706     10.375
REMARK  Name = 
REMARK  5 active torsions:
REMARK  status: ('A' for Active; 'I' for Inactive)
REMARK    1  A    between atoms: C_1  and  O_2
REMARK    2  A    between atoms: O_2  and  C_3
REMARK    3  A    between atoms: C_5  and  N_6
REMARK    4  A    between atoms: N_9  and  C_10
REMARK    5  A    between atoms: N_13  and  C_14
REMARK                            x       y       z     vdW  Elec       q    Type
REMARK                         _______ _______ _______ _____ _____    ______ ____
ROOT
ATOM      1  N   UNL     1      -1.624  12.408  20.246  0.00  0.00    +0.000 N 
ATOM      2  C   UNL     1      -1.039  11.642  21.364  0.00  0.00    +0.000 C 
ATOM      3  C   UNL     1      -0.916  10.130  21.041  0.00  0.00    +0.000 C 
ATOM      4  N   UNL     1      -0.321   9.804  19.730  0.00  0.00    +0.000 NA
ATOM      5  C   UNL     1      -1.066  10.525  18.694  0.00  0.00    +0.000 C 
ATOM      6  C   UNL     1      -1.163  12.050  18.885  0.00  0.00    +0.000 C 
ENDROOT
BRANCH   1   9
ATOM      7  C   UNL     1      -0.883  15.984  19.712  0.00  0.00    +0.000 A 
ATOM      8  C   UNL     1      -0.845  14.598  19.717  0.00  0.00    +0.000 A 
ATOM      9  C   UNL     1      -1.795  13.814  20.408  0.00  0.00    +0.000 A 
ATOM     10  C   UNL     1      -2.818  14.462  21.160  0.00  0.00    +0.000 A 
ATOM     11  N   UNL     1      -3.731  13.797  21.918  0.00  0.00    +0.000 NA
ATOM     12  C   UNL     1      -4.669  14.484  22.608  0.00  0.00    +0.000 A 
ATOM     13  C   UNL     1      -4.787  15.855  22.582  0.00  0.00    +0.000 A 
ATOM     14  C   UNL     1      -3.865  16.558  21.826  0.00  0.00    +0.000 A 
ATOM     15  C   UNL     1      -2.857  15.880  21.123  0.00  0.00    +0.000 A 
ATOM     16  C   UNL     1      -1.902  16.618  20.403  0.00  0.00    +0.000 A 
BRANCH   7  18
ATOM     17  C   UNL     1      -0.472  17.400  17.857  0.00  0.00    +0.000 C 
ATOM     18  O   UNL     1       0.003  16.794  19.058  0.00  0.00    +0.000 OA
ENDBRANCH   7  18
ENDBRANCH   1   9
BRANCH   4  19
ATOM     19  C   UNL     1       1.154   9.728  19.661  0.00  0.00    +0.000 C 
ATOM     20  C   UNL     1       1.852   9.570  18.299  0.00  0.00    +0.000 C 
ATOM     21  C   UNL     1       1.856   8.139  17.778  0.00  0.00    +0.000 C 
ATOM     22  N   UNL     1       2.421   7.234  18.790  0.00  0.00    +0.000 N 
ATOM     23  C   UNL     1       1.890   7.315  20.154  0.00  0.00    +0.000 C 
ATOM     24  C   UNL     1       1.851   8.762  20.642  0.00  0.00    +0.000 C 
BRANCH  22  25
ATOM     25  C   UNL     1       2.796   5.952  18.311  0.00  0.00    +0.000 A 
ATOM     26  C   UNL     1       1.846   4.929  18.515  0.00  0.00    +0.000 A 
ATOM     27  C   UNL     1       2.018   3.676  17.954  0.00  0.00    +0.000 A 
ATOM     28  F   UNL     1       1.072   2.741  18.134  0.00  0.00    +0.000 F 
ATOM     29  C   UNL     1       3.118   3.397  17.173  0.00  0.00    +0.000 A 
ATOM     30  C   UNL     1       4.105   4.373  16.982  0.00  0.00    +0.000 A 
ATOM     31  C   UNL     1       5.214   4.071  16.187  0.00  0.00    +0.000 A 
ATOM     32  C   UNL     1       6.217   5.015  16.000  0.00  0.00    +0.000 A 
ATOM     33  C   UNL     1       6.069   6.228  16.629  0.00  0.00    +0.000 A 
ATOM     34  N   UNL     1       4.993   6.560  17.385  0.00  0.00    +0.000 NA
ATOM     35  C   UNL     1       3.987   5.663  17.566  0.00  0.00    +0.000 A 
ENDBRANCH  22  25
ENDBRANCH   4  19
TORSDOF 4
ENDMDL
MODEL 7
REMARK VINA RESULT:      -8.7      3.991      6.766
REMARK  Name = 
REMARK  5 active torsions:
REMARK  status: ('A' for Active; 'I' for Inactive)
REMARK    1  A    between atoms: C_1  and  O_2
REMARK    2  A    between atoms: O_2  and  C_3
REMARK    3  A    between atoms: C_5  and  N_6
REMARK    4  A    between atoms: N_9  and  C_10
REMARK    5  A    between atoms: N_13  and  C_14
REMARK                            x       y       z     vdW  Elec       q    Type
REMARK                         _______ _______ _______ _____ _____    ______ ____
ROOT
ATOM      1  N   UNL     1       2.706   7.349  18.756  0.00  0.00    +0.000 N 
ATOM      2  C   UNL     1       2.287   7.403  20.170  0.00  0.00    +0.000 C 
ATOM      3  C   UNL     1       2.029   8.855  20.652  0.00  0.00    +0.000 C 
ATOM      4  N   UNL     1       1.196   9.685  19.761  0.00  0.00    +0.000 NA
ATOM      5  C   UNL     1       1.784   9.652  18.419  0.00  0.00    +0.000 C 
ATOM      6  C   UNL     1       1.995   8.250  17.819  0.00  0.00    +0.000 C 
ENDROOT
BRANCH   1   9
ATOM      7  C   UNL     1       2.008   3.848  17.821  0.00  0.00    +0.000 A 
ATOM      8  C   UNL     1       1.947   5.125  18.356  0.00  0.00    +0.000 A 
ATOM      9  C   UNL     1       2.978   6.074  18.181  0.00  0.00    +0.000 A 
ATOM     10  C   UNL     1       4.148   5.704  17.454  0.00  0.00    +0.000 A 
ATOM     11  N   UNL     1       5.225   6.520  17.296  0.00  0.00    +0.000 NA
ATOM     12  C   UNL     1       6.301   6.093  16.597  0.00  0.00    +0.000 A 
ATOM     13  C   UNL     1       6.382   4.860  15.992  0.00  0.00    +0.000 A 
ATOM     14  C   UNL     1       5.303   4.005  16.145  0.00  0.00    +0.000 A 
ATOM     15  C   UNL     1       4.183   4.401  16.892  0.00  0.00    +0.000 A 
ATOM     16  C   UNL     1       3.122   3.498  17.075  0.00  0.00    +0.000 A 
BRANCH   7  18
ATOM     17  C   UNL     1       0.711   2.514  19.287  0.00  0.00    +0.000 C 
ATOM     18  O   UNL     1       1.040   2.892  17.951  0.00  0.00    +0.000 OA
ENDBRANCH   7  18
ENDBRANCH   1   9
BRANCH   4  19
ATOM     19  C   UNL     1      -0.270   9.588  19.926  0.00  0.00    +0.000 C 
ATOM     20  C   UNL     1      -1.179  10.714  19.401  0.00  0.00    +0.000 C 
ATOM     21  C   UNL     1      -1.255  11.918  20.330  0.00  0.00    +0.000 C 
ATOM     22  N   UNL     1      -1.642  11.490  21.683  0.00  0.00    +0.000 N 
ATOM     23  C   UNL     1      -0.898  10.381  22.289  0.00  0.00    +0.000 C 
ATOM     24  C   UNL     1      -0.792   9.201  21.326  0.00  0.00    +0.000 C 
BRANCH  22  25
ATOM     25  C   UNL     1      -2.080  12.530  22.544  0.00  0.00    +0.000 A 
ATOM     26  C   UNL     1      -3.260  12.257  23.268  0.00  0.00    +0.000 A 
ATOM     27  C   UNL     1      -3.702  13.116  24.258  0.00  0.00    +0.000 A 
ATOM     28  F   UNL     1      -4.804  12.803  24.956  0.00  0.00    +0.000 F 
ATOM     29  C   UNL     1      -2.996  14.259  24.568  0.00  0.00    +0.000 A 
ATOM     30  C   UNL     1      -1.843  14.586  23.843  0.00  0.00    +0.000 A 
ATOM     31  C   UNL     1      -1.141  15.748  24.171  0.00  0.00    +0.000 A 
ATOM     32  C   UNL     1      -0.006  16.106  23.453  0.00  0.00    +0.000 A 
ATOM     33  C   UNL     1       0.374  15.281  22.420  0.00  0.00    +0.000 A 
ATOM     34  N   UNL     1      -0.270  14.134  22.094  0.00  0.00    +0.000 NA
ATOM     35  C   UNL     1      -1.371  13.750  22.796  0.00  0.00    +0.000 A 
ENDBRANCH  22  25
ENDBRANCH   4  19
TORSDOF 4
ENDMDL
MODEL 8
REMARK VINA RESULT:      -8.5      5.269     10.531
REMARK  Name = 
REMARK  5 active torsions:
REMARK  status: ('A' for Active; 'I' for Inactive)
REMARK    1  A    between atoms: C_1  and  O_2
REMARK    2  A    between atoms: O_2  and  C_3
REMARK    3  A    between atoms: C_5  and  N_6
REMARK    4  A    between atoms: N_9  and  C_10
REMARK    5  A    between atoms: N_13  and  C_14
REMARK                            x       y       z     vdW  Elec       q    Type
REMARK                         _______ _______ _______ _____ _____    ______ ____
ROOT
ATOM      1  N   UNL     1       0.149  14.056  19.894  0.00  0.00    +0.000 N 
ATOM      2  C   UNL     1       0.371  13.470  18.558  0.00  0.00    +0.000 C 
ATOM      3  C   UNL     1       1.512  12.420  18.558  0.00  0.00    +0.000 C 
ATOM      4  N   UNL     1       1.456  11.415  19.637  0.00  0.00    +0.000 NA
ATOM      5  C   UNL     1       1.363  12.122  20.918  0.00  0.00    +0.000 C 
ATOM      6  C   UNL     1       0.200  13.123  21.043  0.00  0.00    +0.000 C 
ENDROOT
BRANCH   1   9
ATOM      7  C   UNL     1      -2.836  15.628  21.389  0.00  0.00    +0.000 A 
ATOM      8  C   UNL     1      -1.804  14.762  21.065  0.00  0.00    +0.000 A 
ATOM      9  C   UNL     1      -0.873  15.038  20.039  0.00  0.00    +0.000 A 
ATOM     10  C   UNL     1      -1.011  16.237  19.279  0.00  0.00    +0.000 A 
ATOM     11  N   UNL     1      -0.213  16.555  18.224  0.00  0.00    +0.000 NA
ATOM     12  C   UNL     1      -0.411  17.709  17.549  0.00  0.00    +0.000 A 
ATOM     13  C   UNL     1      -1.380  18.631  17.874  0.00  0.00    +0.000 A 
ATOM     14  C   UNL     1      -2.213  18.328  18.938  0.00  0.00    +0.000 A 
ATOM     15  C   UNL     1      -2.059  17.124  19.641  0.00  0.00    +0.000 A 
ATOM     16  C   UNL     1      -2.948  16.816  20.685  0.00  0.00    +0.000 A 
BRANCH   7  18
ATOM     17  C   UNL     1      -3.261  14.876  23.596  0.00  0.00    +0.000 C 
ATOM     18  O   UNL     1      -3.761  15.417  22.374  0.00  0.00    +0.000 OA
ENDBRANCH   7  18
ENDBRANCH   1   9
BRANCH   4  19
ATOM     19  C   UNL     1       0.629  10.214  19.395  0.00  0.00    +0.000 C 
ATOM     20  C   UNL     1       0.587   9.087  20.443  0.00  0.00    +0.000 C 
ATOM     21  C   UNL     1       1.786   8.151  20.379  0.00  0.00    +0.000 C 
ATOM     22  N   UNL     1       1.944   7.624  19.016  0.00  0.00    +0.000 N 
ATOM     23  C   UNL     1       1.942   8.582  17.907  0.00  0.00    +0.000 C 
ATOM     24  C   UNL     1       0.760   9.542  18.013  0.00  0.00    +0.000 C 
BRANCH  22  25
ATOM     25  C   UNL     1       2.794   6.492  18.901  0.00  0.00    +0.000 A 
ATOM     26  C   UNL     1       3.967   6.694  18.143  0.00  0.00    +0.000 A 
ATOM     27  C   UNL     1       4.954   5.726  18.089  0.00  0.00    +0.000 A 
ATOM     28  F   UNL     1       6.076   5.970  17.394  0.00  0.00    +0.000 F 
ATOM     29  C   UNL     1       4.821   4.542  18.782  0.00  0.00    +0.000 A 
ATOM     30  C   UNL     1       3.652   4.288  19.511  0.00  0.00    +0.000 A 
ATOM     31  C   UNL     1       3.535   3.082  20.207  0.00  0.00    +0.000 A 
ATOM     32  C   UNL     1       2.377   2.796  20.920  0.00  0.00    +0.000 A 
ATOM     33  C   UNL     1       1.373   3.735  20.898  0.00  0.00    +0.000 A 
ATOM     34  N   UNL     1       1.467   4.925  20.255  0.00  0.00    +0.000 NA
ATOM     35  C   UNL     1       2.598   5.239  19.568  0.00  0.00    +0.000 A 
ENDBRANCH  22  25
ENDBRANCH   4  19
TORSDOF 4
ENDMDL
MODEL 9
REMARK VINA RESULT:      -8.5      4.294      7.154
REMARK  Name = 
REMARK  5 active torsions:
REMARK  status: ('A' for Active; 'I' for Inactive)
REMARK    1  A    between atoms: C_1  and  O_2
REMARK    2  A    between atoms: O_2  and  C_3
REMARK    3  A    between atoms: C_5  and  N_6
REMARK    4  A    between atoms: N_9  and  C_10
REMARK    5  A    between atoms: N_13  and  C_14
REMARK                            x       y       z     vdW  Elec       q    Type
REMARK                         _______ _______ _______ _____ _____    ______ ____
ROOT
ATOM      1  N   UNL     1       2.466   7.500  19.008  0.00  0.00    +0.000 N 
ATOM      2  C   UNL     1       1.999   7.741  20.387  0.00  0.00    +0.000 C 
ATOM      3  C   UNL     1       1.773   9.248  20.677  0.00  0.00    +0.000 C 
ATOM      4  N   UNL     1       1.002   9.986  19.658  0.00  0.00    +0.000 NA
ATOM      5  C   UNL     1       1.637   9.770  18.355  0.00  0.00    +0.000 C 
ATOM      6  C   UNL     1       1.820   8.298  17.941  0.00  0.00    +0.000 C 
ENDROOT
BRANCH   1   9
ATOM      7  C   UNL     1       1.981   3.842  18.967  0.00  0.00    +0.000 A 
ATOM      8  C   UNL     1       1.919   5.194  19.265  0.00  0.00    +0.000 A 
ATOM      9  C   UNL     1       2.715   6.156  18.605  0.00  0.00    +0.000 A 
ATOM     10  C   UNL     1       3.646   5.726  17.614  0.00  0.00    +0.000 A 
ATOM     11  N   UNL     1       4.509   6.564  16.978  0.00  0.00    +0.000 NA
ATOM     12  C   UNL     1       5.367   6.079  16.054  0.00  0.00    +0.000 A 
ATOM     13  C   UNL     1       5.421   4.757  15.677  0.00  0.00    +0.000 A 
ATOM     14  C   UNL     1       4.561   3.879  16.316  0.00  0.00    +0.000 A 
ATOM     15  C   UNL     1       3.679   4.341  17.305  0.00  0.00    +0.000 A 
ATOM     16  C   UNL     1       2.851   3.424  17.974  0.00  0.00    +0.000 A 
BRANCH   7  18
ATOM     17  C   UNL     1       1.256   2.849  20.993  0.00  0.00    +0.000 C 
ATOM     18  O   UNL     1       1.231   2.868  19.567  0.00  0.00    +0.000 OA
ENDBRANCH   7  18
ENDBRANCH   1   9
BRANCH   4  19
ATOM     19  C   UNL     1      -0.471   9.953  19.776  0.00  0.00    +0.000 C 
ATOM     20  C   UNL     1      -1.327  10.962  18.989  0.00  0.00    +0.000 C 
ATOM     21  C   UNL     1      -1.406  12.335  19.643  0.00  0.00    +0.000 C 
ATOM     22  N   UNL     1      -1.857  12.206  21.036  0.00  0.00    +0.000 N 
ATOM     23  C   UNL     1      -1.168  11.235  21.892  0.00  0.00    +0.000 C 
ATOM     24  C   UNL     1      -1.057   9.877  21.201  0.00  0.00    +0.000 C 
BRANCH  22  25
ATOM     25  C   UNL     1      -2.299  13.412  21.642  0.00  0.00    +0.000 A 
ATOM     26  C   UNL     1      -1.405  14.499  21.545  0.00  0.00    +0.000 A 
ATOM     27  C   UNL     1      -1.783  15.768  21.948  0.00  0.00    +0.000 A 
ATOM     28  F   UNL     1      -0.922  16.787  21.801  0.00  0.00    +0.000 F 
ATOM     29  C   UNL     1      -3.045  16.004  22.449  0.00  0.00    +0.000 A 
ATOM     30  C   UNL     1      -3.946  14.942  22.600  0.00  0.00    +0.000 A 
ATOM     31  C   UNL     1      -5.221  15.200  23.109  0.00  0.00    +0.000 A 
ATOM     32  C   UNL     1      -6.125  14.161  23.290  0.00  0.00    +0.000 A 
ATOM     33  C   UNL     1      -5.707  12.894  22.958  0.00  0.00    +0.000 A 
ATOM     34  N   UNL     1      -4.487  12.614  22.437  0.00  0.00    +0.000 NA
ATOM     35  C   UNL     1      -3.590  13.617  22.230  0.00  0.00    +0.000 A 
ENDBRANCH  22  25
ENDBRANCH   4  19
TORSDOF 4
ENDMDL
