MODEL 1
REMARK VINA RESULT:      -6.6      0.000      0.000
REMARK  Name = 
REMARK  11 active torsions:
REMARK  status: ('A' for Active; 'I' for Inactive)
REMARK    1  A    between atoms: C_1  and  C_2
REMARK    2  A    between atoms: C_2  and  N_3
REMARK    3  A    between atoms: N_3  and  C_4
REMARK    4  A    between atoms: N_3  and  S_21
REMARK    5  A    between atoms: C_7  and  C_8
REMARK    6  A    between atoms: N_10  and  C_11
REMARK    7  A    between atoms: C_11  and  C_12
REMARK    8  A    between atoms: C_12  and  C_13
REMARK    9  A    between atoms: C_13  and  N_14
REMARK   10  A    between atoms: S_21  and  C_24
REMARK   11  A    between atoms: C_24  and  C_25
REMARK                            x       y       z     vdW  Elec       q    Type
REMARK                         _______ _______ _______ _____ _____    ______ ____
ROOT
ATOM      1  C   UNL     1       0.892   9.716  19.228  0.00  0.00    +0.000 A 
ATOM      2  C   UNL     1       1.089   8.806  20.262  0.00  0.00    +0.000 A 
ATOM      3  C   UNL     1       1.895   7.675  20.070  0.00  0.00    +0.000 A 
ATOM      4  C   UNL     1       2.523   7.439  18.837  0.00  0.00    +0.000 A 
ATOM      5  C   UNL     1       2.354   8.381  17.811  0.00  0.00    +0.000 A 
ATOM      6  C   UNL     1       1.546   9.521  18.009  0.00  0.00    +0.000 A 
ENDROOT
BRANCH   4   7
ATOM      7  C   UNL     1       3.344   6.184  18.709  0.00  0.00    +0.000 C 
ATOM      8  O   UNL     1       3.965   5.754  19.674  0.00  0.00    +0.000 OA
ATOM      9  N   UNL     1       3.343   5.537  17.489  0.00  0.00    +0.000 N 
ATOM     10  H   UNL     1       2.718   5.834  16.755  0.00  0.00    +0.000 HD
BRANCH   9  11
ATOM     11  C   UNL     1       4.069   4.292  17.288  0.00  0.00    +0.000 C 
BRANCH  11  12
ATOM     12  C   UNL     1       3.156   3.082  17.491  0.00  0.00    +0.000 C 
BRANCH  12  13
ATOM     13  C   UNL     1       3.406   2.405  18.845  0.00  0.00    +0.000 C 
BRANCH  13  14
ATOM     14  N   UNL     1       2.168   2.022  19.549  0.00  0.00    +0.000 NA
ATOM     15  C   UNL     1       0.970   2.777  19.154  0.00  0.00    +0.000 C 
ATOM     16  C   UNL     1       0.961   4.017  20.025  0.00  0.00    +0.000 C 
ATOM     17  C   UNL     1       1.542   3.534  21.339  0.00  0.00    +0.000 C 
ATOM     18  C   UNL     1       2.298   2.252  21.002  0.00  0.00    +0.000 C 
ENDBRANCH  13  14
ENDBRANCH  12  13
ENDBRANCH  11  12
ENDBRANCH   9  11
ENDBRANCH   4   7
BRANCH   1  19
ATOM     19  N   UNL     1       0.021  10.836  19.470  0.00  0.00    +0.000 N 
BRANCH  19  20
ATOM     20  S   UNL     1       0.643  12.097  20.440  0.00  0.00    +0.000 S 
ATOM     21  O   UNL     1       0.459  11.767  21.837  0.00  0.00    +0.000 OA
ATOM     22  O   UNL     1       1.948  12.454  19.915  0.00  0.00    +0.000 OA
BRANCH  20  23
ATOM     23  C   UNL     1      -0.515  13.409  20.043  0.00  0.00    +0.000 C 
ATOM     24  C   UNL     1      -0.222  14.681  20.816  0.00  0.00    +0.000 C 
ENDBRANCH  20  23
ENDBRANCH  19  20
BRANCH  19  26
ATOM     25  C   UNL     1      -2.025  10.189  18.248  0.00  0.00    +0.000 C 
ATOM     26  C   UNL     1      -0.928  11.232  18.400  0.00  0.00    +0.000 C 
ENDBRANCH  19  26
ENDBRANCH   1  19
TORSDOF 9
ENDMDL
MODEL 2
REMARK VINA RESULT:      -6.5      1.045      1.497
REMARK  Name = 
REMARK  11 active torsions:
REMARK  status: ('A' for Active; 'I' for Inactive)
REMARK    1  A    between atoms: C_1  and  C_2
REMARK    2  A    between atoms: C_2  and  N_3
REMARK    3  A    between atoms: N_3  and  C_4
REMARK    4  A    between atoms: N_3  and  S_21
REMARK    5  A    between atoms: C_7  and  C_8
REMARK    6  A    between atoms: N_10  and  C_11
REMARK    7  A    between atoms: C_11  and  C_12
REMARK    8  A    between atoms: C_12  and  C_13
REMARK    9  A    between atoms: C_13  and  N_14
REMARK   10  A    between atoms: S_21  and  C_24
REMARK   11  A    between atoms: C_24  and  C_25
REMARK                            x       y       z     vdW  Elec       q    Type
REMARK                         _______ _______ _______ _____ _____    ______ ____
ROOT
ATOM      1  C   UNL     1       0.964   9.470  19.233  0.00  0.00    +0.000 A 
ATOM      2  C   UNL     1       1.613   9.274  18.017  0.00  0.00    +0.000 A 
ATOM      3  C   UNL     1       2.490   8.194  17.846  0.00  0.00    +0.000 A 
ATOM      4  C   UNL     1       2.728   7.286  18.890  0.00  0.00    +0.000 A 
ATOM      5  C   UNL     1       2.039   7.466  20.099  0.00  0.00    +0.000 A 
ATOM      6  C   UNL     1       1.154   8.551  20.268  0.00  0.00    +0.000 A 
ENDROOT
BRANCH   4   7
ATOM      7  C   UNL     1       3.709   6.174  18.629  0.00  0.00    +0.000 C 
ATOM      8  O   UNL     1       4.488   5.823  19.507  0.00  0.00    +0.000 OA
ATOM      9  N   UNL     1       3.671   5.562  17.391  0.00  0.00    +0.000 N 
ATOM     10  H   UNL     1       2.933   5.777  16.738  0.00  0.00    +0.000 HD
BRANCH   9  11
ATOM     11  C   UNL     1       4.549   4.448  17.068  0.00  0.00    +0.000 C 
BRANCH  11  12
ATOM     12  C   UNL     1       3.862   3.109  17.339  0.00  0.00    +0.000 C 
BRANCH  12  13
ATOM     13  C   UNL     1       2.372   3.291  17.655  0.00  0.00    +0.000 C 
BRANCH  13  14
ATOM     14  N   UNL     1       1.912   2.489  18.805  0.00  0.00    +0.000 NA
ATOM     15  C   UNL     1       0.626   2.909  19.380  0.00  0.00    +0.000 C 
ATOM     16  C   UNL     1       0.960   3.984  20.393  0.00  0.00    +0.000 C 
ATOM     17  C   UNL     1       2.295   3.541  20.957  0.00  0.00    +0.000 C 
ATOM     18  C   UNL     1       2.873   2.579  19.923  0.00  0.00    +0.000 C 
ENDBRANCH  13  14
ENDBRANCH  12  13
ENDBRANCH  11  12
ENDBRANCH   9  11
ENDBRANCH   4   7
BRANCH   1  19
ATOM     19  N   UNL     1       0.108  10.620  19.365  0.00  0.00    +0.000 N 
BRANCH  19  20
ATOM     20  S   UNL     1       0.701  11.912  20.312  0.00  0.00    +0.000 S 
ATOM     21  O   UNL     1      -0.326  12.923  20.447  0.00  0.00    +0.000 OA
ATOM     22  O   UNL     1       1.356  11.343  21.474  0.00  0.00    +0.000 OA
BRANCH  20  23
ATOM     23  C   UNL     1       1.957  12.569  19.209  0.00  0.00    +0.000 C 
ATOM     24  C   UNL     1       1.544  13.897  18.603  0.00  0.00    +0.000 C 
ENDBRANCH  20  23
ENDBRANCH  19  20
BRANCH  19  26
ATOM     25  C   UNL     1      -1.981  10.077  18.166  0.00  0.00    +0.000 C 
ATOM     26  C   UNL     1      -0.761  10.985  18.220  0.00  0.00    +0.000 C 
ENDBRANCH  19  26
ENDBRANCH   1  19
TORSDOF 9
ENDMDL
MODEL 3
REMARK VINA RESULT:      -6.4      2.784      8.226
REMARK  Name = 
REMARK  11 active torsions:
REMARK  status: ('A' for Active; 'I' for Inactive)
REMARK    1  A    between atoms: C_1  and  C_2
REMARK    2  A    between atoms: C_2  and  N_3
REMARK    3  A    between atoms: N_3  and  C_4
REMARK    4  A    between atoms: N_3  and  S_21
REMARK    5  A    between atoms: C_7  and  C_8
REMARK    6  A    between atoms: N_10  and  C_11
REMARK    7  A    between atoms: C_11  and  C_12
REMARK    8  A    between atoms: C_12  and  C_13
REMARK    9  A    between atoms: C_13  and  N_14
REMARK   10  A    between atoms: S_21  and  C_24
REMARK   11  A    between atoms: C_24  and  C_25
REMARK                            x       y       z     vdW  Elec       q    Type
REMARK                         _______ _______ _______ _____ _____    ______ ____
ROOT
ATOM      1  C   UNL     1       3.000   5.671  18.964  0.00  0.00    +0.000 A 
ATOM      2  C   UNL     1       3.097   6.463  17.824  0.00  0.00    +0.000 A 
ATOM      3  C   UNL     1       2.588   7.769  17.820  0.00  0.00    +0.000 A 
ATOM      4  C   UNL     1       1.976   8.308  18.963  0.00  0.00    +0.000 A 
ATOM      5  C   UNL     1       1.919   7.519  20.122  0.00  0.00    +0.000 A 
ATOM      6  C   UNL     1       2.436   6.207  20.125  0.00  0.00    +0.000 A 
ENDROOT
BRANCH   4   7
ATOM      7  C   UNL     1       1.429   9.706  18.859  0.00  0.00    +0.000 C 
ATOM      8  O   UNL     1       1.460  10.301  17.788  0.00  0.00    +0.000 OA
ATOM      9  N   UNL     1       0.878  10.265  19.995  0.00  0.00    +0.000 N 
ATOM     10  H   UNL     1       0.742   9.707  20.824  0.00  0.00    +0.000 HD
BRANCH   9  11
ATOM     11  C   UNL     1       0.283  11.593  19.975  0.00  0.00    +0.000 C 
BRANCH  11  12
ATOM     12  C   UNL     1      -1.241  11.513  19.875  0.00  0.00    +0.000 C 
BRANCH  12  13
ATOM     13  C   UNL     1      -1.721  11.654  18.425  0.00  0.00    +0.000 C 
BRANCH  13  14
ATOM     14  N   UNL     1      -2.581  10.541  17.979  0.00  0.00    +0.000 NA
ATOM     15  C   UNL     1      -2.247   9.989  16.658  0.00  0.00    +0.000 C 
ATOM     16  C   UNL     1      -3.002  10.839  15.656  0.00  0.00    +0.000 C 
ATOM     17  C   UNL     1      -4.286  11.190  16.381  0.00  0.00    +0.000 C 
ATOM     18  C   UNL     1      -3.986  10.979  17.862  0.00  0.00    +0.000 C 
ENDBRANCH  13  14
ENDBRANCH  12  13
ENDBRANCH  11  12
ENDBRANCH   9  11
ENDBRANCH   4   7
BRANCH   1  19
ATOM     19  N   UNL     1       3.502   4.324  18.897  0.00  0.00    +0.000 N 
BRANCH  19  20
ATOM     20  S   UNL     1       2.393   3.115  18.418  0.00  0.00    +0.000 S 
ATOM     21  O   UNL     1       1.896   3.414  17.092  0.00  0.00    +0.000 OA
ATOM     22  O   UNL     1       2.983   1.827  18.731  0.00  0.00    +0.000 OA
BRANCH  20  23
ATOM     23  C   UNL     1       1.056   3.431  19.574  0.00  0.00    +0.000 C 
ATOM     24  C   UNL     1       1.320   2.810  20.933  0.00  0.00    +0.000 C 
ENDBRANCH  20  23
ENDBRANCH  19  20
BRANCH  19  26
ATOM     25  C   UNL     1       5.830   5.052  19.278  0.00  0.00    +0.000 C 
ATOM     26  C   UNL     1       4.916   4.119  18.498  0.00  0.00    +0.000 C 
ENDBRANCH  19  26
ENDBRANCH   1  19
TORSDOF 9
ENDMDL
MODEL 4
REMARK VINA RESULT:      -6.4      1.980      3.714
REMARK  Name = 
REMARK  11 active torsions:
REMARK  status: ('A' for Active; 'I' for Inactive)
REMARK    1  A    between atoms: C_1  and  C_2
REMARK    2  A    between atoms: C_2  and  N_3
REMARK    3  A    between atoms: N_3  and  C_4
REMARK    4  A    between atoms: N_3  and  S_21
REMARK    5  A    between atoms: C_7  and  C_8
REMARK    6  A    between atoms: N_10  and  C_11
REMARK    7  A    between atoms: C_11  and  C_12
REMARK    8  A    between atoms: C_12  and  C_13
REMARK    9  A    between atoms: C_13  and  N_14
REMARK   10  A    between atoms: S_21  and  C_24
REMARK   11  A    between atoms: C_24  and  C_25
REMARK                            x       y       z     vdW  Elec       q    Type
REMARK                         _______ _______ _______ _____ _____    ______ ____
ROOT
ATOM      1  C   UNL     1       1.311   9.888  18.882  0.00  0.00    +0.000 A 
ATOM      2  C   UNL     1       1.132   9.276  20.120  0.00  0.00    +0.000 A 
ATOM      3  C   UNL     1       1.514   7.942  20.315  0.00  0.00    +0.000 A 
ATOM      4  C   UNL     1       2.088   7.196  19.274  0.00  0.00    +0.000 A 
ATOM      5  C   UNL     1       2.305   7.831  18.041  0.00  0.00    +0.000 A 
ATOM      6  C   UNL     1       1.924   9.175  17.848  0.00  0.00    +0.000 A 
ENDROOT
BRANCH   4   7
ATOM      7  C   UNL     1       2.439   5.761  19.563  0.00  0.00    +0.000 C 
ATOM      8  O   UNL     1       2.781   5.427  20.691  0.00  0.00    +0.000 OA
ATOM      9  N   UNL     1       2.331   4.853  18.528  0.00  0.00    +0.000 N 
ATOM     10  H   UNL     1       1.918   5.127  17.649  0.00  0.00    +0.000 HD
BRANCH   9  11
ATOM     11  C   UNL     1       2.604   3.438  18.729  0.00  0.00    +0.000 C 
BRANCH  11  12
ATOM     12  C   UNL     1       3.918   3.030  18.061  0.00  0.00    +0.000 C 
BRANCH  12  13
ATOM     13  C   UNL     1       4.178   3.839  16.784  0.00  0.00    +0.000 C 
BRANCH  13  14
ATOM     14  N   UNL     1       5.007   5.039  17.007  0.00  0.00    +0.000 NA
ATOM     15  C   UNL     1       5.710   5.538  15.816  0.00  0.00    +0.000 C 
ATOM     16  C   UNL     1       7.016   4.772  15.758  0.00  0.00    +0.000 C 
ATOM     17  C   UNL     1       7.379   4.575  17.217  0.00  0.00    +0.000 C 
ATOM     18  C   UNL     1       6.075   4.763  17.988  0.00  0.00    +0.000 C 
ENDBRANCH  13  14
ENDBRANCH  12  13
ENDBRANCH  11  12
ENDBRANCH   9  11
ENDBRANCH   4   7
BRANCH   1  19
ATOM     19  N   UNL     1       0.862  11.246  18.727  0.00  0.00    +0.000 N 
BRANCH  19  20
ATOM     20  S   UNL     1      -0.828  11.497  18.705  0.00  0.00    +0.000 S 
ATOM     21  O   UNL     1      -1.358  11.338  20.043  0.00  0.00    +0.000 OA
ATOM     22  O   UNL     1      -1.085  12.695  17.929  0.00  0.00    +0.000 OA
BRANCH  20  23
ATOM     23  C   UNL     1      -1.352  10.069  17.750  0.00  0.00    +0.000 C 
ATOM     24  C   UNL     1      -2.370  10.437  16.687  0.00  0.00    +0.000 C 
ENDBRANCH  20  23
ENDBRANCH  19  20
BRANCH  19  26
ATOM     25  C   UNL     1       2.533  13.000  18.250  0.00  0.00    +0.000 C 
ATOM     26  C   UNL     1       1.683  12.330  19.320  0.00  0.00    +0.000 C 
ENDBRANCH  19  26
ENDBRANCH   1  19
TORSDOF 9
ENDMDL
MODEL 5
REMARK VINA RESULT:      -6.4      0.957      1.040
REMARK  Name = 
REMARK  11 active torsions:
REMARK  status: ('A' for Active; 'I' for Inactive)
REMARK    1  A    between atoms: C_1  and  C_2
REMARK    2  A    between atoms: C_2  and  N_3
REMARK    3  A    between atoms: N_3  and  C_4
REMARK    4  A    between atoms: N_3  and  S_21
REMARK    5  A    between atoms: C_7  and  C_8
REMARK    6  A    between atoms: N_10  and  C_11
REMARK    7  A    between atoms: C_11  and  C_12
REMARK    8  A    between atoms: C_12  and  C_13
REMARK    9  A    between atoms: C_13  and  N_14
REMARK   10  A    between atoms: S_21  and  C_24
REMARK   11  A    between atoms: C_24  and  C_25
REMARK                            x       y       z     vdW  Elec       q    Type
REMARK                         _______ _______ _______ _____ _____    ______ ____
ROOT
ATOM      1  C   UNL     1       1.050   9.378  19.120  0.00  0.00    +0.000 A 
ATOM      2  C   UNL     1       1.293   8.442  20.120  0.00  0.00    +0.000 A 
ATOM      3  C   UNL     1       2.189   7.385  19.904  0.00  0.00    +0.000 A 
ATOM      4  C   UNL     1       2.863   7.251  18.680  0.00  0.00    +0.000 A 
ATOM      5  C   UNL     1       2.646   8.222  17.690  0.00  0.00    +0.000 A 
ATOM      6  C   UNL     1       1.748   9.286  17.912  0.00  0.00    +0.000 A 
ENDROOT
BRANCH   4   7
ATOM      7  C   UNL     1       3.782   6.070  18.523  0.00  0.00    +0.000 C 
ATOM      8  O   UNL     1       4.548   5.762  19.429  0.00  0.00    +0.000 OA
ATOM      9  N   UNL     1       3.703   5.346  17.350  0.00  0.00    +0.000 N 
ATOM     10  H   UNL     1       2.973   5.537  16.681  0.00  0.00    +0.000 HD
BRANCH   9  11
ATOM     11  C   UNL     1       4.520   4.162  17.132  0.00  0.00    +0.000 C 
BRANCH  11  12
ATOM     12  C   UNL     1       4.059   3.004  18.018  0.00  0.00    +0.000 C 
BRANCH  12  13
ATOM     13  C   UNL     1       2.546   2.773  17.906  0.00  0.00    +0.000 C 
BRANCH  13  14
ATOM     14  N   UNL     1       1.937   2.250  19.144  0.00  0.00    +0.000 NA
ATOM     15  C   UNL     1       0.620   2.813  19.473  0.00  0.00    +0.000 C 
ATOM     16  C   UNL     1       0.899   4.075  20.264  0.00  0.00    +0.000 C 
ATOM     17  C   UNL     1       2.149   3.735  21.051  0.00  0.00    +0.000 C 
ATOM     18  C   UNL     1       2.784   2.558  20.314  0.00  0.00    +0.000 C 
ENDBRANCH  13  14
ENDBRANCH  12  13
ENDBRANCH  11  12
ENDBRANCH   9  11
ENDBRANCH   4   7
BRANCH   1  19
ATOM     19  N   UNL     1       0.089  10.416  19.383  0.00  0.00    +0.000 N 
BRANCH  19  20
ATOM     20  S   UNL     1       0.520  11.580  20.557  0.00  0.00    +0.000 S 
ATOM     21  O   UNL     1      -0.606  12.456  20.804  0.00  0.00    +0.000 OA
ATOM     22  O   UNL     1       1.187  10.886  21.642  0.00  0.00    +0.000 OA
BRANCH  20  23
ATOM     23  C   UNL     1       1.742  12.524  19.640  0.00  0.00    +0.000 C 
ATOM     24  C   UNL     1       1.265  13.933  19.341  0.00  0.00    +0.000 C 
ENDBRANCH  20  23
ENDBRANCH  19  20
BRANCH  19  26
ATOM     25  C   UNL     1      -2.079  10.137  18.235  0.00  0.00    +0.000 C 
ATOM     26  C   UNL     1      -0.758  10.891  18.261  0.00  0.00    +0.000 C 
ENDBRANCH  19  26
ENDBRANCH   1  19
TORSDOF 9
ENDMDL
MODEL 6
REMARK VINA RESULT:      -6.3      1.599      2.054
REMARK  Name = 
REMARK  11 active torsions:
REMARK  status: ('A' for Active; 'I' for Inactive)
REMARK    1  A    between atoms: C_1  and  C_2
REMARK    2  A    between atoms: C_2  and  N_3
REMARK    3  A    between atoms: N_3  and  C_4
REMARK    4  A    between atoms: N_3  and  S_21
REMARK    5  A    between atoms: C_7  and  C_8
REMARK    6  A    between atoms: N_10  and  C_11
REMARK    7  A    between atoms: C_11  and  C_12
REMARK    8  A    between atoms: C_12  and  C_13
REMARK    9  A    between atoms: C_13  and  N_14
REMARK   10  A    between atoms: S_21  and  C_24
REMARK   11  A    between atoms: C_24  and  C_25
REMARK                            x       y       z     vdW  Elec       q    Type
REMARK                         _______ _______ _______ _____ _____    ______ ____
ROOT
ATOM      1  C   UNL     1       1.068   9.188  19.908  0.00  0.00    +0.000 A 
ATOM      2  C   UNL     1       1.619   8.031  20.450  0.00  0.00    +0.000 A 
ATOM      3  C   UNL     1       2.429   7.196  19.669  0.00  0.00    +0.000 A 
ATOM      4  C   UNL     1       2.705   7.508  18.328  0.00  0.00    +0.000 A 
ATOM      5  C   UNL     1       2.180   8.697  17.799  0.00  0.00    +0.000 A 
ATOM      6  C   UNL     1       1.369   9.538  18.589  0.00  0.00    +0.000 A 
ENDROOT
BRANCH   4   7
ATOM      7  C   UNL     1       3.557   6.538  17.554  0.00  0.00    +0.000 C 
ATOM      8  O   UNL     1       4.506   6.945  16.893  0.00  0.00    +0.000 OA
ATOM      9  N   UNL     1       3.246   5.196  17.644  0.00  0.00    +0.000 N 
ATOM     10  H   UNL     1       2.549   4.876  18.300  0.00  0.00    +0.000 HD
BRANCH   9  11
ATOM     11  C   UNL     1       4.044   4.184  16.968  0.00  0.00    +0.000 C 
BRANCH  11  12
ATOM     12  C   UNL     1       3.937   2.833  17.676  0.00  0.00    +0.000 C 
BRANCH  12  13
ATOM     13  C   UNL     1       3.987   2.989  19.202  0.00  0.00    +0.000 C 
BRANCH  13  14
ATOM     14  N   UNL     1       2.971   2.186  19.909  0.00  0.00    +0.000 NA
ATOM     15  C   UNL     1       1.671   2.094  19.231  0.00  0.00    +0.000 C 
ATOM     16  C   UNL     1       0.883   3.305  19.687  0.00  0.00    +0.000 C 
ATOM     17  C   UNL     1       1.336   3.507  21.119  0.00  0.00    +0.000 C 
ATOM     18  C   UNL     1       2.669   2.770  21.231  0.00  0.00    +0.000 C 
ENDBRANCH  13  14
ENDBRANCH  12  13
ENDBRANCH  11  12
ENDBRANCH   9  11
ENDBRANCH   4   7
BRANCH   1  19
ATOM     19  N   UNL     1       0.210   9.985  20.745  0.00  0.00    +0.000 N 
BRANCH  19  20
ATOM     20  S   UNL     1      -0.556  11.322  20.006  0.00  0.00    +0.000 S 
ATOM     21  O   UNL     1       0.446  12.257  19.541  0.00  0.00    +0.000 OA
ATOM     22  O   UNL     1      -1.578  10.806  19.114  0.00  0.00    +0.000 OA
BRANCH  20  23
ATOM     23  C   UNL     1      -1.358  12.061  21.432  0.00  0.00    +0.000 C 
ATOM     24  C   UNL     1      -2.770  12.516  21.119  0.00  0.00    +0.000 C 
ENDBRANCH  20  23
ENDBRANCH  19  20
BRANCH  19  26
ATOM     25  C   UNL     1       0.145   9.514  23.168  0.00  0.00    +0.000 C 
ATOM     26  C   UNL     1      -0.544   9.307  21.828  0.00  0.00    +0.000 C 
ENDBRANCH  19  26
ENDBRANCH   1  19
TORSDOF 9
ENDMDL
MODEL 7
REMARK VINA RESULT:      -6.2      2.544      8.098
REMARK  Name = 
REMARK  11 active torsions:
REMARK  status: ('A' for Active; 'I' for Inactive)
REMARK    1  A    between atoms: C_1  and  C_2
REMARK    2  A    between atoms: C_2  and  N_3
REMARK    3  A    between atoms: N_3  and  C_4
REMARK    4  A    between atoms: N_3  and  S_21
REMARK    5  A    between atoms: C_7  and  C_8
REMARK    6  A    between atoms: N_10  and  C_11
REMARK    7  A    between atoms: C_11  and  C_12
REMARK    8  A    between atoms: C_12  and  C_13
REMARK    9  A    between atoms: C_13  and  N_14
REMARK   10  A    between atoms: S_21  and  C_24
REMARK   11  A    between atoms: C_24  and  C_25
REMARK                            x       y       z     vdW  Elec       q    Type
REMARK                         _______ _______ _______ _____ _____    ______ ____
ROOT
ATOM      1  C   UNL     1       2.845   6.939  18.638  0.00  0.00    +0.000 A 
ATOM      2  C   UNL     1       2.449   8.065  17.922  0.00  0.00    +0.000 A 
ATOM      3  C   UNL     1       1.626   9.032  18.517  0.00  0.00    +0.000 A 
ATOM      4  C   UNL     1       1.188   8.889  19.843  0.00  0.00    +0.000 A 
ATOM      5  C   UNL     1       1.625   7.772  20.572  0.00  0.00    +0.000 A 
ATOM      6  C   UNL     1       2.457   6.803  19.973  0.00  0.00    +0.000 A 
ENDROOT
BRANCH   4   7
ATOM      7  C   UNL     1       0.282   9.958  20.391  0.00  0.00    +0.000 C 
ATOM      8  O   UNL     1      -0.485   9.702  21.313  0.00  0.00    +0.000 OA
ATOM      9  N   UNL     1       0.371  11.221  19.838  0.00  0.00    +0.000 N 
ATOM     10  H   UNL     1       1.102  11.438  19.178  0.00  0.00    +0.000 HD
BRANCH   9  11
ATOM     11  C   UNL     1      -0.433  12.326  20.337  0.00  0.00    +0.000 C 
BRANCH  11  12
ATOM     12  C   UNL     1      -1.062  13.113  19.186  0.00  0.00    +0.000 C 
BRANCH  12  13
ATOM     13  C   UNL     1      -1.236  12.243  17.934  0.00  0.00    +0.000 C 
BRANCH  13  14
ATOM     14  N   UNL     1      -2.145  11.098  18.135  0.00  0.00    +0.000 NA
ATOM     15  C   UNL     1      -1.890   9.943  17.263  0.00  0.00    +0.000 C 
ATOM     16  C   UNL     1      -2.669  10.208  15.991  0.00  0.00    +0.000 C 
ATOM     17  C   UNL     1      -3.908  10.935  16.476  0.00  0.00    +0.000 C 
ATOM     18  C   UNL     1      -3.543  11.484  17.853  0.00  0.00    +0.000 C 
ENDBRANCH  13  14
ENDBRANCH  12  13
ENDBRANCH  11  12
ENDBRANCH   9  11
ENDBRANCH   4   7
BRANCH   1  19
ATOM     19  N   UNL     1       3.655   5.959  17.963  0.00  0.00    +0.000 N 
BRANCH  19  20
ATOM     20  S   UNL     1       2.952   4.421  17.716  0.00  0.00    +0.000 S 
ATOM     21  O   UNL     1       1.513   4.555  17.637  0.00  0.00    +0.000 OA
ATOM     22  O   UNL     1       3.706   3.755  16.671  0.00  0.00    +0.000 OA
BRANCH  20  23
ATOM     23  C   UNL     1       3.332   3.639  19.287  0.00  0.00    +0.000 C 
ATOM     24  C   UNL     1       2.376   2.505  19.604  0.00  0.00    +0.000 C 
ENDBRANCH  20  23
ENDBRANCH  19  20
BRANCH  19  26
ATOM     25  C   UNL     1       6.012   6.518  17.488  0.00  0.00    +0.000 C 
ATOM     26  C   UNL     1       4.603   6.427  16.922  0.00  0.00    +0.000 C 
ENDBRANCH  19  26
ENDBRANCH   1  19
TORSDOF 9
ENDMDL
MODEL 8
REMARK VINA RESULT:      -6.2      2.671      8.516
REMARK  Name = 
REMARK  11 active torsions:
REMARK  status: ('A' for Active; 'I' for Inactive)
REMARK    1  A    between atoms: C_1  and  C_2
REMARK    2  A    between atoms: C_2  and  N_3
REMARK    3  A    between atoms: N_3  and  C_4
REMARK    4  A    between atoms: N_3  and  S_21
REMARK    5  A    between atoms: C_7  and  C_8
REMARK    6  A    between atoms: N_10  and  C_11
REMARK    7  A    between atoms: C_11  and  C_12
REMARK    8  A    between atoms: C_12  and  C_13
REMARK    9  A    between atoms: C_13  and  N_14
REMARK   10  A    between atoms: S_21  and  C_24
REMARK   11  A    between atoms: C_24  and  C_25
REMARK                            x       y       z     vdW  Elec       q    Type
REMARK                         _______ _______ _______ _____ _____    ______ ____
ROOT
ATOM      1  C   UNL     1       2.768   6.486  18.944  0.00  0.00    +0.000 A 
ATOM      2  C   UNL     1       2.231   6.516  20.228  0.00  0.00    +0.000 A 
ATOM      3  C   UNL     1       1.543   7.650  20.684  0.00  0.00    +0.000 A 
ATOM      4  C   UNL     1       1.377   8.773  19.859  0.00  0.00    +0.000 A 
ATOM      5  C   UNL     1       1.885   8.720  18.551  0.00  0.00    +0.000 A 
ATOM      6  C   UNL     1       2.572   7.577  18.093  0.00  0.00    +0.000 A 
ENDROOT
BRANCH   4   7
ATOM      7  C   UNL     1       0.654   9.958  20.441  0.00  0.00    +0.000 C 
ATOM      8  O   UNL     1       0.991  10.410  21.529  0.00  0.00    +0.000 OA
ATOM      9  N   UNL     1      -0.365  10.518  19.696  0.00  0.00    +0.000 N 
ATOM     10  H   UNL     1      -0.530  10.214  18.748  0.00  0.00    +0.000 HD
BRANCH   9  11
ATOM     11  C   UNL     1      -1.086  11.693  20.159  0.00  0.00    +0.000 C 
BRANCH  11  12
ATOM     12  C   UNL     1      -1.536  12.562  18.983  0.00  0.00    +0.000 C 
BRANCH  12  13
ATOM     13  C   UNL     1      -0.361  13.336  18.370  0.00  0.00    +0.000 C 
BRANCH  13  14
ATOM     14  N   UNL     1       0.845  13.345  19.219  0.00  0.00    +0.000 NA
ATOM     15  C   UNL     1       1.215  14.661  19.759  0.00  0.00    +0.000 C 
ATOM     16  C   UNL     1       2.081  15.311  18.699  0.00  0.00    +0.000 C 
ATOM     17  C   UNL     1       2.839  14.146  18.094  0.00  0.00    +0.000 C 
ATOM     18  C   UNL     1       2.028  12.904  18.453  0.00  0.00    +0.000 C 
ENDBRANCH  13  14
ENDBRANCH  12  13
ENDBRANCH  11  12
ENDBRANCH   9  11
ENDBRANCH   4   7
BRANCH   1  19
ATOM     19  N   UNL     1       3.500   5.313  18.545  0.00  0.00    +0.000 N 
BRANCH  19  20
ATOM     20  S   UNL     1       2.590   4.035  17.867  0.00  0.00    +0.000 S 
ATOM     21  O   UNL     1       1.294   4.530  17.455  0.00  0.00    +0.000 OA
ATOM     22  O   UNL     1       3.453   3.321  16.945  0.00  0.00    +0.000 OA
BRANCH  20  23
ATOM     23  C   UNL     1       2.335   3.015  19.323  0.00  0.00    +0.000 C 
ATOM     24  C   UNL     1       0.889   3.028  19.781  0.00  0.00    +0.000 C 
ENDBRANCH  20  23
ENDBRANCH  19  20
BRANCH  19  26
ATOM     25  C   UNL     1       5.896   5.226  19.133  0.00  0.00    +0.000 C 
ATOM     26  C   UNL     1       4.880   5.486  18.031  0.00  0.00    +0.000 C 
ENDBRANCH  19  26
ENDBRANCH   1  19
TORSDOF 9
ENDMDL
MODEL 9
REMARK VINA RESULT:      -6.2      0.984      1.438
REMARK  Name = 
REMARK  11 active torsions:
REMARK  status: ('A' for Active; 'I' for Inactive)
REMARK    1  A    between atoms: C_1  and  C_2
REMARK    2  A    between atoms: C_2  and  N_3
REMARK    3  A    between atoms: N_3  and  C_4
REMARK    4  A    between atoms: N_3  and  S_21
REMARK    5  A    between atoms: C_7  and  C_8
REMARK    6  A    between atoms: N_10  and  C_11
REMARK    7  A    between atoms: C_11  and  C_12
REMARK    8  A    between atoms: C_12  and  C_13
REMARK    9  A    between atoms: C_13  and  N_14
REMARK   10  A    between atoms: S_21  and  C_24
REMARK   11  A    between atoms: C_24  and  C_25
REMARK                            x       y       z     vdW  Elec       q    Type
REMARK                         _______ _______ _______ _____ _____    ______ ____
ROOT
ATOM      1  C   UNL     1       0.674   9.655  19.286  0.00  0.00    +0.000 A 
ATOM      2  C   UNL     1       1.305   9.442  18.064  0.00  0.00    +0.000 A 
ATOM      3  C   UNL     1       2.220   8.391  17.909  0.00  0.00    +0.000 A 
ATOM      4  C   UNL     1       2.515   7.530  18.977  0.00  0.00    +0.000 A 
ATOM      5  C   UNL     1       1.845   7.724  20.195  0.00  0.00    +0.000 A 
ATOM      6  C   UNL     1       0.921   8.779  20.347  0.00  0.00    +0.000 A 
ENDROOT
BRANCH   4   7
ATOM      7  C   UNL     1       3.532   6.448  18.732  0.00  0.00    +0.000 C 
ATOM      8  O   UNL     1       4.098   5.910  19.677  0.00  0.00    +0.000 OA
ATOM      9  N   UNL     1       3.773   6.077  17.423  0.00  0.00    +0.000 N 
ATOM     10  H   UNL     1       3.197   6.438  16.677  0.00  0.00    +0.000 HD
BRANCH   9  11
ATOM     11  C   UNL     1       4.704   5.009  17.096  0.00  0.00    +0.000 C 
BRANCH  11  12
ATOM     12  C   UNL     1       3.964   3.703  16.805  0.00  0.00    +0.000 C 
BRANCH  12  13
ATOM     13  C   UNL     1       3.627   2.944  18.095  0.00  0.00    +0.000 C 
BRANCH  13  14
ATOM     14  N   UNL     1       2.208   2.553  18.193  0.00  0.00    +0.000 NA
ATOM     15  C   UNL     1       1.258   3.673  18.254  0.00  0.00    +0.000 C 
ATOM     16  C   UNL     1       1.153   4.043  19.719  0.00  0.00    +0.000 C 
ATOM     17  C   UNL     1       1.293   2.714  20.434  0.00  0.00    +0.000 C 
ATOM     18  C   UNL     1       1.961   1.781  19.428  0.00  0.00    +0.000 C 
ENDBRANCH  13  14
ENDBRANCH  12  13
ENDBRANCH  11  12
ENDBRANCH   9  11
ENDBRANCH   4   7
BRANCH   1  19
ATOM     19  N   UNL     1      -0.223  10.775  19.399  0.00  0.00    +0.000 N 
BRANCH  19  20
ATOM     20  S   UNL     1       0.299  12.081  20.370  0.00  0.00    +0.000 S 
ATOM     21  O   UNL     1       1.495  11.700  21.090  0.00  0.00    +0.000 OA
ATOM     22  O   UNL     1       0.260  13.279  19.553  0.00  0.00    +0.000 OA
BRANCH  20  23
ATOM     23  C   UNL     1      -1.044  12.152  21.560  0.00  0.00    +0.000 C 
ATOM     24  C   UNL     1      -2.126  13.128  21.140  0.00  0.00    +0.000 C 
ENDBRANCH  20  23
ENDBRANCH  19  20
BRANCH  19  26
ATOM     25  C   UNL     1      -2.249  10.162  18.129  0.00  0.00    +0.000 C 
ATOM     26  C   UNL     1      -1.070  11.117  18.230  0.00  0.00    +0.000 C 
ENDBRANCH  19  26
ENDBRANCH   1  19
TORSDOF 9
ENDMDL
