MODEL 1
REMARK VINA RESULT:      -8.2      0.000      0.000
REMARK  Name = 
REMARK  6 active torsions:
REMARK  status: ('A' for Active; 'I' for Inactive)
REMARK    1  A    between atoms: C_1  and  C_2
REMARK    2  A    between atoms: C_5  and  C_6
REMARK    3  A    between atoms: C_6  and  C_7
REMARK    4  A    between atoms: C_10  and  N_11
REMARK    5  A    between atoms: C_16  and  C_17
REMARK    6  A    between atoms: C_20  and  C_21
REMARK                            x       y       z     vdW  Elec       q    Type
REMARK                         _______ _______ _______ _____ _____    ______ ____
ROOT
ATOM      1  C   UNL     1       2.226   2.046  17.740  0.00  0.00    +0.000 C 
ATOM      2  C   UNL     1       3.031   3.327  17.249  0.00  0.00    +0.000 C 
ATOM      3  C   UNL     1       1.873   4.284  17.388  0.00  0.00    +0.000 C 
ATOM      4  C   UNL     1       2.063   4.790  18.772  0.00  0.00    +0.000 C 
ATOM      5  C   UNL     1       3.553   5.280  18.895  0.00  0.00    +0.000 C 
ATOM      6  C   UNL     1       4.239   3.853  19.291  0.00  0.00    +0.000 C 
ATOM      7  C   UNL     1       4.130   2.889  20.478  0.00  0.00    +0.000 C 
ATOM      8  O   UNL     1       5.640   4.077  19.342  0.00  0.00    +0.000 OA
ATOM      9  O   UNL     1       5.880   4.225  17.969  0.00  0.00    +0.000 OA
ATOM     10  C   UNL     1       4.717   5.018  17.580  0.00  0.00    +0.000 C 
ATOM     11  C   UNL     1       5.641   6.292  17.395  0.00  0.00    +0.000 C 
ATOM     12  O   UNL     1       4.010   4.159  16.561  0.00  0.00    +0.000 OA
ATOM     13  O   UNL     1       3.948   2.911  18.254  0.00  0.00    +0.000 OA
ENDROOT
BRANCH   5  14
ATOM     14  C   UNL     1       3.214   6.752  18.144  0.00  0.00    +0.000 C 
BRANCH  14  15
ATOM     15  C   UNL     1       2.265   7.729  18.822  0.00  0.00    +0.000 A 
ATOM     16  C   UNL     1       1.727   8.788  18.112  0.00  0.00    +0.000 A 
ATOM     17  C   UNL     1       1.047   9.795  18.775  0.00  0.00    +0.000 A 
ATOM     18  C   UNL     1       0.847   9.714  20.156  0.00  0.00    +0.000 A 
ATOM     19  C   UNL     1       1.263   8.610  20.879  0.00  0.00    +0.000 A 
ATOM     20  C   UNL     1       1.952   7.585  20.216  0.00  0.00    +0.000 A 
BRANCH  18  21
ATOM     21  N   UNL     1       0.250  10.861  20.849  0.00  0.00    +0.000 N 
ATOM     22  O   UNL     1      -0.308  11.745  20.218  0.00  0.00    +0.000 OA
ATOM     23  O   UNL     1       0.391  10.904  22.101  0.00  0.00    +0.000 OA
ENDBRANCH  18  21
ENDBRANCH  14  15
ENDBRANCH   5  14
TORSDOF 3
ENDMDL
MODEL 2
REMARK VINA RESULT:      -8.2      1.370      1.982
REMARK  Name = 
REMARK  6 active torsions:
REMARK  status: ('A' for Active; 'I' for Inactive)
REMARK    1  A    between atoms: C_1  and  C_2
REMARK    2  A    between atoms: C_5  and  C_6
REMARK    3  A    between atoms: C_6  and  C_7
REMARK    4  A    between atoms: C_10  and  N_11
REMARK    5  A    between atoms: C_16  and  C_17
REMARK    6  A    between atoms: C_20  and  C_21
REMARK                            x       y       z     vdW  Elec       q    Type
REMARK                         _______ _______ _______ _____ _____    ______ ____
ROOT
ATOM      1  C   UNL     1       0.743   1.925  18.559  0.00  0.00    +0.000 C 
ATOM      2  C   UNL     1       2.097   2.708  18.272  0.00  0.00    +0.000 C 
ATOM      3  C   UNL     1       1.435   4.020  17.934  0.00  0.00    +0.000 C 
ATOM      4  C   UNL     1       1.413   4.698  19.257  0.00  0.00    +0.000 C 
ATOM      5  C   UNL     1       2.874   4.641  19.839  0.00  0.00    +0.000 C 
ATOM      6  C   UNL     1       2.786   3.177  20.555  0.00  0.00    +0.000 C 
ATOM      7  C   UNL     1       1.969   2.578  21.706  0.00  0.00    +0.000 C 
ATOM      8  O   UNL     1       4.082   2.895  21.060  0.00  0.00    +0.000 OA
ATOM      9  O   UNL     1       4.738   2.664  19.842  0.00  0.00    +0.000 OA
ATOM     10  C   UNL     1       4.153   3.721  19.022  0.00  0.00    +0.000 C 
ATOM     11  C   UNL     1       5.522   4.517  19.062  0.00  0.00    +0.000 C 
ATOM     12  O   UNL     1       3.479   2.979  17.894  0.00  0.00    +0.000 OA
ATOM     13  O   UNL     1       2.447   2.209  19.557  0.00  0.00    +0.000 OA
ENDROOT
BRANCH   5  14
ATOM     14  C   UNL     1       3.381   5.951  18.905  0.00  0.00    +0.000 C 
BRANCH  14  15
ATOM     15  C   UNL     1       2.637   7.273  19.016  0.00  0.00    +0.000 A 
ATOM     16  C   UNL     1       2.048   7.646  20.213  0.00  0.00    +0.000 A 
ATOM     17  C   UNL     1       1.192   8.732  20.256  0.00  0.00    +0.000 A 
ATOM     18  C   UNL     1       0.968   9.495  19.106  0.00  0.00    +0.000 A 
ATOM     19  C   UNL     1       1.635   9.227  17.925  0.00  0.00    +0.000 A 
ATOM     20  C   UNL     1       2.505   8.129  17.871  0.00  0.00    +0.000 A 
BRANCH  18  21
ATOM     21  N   UNL     1      -0.051  10.550  19.150  0.00  0.00    +0.000 N 
ATOM     22  O   UNL     1      -0.807  10.722  18.206  0.00  0.00    +0.000 OA
ATOM     23  O   UNL     1      -0.063  11.285  20.173  0.00  0.00    +0.000 OA
ENDBRANCH  18  21
ENDBRANCH  14  15
ENDBRANCH   5  14
TORSDOF 3
ENDMDL
MODEL 3
REMARK VINA RESULT:      -8.1      1.369      1.764
REMARK  Name = 
REMARK  6 active torsions:
REMARK  status: ('A' for Active; 'I' for Inactive)
REMARK    1  A    between atoms: C_1  and  C_2
REMARK    2  A    between atoms: C_5  and  C_6
REMARK    3  A    between atoms: C_6  and  C_7
REMARK    4  A    between atoms: C_10  and  N_11
REMARK    5  A    between atoms: C_16  and  C_17
REMARK    6  A    between atoms: C_20  and  C_21
REMARK                            x       y       z     vdW  Elec       q    Type
REMARK                         _______ _______ _______ _____ _____    ______ ____
ROOT
ATOM      1  C   UNL     1       0.851   1.929  18.475  0.00  0.00    +0.000 C 
ATOM      2  C   UNL     1       2.184   2.761  18.229  0.00  0.00    +0.000 C 
ATOM      3  C   UNL     1       1.487   4.071  17.958  0.00  0.00    +0.000 C 
ATOM      4  C   UNL     1       1.448   4.679  19.313  0.00  0.00    +0.000 C 
ATOM      5  C   UNL     1       2.910   4.632  19.893  0.00  0.00    +0.000 C 
ATOM      6  C   UNL     1       2.862   3.131  20.534  0.00  0.00    +0.000 C 
ATOM      7  C   UNL     1       2.061   2.454  21.652  0.00  0.00    +0.000 C 
ATOM      8  O   UNL     1       4.165   2.859  21.026  0.00  0.00    +0.000 OA
ATOM      9  O   UNL     1       4.826   2.707  19.798  0.00  0.00    +0.000 OA
ATOM     10  C   UNL     1       4.212   3.788  19.032  0.00  0.00    +0.000 C 
ATOM     11  C   UNL     1       5.561   4.618  19.114  0.00  0.00    +0.000 C 
ATOM     12  O   UNL     1       3.558   3.087  17.867  0.00  0.00    +0.000 OA
ATOM     13  O   UNL     1       2.547   2.207  19.488  0.00  0.00    +0.000 OA
ENDROOT
BRANCH   5  14
ATOM     14  C   UNL     1       3.382   6.000  19.027  0.00  0.00    +0.000 C 
BRANCH  14  15
ATOM     15  C   UNL     1       2.487   7.231  19.039  0.00  0.00    +0.000 A 
ATOM     16  C   UNL     1       2.288   7.962  17.881  0.00  0.00    +0.000 A 
ATOM     17  C   UNL     1       1.660   9.194  17.937  0.00  0.00    +0.000 A 
ATOM     18  C   UNL     1       1.169   9.676  19.154  0.00  0.00    +0.000 A 
ATOM     19  C   UNL     1       1.240   8.918  20.308  0.00  0.00    +0.000 A 
ATOM     20  C   UNL     1       1.874   7.668  20.261  0.00  0.00    +0.000 A 
BRANCH  18  21
ATOM     21  N   UNL     1       0.638  11.043  19.206  0.00  0.00    +0.000 N 
ATOM     22  O   UNL     1       1.181  11.895  19.891  0.00  0.00    +0.000 OA
ATOM     23  O   UNL     1      -0.420  11.265  18.558  0.00  0.00    +0.000 OA
ENDBRANCH  18  21
ENDBRANCH  14  15
ENDBRANCH   5  14
TORSDOF 3
ENDMDL
MODEL 4
REMARK VINA RESULT:      -8.1      0.366      1.074
REMARK  Name = 
REMARK  6 active torsions:
REMARK  status: ('A' for Active; 'I' for Inactive)
REMARK    1  A    between atoms: C_1  and  C_2
REMARK    2  A    between atoms: C_5  and  C_6
REMARK    3  A    between atoms: C_6  and  C_7
REMARK    4  A    between atoms: C_10  and  N_11
REMARK    5  A    between atoms: C_16  and  C_17
REMARK    6  A    between atoms: C_20  and  C_21
REMARK                            x       y       z     vdW  Elec       q    Type
REMARK                         _______ _______ _______ _____ _____    ______ ____
ROOT
ATOM      1  C   UNL     1       2.438   1.816  17.818  0.00  0.00    +0.000 C 
ATOM      2  C   UNL     1       3.085   3.184  17.326  0.00  0.00    +0.000 C 
ATOM      3  C   UNL     1       1.815   3.991  17.441  0.00  0.00    +0.000 C 
ATOM      4  C   UNL     1       1.921   4.526  18.823  0.00  0.00    +0.000 C 
ATOM      5  C   UNL     1       3.337   5.199  18.961  0.00  0.00    +0.000 C 
ATOM      6  C   UNL     1       4.190   3.871  19.379  0.00  0.00    +0.000 C 
ATOM      7  C   UNL     1       4.184   2.909  20.573  0.00  0.00    +0.000 C 
ATOM      8  O   UNL     1       5.551   4.268  19.447  0.00  0.00    +0.000 OA
ATOM      9  O   UNL     1       5.790   4.435  18.075  0.00  0.00    +0.000 OA
ATOM     10  C   UNL     1       4.543   5.074  17.664  0.00  0.00    +0.000 C 
ATOM     11  C   UNL     1       5.304   6.452  17.480  0.00  0.00    +0.000 C 
ATOM     12  O   UNL     1       3.963   4.126  16.644  0.00  0.00    +0.000 OA
ATOM     13  O   UNL     1       4.032   2.893  18.346  0.00  0.00    +0.000 OA
ENDROOT
BRANCH   5  14
ATOM     14  C   UNL     1       2.828   6.611  18.193  0.00  0.00    +0.000 C 
BRANCH  14  15
ATOM     15  C   UNL     1       2.221   7.731  19.026  0.00  0.00    +0.000 A 
ATOM     16  C   UNL     1       1.979   7.546  20.376  0.00  0.00    +0.000 A 
ATOM     17  C   UNL     1       1.231   8.473  21.080  0.00  0.00    +0.000 A 
ATOM     18  C   UNL     1       0.771   9.631  20.446  0.00  0.00    +0.000 A 
ATOM     19  C   UNL     1       1.099   9.908  19.131  0.00  0.00    +0.000 A 
ATOM     20  C   UNL     1       1.856   8.975  18.409  0.00  0.00    +0.000 A 
BRANCH  18  21
ATOM     21  N   UNL     1      -0.136  10.522  21.179  0.00  0.00    +0.000 N 
ATOM     22  O   UNL     1      -1.024  11.122  20.594  0.00  0.00    +0.000 OA
ATOM     23  O   UNL     1       0.086  10.668  22.411  0.00  0.00    +0.000 OA
ENDBRANCH  18  21
ENDBRANCH  14  15
ENDBRANCH   5  14
TORSDOF 3
ENDMDL
MODEL 5
REMARK VINA RESULT:      -7.9      1.384      3.006
REMARK  Name = 
REMARK  6 active torsions:
REMARK  status: ('A' for Active; 'I' for Inactive)
REMARK    1  A    between atoms: C_1  and  C_2
REMARK    2  A    between atoms: C_5  and  C_6
REMARK    3  A    between atoms: C_6  and  C_7
REMARK    4  A    between atoms: C_10  and  N_11
REMARK    5  A    between atoms: C_16  and  C_17
REMARK    6  A    between atoms: C_20  and  C_21
REMARK                            x       y       z     vdW  Elec       q    Type
REMARK                         _______ _______ _______ _____ _____    ______ ____
ROOT
ATOM      1  C   UNL     1       7.620   4.639  17.576  0.00  0.00    +0.000 C 
ATOM      2  C   UNL     1       6.317   4.379  18.452  0.00  0.00    +0.000 C 
ATOM      3  C   UNL     1       6.221   5.787  18.986  0.00  0.00    +0.000 C 
ATOM      4  C   UNL     1       5.329   6.430  17.986  0.00  0.00    +0.000 C 
ATOM      5  C   UNL     1       4.054   5.519  17.839  0.00  0.00    +0.000 C 
ATOM      6  C   UNL     1       4.628   4.491  16.708  0.00  0.00    +0.000 C 
ATOM      7  C   UNL     1       5.085   4.625  15.251  0.00  0.00    +0.000 C 
ATOM      8  O   UNL     1       3.628   3.502  16.515  0.00  0.00    +0.000 OA
ATOM      9  O   UNL     1       3.770   2.819  17.731  0.00  0.00    +0.000 OA
ATOM     10  C   UNL     1       3.955   3.942  18.646  0.00  0.00    +0.000 C 
ATOM     11  C   UNL     1       2.500   3.709  19.232  0.00  0.00    +0.000 C 
ATOM     12  O   UNL     1       5.312   3.698  19.258  0.00  0.00    +0.000 OA
ATOM     13  O   UNL     1       5.812   3.873  17.222  0.00  0.00    +0.000 OA
ENDROOT
BRANCH   5  14
ATOM     14  C   UNL     1       3.347   6.147  19.234  0.00  0.00    +0.000 C 
BRANCH  14  15
ATOM     15  C   UNL     1       2.425   7.353  19.121  0.00  0.00    +0.000 A 
ATOM     16  C   UNL     1       2.271   8.003  17.908  0.00  0.00    +0.000 A 
ATOM     17  C   UNL     1       1.613   9.219  17.852  0.00  0.00    +0.000 A 
ATOM     18  C   UNL     1       1.048   9.766  19.008  0.00  0.00    +0.000 A 
ATOM     19  C   UNL     1       1.075   9.084  20.212  0.00  0.00    +0.000 A 
ATOM     20  C   UNL     1       1.738   7.852  20.279  0.00  0.00    +0.000 A 
BRANCH  18  21
ATOM     21  N   UNL     1       0.484  11.119  18.944  0.00  0.00    +0.000 N 
ATOM     22  O   UNL     1      -0.724  11.285  18.875  0.00  0.00    +0.000 OA
ATOM     23  O   UNL     1       1.305  12.074  18.911  0.00  0.00    +0.000 OA
ENDBRANCH  18  21
ENDBRANCH  14  15
ENDBRANCH   5  14
TORSDOF 3
ENDMDL
MODEL 6
REMARK VINA RESULT:      -7.8      1.351      3.157
REMARK  Name = 
REMARK  6 active torsions:
REMARK  status: ('A' for Active; 'I' for Inactive)
REMARK    1  A    between atoms: C_1  and  C_2
REMARK    2  A    between atoms: C_5  and  C_6
REMARK    3  A    between atoms: C_6  and  C_7
REMARK    4  A    between atoms: C_10  and  N_11
REMARK    5  A    between atoms: C_16  and  C_17
REMARK    6  A    between atoms: C_20  and  C_21
REMARK                            x       y       z     vdW  Elec       q    Type
REMARK                         _______ _______ _______ _____ _____    ______ ____
ROOT
ATOM      1  C   UNL     1       7.569   4.689  17.691  0.00  0.00    +0.000 C 
ATOM      2  C   UNL     1       6.239   4.379  18.507  0.00  0.00    +0.000 C 
ATOM      3  C   UNL     1       6.089   5.771  19.068  0.00  0.00    +0.000 C 
ATOM      4  C   UNL     1       5.221   6.416  18.048  0.00  0.00    +0.000 C 
ATOM      5  C   UNL     1       3.976   5.480  17.829  0.00  0.00    +0.000 C 
ATOM      6  C   UNL     1       4.618   4.492  16.700  0.00  0.00    +0.000 C 
ATOM      7  C   UNL     1       5.130   4.671  15.266  0.00  0.00    +0.000 C 
ATOM      8  O   UNL     1       3.651   3.485  16.445  0.00  0.00    +0.000 OA
ATOM      9  O   UNL     1       3.761   2.777  17.650  0.00  0.00    +0.000 OA
ATOM     10  C   UNL     1       3.882   3.883  18.597  0.00  0.00    +0.000 C 
ATOM     11  C   UNL     1       2.411   3.603  19.119  0.00  0.00    +0.000 C 
ATOM     12  O   UNL     1       5.219   3.657  19.257  0.00  0.00    +0.000 OA
ATOM     13  O   UNL     1       5.795   3.890  17.248  0.00  0.00    +0.000 OA
ENDROOT
BRANCH   5  14
ATOM     14  C   UNL     1       3.199   6.060  19.209  0.00  0.00    +0.000 C 
BRANCH  14  15
ATOM     15  C   UNL     1       2.469   7.394  19.144  0.00  0.00    +0.000 A 
ATOM     16  C   UNL     1       1.863   7.915  20.274  0.00  0.00    +0.000 A 
ATOM     17  C   UNL     1       1.019   9.006  20.169  0.00  0.00    +0.000 A 
ATOM     18  C   UNL     1       0.823   9.625  18.930  0.00  0.00    +0.000 A 
ATOM     19  C   UNL     1       1.508   9.208  17.803  0.00  0.00    +0.000 A 
ATOM     20  C   UNL     1       2.366   8.103  17.900  0.00  0.00    +0.000 A 
BRANCH  18  21
ATOM     21  N   UNL     1      -0.184  10.687  18.825  0.00  0.00    +0.000 N 
ATOM     22  O   UNL     1      -1.326  10.427  18.482  0.00  0.00    +0.000 OA
ATOM     23  O   UNL     1       0.206  11.863  19.053  0.00  0.00    +0.000 OA
ENDBRANCH  18  21
ENDBRANCH  14  15
ENDBRANCH   5  14
TORSDOF 3
ENDMDL
MODEL 7
REMARK VINA RESULT:      -7.8      4.035      6.673
REMARK  Name = 
REMARK  6 active torsions:
REMARK  status: ('A' for Active; 'I' for Inactive)
REMARK    1  A    between atoms: C_1  and  C_2
REMARK    2  A    between atoms: C_5  and  C_6
REMARK    3  A    between atoms: C_6  and  C_7
REMARK    4  A    between atoms: C_10  and  N_11
REMARK    5  A    between atoms: C_16  and  C_17
REMARK    6  A    between atoms: C_20  and  C_21
REMARK                            x       y       z     vdW  Elec       q    Type
REMARK                         _______ _______ _______ _____ _____    ______ ____
ROOT
ATOM      1  C   UNL     1       1.819   2.498  21.546  0.00  0.00    +0.000 C 
ATOM      2  C   UNL     1       2.490   3.752  20.835  0.00  0.00    +0.000 C 
ATOM      3  C   UNL     1       3.879   3.165  20.789  0.00  0.00    +0.000 C 
ATOM      4  C   UNL     1       3.884   2.504  19.458  0.00  0.00    +0.000 C 
ATOM      5  C   UNL     1       3.408   3.569  18.402  0.00  0.00    +0.000 C 
ATOM      6  C   UNL     1       1.798   3.337  18.542  0.00  0.00    +0.000 C 
ATOM      7  C   UNL     1       0.841   2.172  18.264  0.00  0.00    +0.000 C 
ATOM      8  O   UNL     1       1.176   4.310  17.718  0.00  0.00    +0.000 OA
ATOM      9  O   UNL     1       1.447   5.447  18.493  0.00  0.00    +0.000 OA
ATOM     10  C   UNL     1       2.818   5.164  18.908  0.00  0.00    +0.000 C 
ATOM     11  C   UNL     1       3.352   6.290  17.928  0.00  0.00    +0.000 C 
ATOM     12  O   UNL     1       2.746   5.125  20.414  0.00  0.00    +0.000 OA
ATOM     13  O   UNL     1       1.429   3.565  19.906  0.00  0.00    +0.000 OA
ENDROOT
BRANCH   5  14
ATOM     14  C   UNL     1       4.932   4.287  18.322  0.00  0.00    +0.000 C 
BRANCH  14  15
ATOM     15  C   UNL     1       5.686   4.282  17.000  0.00  0.00    +0.000 A 
ATOM     16  C   UNL     1       6.982   4.764  16.932  0.00  0.00    +0.000 A 
ATOM     17  C   UNL     1       7.584   4.965  15.703  0.00  0.00    +0.000 A 
ATOM     18  C   UNL     1       6.910   4.623  14.527  0.00  0.00    +0.000 A 
ATOM     19  C   UNL     1       5.664   4.023  14.562  0.00  0.00    +0.000 A 
ATOM     20  C   UNL     1       5.045   3.816  15.802  0.00  0.00    +0.000 A 
BRANCH  18  21
ATOM     21  N   UNL     1       7.517   4.978  13.239  0.00  0.00    +0.000 N 
ATOM     22  O   UNL     1       7.182   4.404  12.215  0.00  0.00    +0.000 OA
ATOM     23  O   UNL     1       8.423   5.854  13.261  0.00  0.00    +0.000 OA
ENDBRANCH  18  21
ENDBRANCH  14  15
ENDBRANCH   5  14
TORSDOF 3
ENDMDL
MODEL 8
REMARK VINA RESULT:      -7.7      0.828      1.053
REMARK  Name = 
REMARK  6 active torsions:
REMARK  status: ('A' for Active; 'I' for Inactive)
REMARK    1  A    between atoms: C_1  and  C_2
REMARK    2  A    between atoms: C_5  and  C_6
REMARK    3  A    between atoms: C_6  and  C_7
REMARK    4  A    between atoms: C_10  and  N_11
REMARK    5  A    between atoms: C_16  and  C_17
REMARK    6  A    between atoms: C_20  and  C_21
REMARK                            x       y       z     vdW  Elec       q    Type
REMARK                         _______ _______ _______ _____ _____    ______ ____
ROOT
ATOM      1  C   UNL     1       1.236   1.965  18.468  0.00  0.00    +0.000 C 
ATOM      2  C   UNL     1       2.257   3.005  17.831  0.00  0.00    +0.000 C 
ATOM      3  C   UNL     1       1.285   4.158  17.798  0.00  0.00    +0.000 C 
ATOM      4  C   UNL     1       1.551   4.814  19.105  0.00  0.00    +0.000 C 
ATOM      5  C   UNL     1       3.103   5.052  19.206  0.00  0.00    +0.000 C 
ATOM      6  C   UNL     1       3.525   3.598  19.818  0.00  0.00    +0.000 C 
ATOM      7  C   UNL     1       3.239   2.846  21.123  0.00  0.00    +0.000 C 
ATOM      8  O   UNL     1       4.942   3.582  19.882  0.00  0.00    +0.000 OA
ATOM      9  O   UNL     1       5.215   3.490  18.510  0.00  0.00    +0.000 OA
ATOM     10  C   UNL     1       4.212   4.408  17.978  0.00  0.00    +0.000 C 
ATOM     11  C   UNL     1       5.347   5.464  17.648  0.00  0.00    +0.000 C 
ATOM     12  O   UNL     1       3.373   3.549  17.066  0.00  0.00    +0.000 OA
ATOM     13  O   UNL     1       3.080   2.584  18.912  0.00  0.00    +0.000 OA
ENDROOT
BRANCH   5  14
ATOM     14  C   UNL     1       3.033   6.438  18.248  0.00  0.00    +0.000 C 
BRANCH  14  15
ATOM     15  C   UNL     1       2.243   7.641  18.742  0.00  0.00    +0.000 A 
ATOM     16  C   UNL     1       1.941   8.681  17.880  0.00  0.00    +0.000 A 
ATOM     17  C   UNL     1       1.422   9.864  18.374  0.00  0.00    +0.000 A 
ATOM     18  C   UNL     1       1.141   9.992  19.738  0.00  0.00    +0.000 A 
ATOM     19  C   UNL     1       1.314   8.931  20.609  0.00  0.00    +0.000 A 
ATOM     20  C   UNL     1       1.840   7.728  20.118  0.00  0.00    +0.000 A 
BRANCH  18  21
ATOM     21  N   UNL     1       0.727  11.302  20.252  0.00  0.00    +0.000 N 
ATOM     22  O   UNL     1       0.738  11.531  21.451  0.00  0.00    +0.000 OA
ATOM     23  O   UNL     1       0.316  12.140  19.405  0.00  0.00    +0.000 OA
ENDBRANCH  18  21
ENDBRANCH  14  15
ENDBRANCH   5  14
TORSDOF 3
ENDMDL
MODEL 9
REMARK VINA RESULT:      -7.2      4.058      6.651
REMARK  Name = 
REMARK  6 active torsions:
REMARK  status: ('A' for Active; 'I' for Inactive)
REMARK    1  A    between atoms: C_1  and  C_2
REMARK    2  A    between atoms: C_5  and  C_6
REMARK    3  A    between atoms: C_6  and  C_7
REMARK    4  A    between atoms: C_10  and  N_11
REMARK    5  A    between atoms: C_16  and  C_17
REMARK    6  A    between atoms: C_20  and  C_21
REMARK                            x       y       z     vdW  Elec       q    Type
REMARK                         _______ _______ _______ _____ _____    ______ ____
ROOT
ATOM      1  C   UNL     1       1.958   2.163  21.564  0.00  0.00    +0.000 C 
ATOM      2  C   UNL     1       2.720   3.418  20.952  0.00  0.00    +0.000 C 
ATOM      3  C   UNL     1       4.023   2.694  20.718  0.00  0.00    +0.000 C 
ATOM      4  C   UNL     1       3.854   2.212  19.322  0.00  0.00    +0.000 C 
ATOM      5  C   UNL     1       3.433   3.448  18.445  0.00  0.00    +0.000 C 
ATOM      6  C   UNL     1       1.821   3.377  18.694  0.00  0.00    +0.000 C 
ATOM      7  C   UNL     1       0.715   2.368  18.363  0.00  0.00    +0.000 C 
ATOM      8  O   UNL     1       1.261   4.510  18.049  0.00  0.00    +0.000 OA
ATOM      9  O   UNL     1       1.720   5.502  18.927  0.00  0.00    +0.000 OA
ATOM     10  C   UNL     1       3.074   5.020  19.186  0.00  0.00    +0.000 C 
ATOM     11  C   UNL     1       3.666   6.198  18.305  0.00  0.00    +0.000 C 
ATOM     12  O   UNL     1       3.106   4.797  20.677  0.00  0.00    +0.000 OA
ATOM     13  O   UNL     1       1.581   3.467  20.102  0.00  0.00    +0.000 OA
ENDROOT
BRANCH   5  14
ATOM     14  C   UNL     1       5.021   4.001  18.320  0.00  0.00    +0.000 C 
BRANCH  14  15
ATOM     15  C   UNL     1       5.571   4.377  16.952  0.00  0.00    +0.000 A 
ATOM     16  C   UNL     1       4.789   4.230  15.820  0.00  0.00    +0.000 A 
ATOM     17  C   UNL     1       5.354   4.360  14.564  0.00  0.00    +0.000 A 
ATOM     18  C   UNL     1       6.703   4.704  14.434  0.00  0.00    +0.000 A 
ATOM     19  C   UNL     1       7.484   4.980  15.542  0.00  0.00    +0.000 A 
ATOM     20  C   UNL     1       6.920   4.851  16.819  0.00  0.00    +0.000 A 
BRANCH  18  21
ATOM     21  N   UNL     1       7.306   4.695  13.096  0.00  0.00    +0.000 N 
ATOM     22  O   UNL     1       8.123   5.545  12.778  0.00  0.00    +0.000 OA
ATOM     23  O   UNL     1       6.899   3.810  12.296  0.00  0.00    +0.000 OA
ENDBRANCH  18  21
ENDBRANCH  14  15
ENDBRANCH   5  14
TORSDOF 3
ENDMDL
