MODEL 1
REMARK VINA RESULT:      -8.6      0.000      0.000
REMARK  Name = 
REMARK  5 active torsions:
REMARK  status: ('A' for Active; 'I' for Inactive)
REMARK    1  A    between atoms: C_2  and  C_3
REMARK    2  A    between atoms: C_2  and  C_18
REMARK    3  A    between atoms: C_3  and  C_4
REMARK    4  A    between atoms: C_4  and  N_5
REMARK    5  A    between atoms: N_8  and  C_9
REMARK                            x       y       z     vdW  Elec       q    Type
REMARK                         _______ _______ _______ _____ _____    ______ ____
ROOT
ATOM      1  O   UNL     1       2.477  10.492  17.502  0.00  0.00    +0.000 OA
ATOM      2  C   UNL     1       1.868   9.706  18.223  0.00  0.00    +0.000 C 
ENDROOT
BRANCH   2   3
ATOM      3  C   UNL     1       2.352   8.297  18.400  0.00  0.00    +0.000 A 
ATOM      4  C   UNL     1       3.286   7.762  17.505  0.00  0.00    +0.000 A 
ATOM      5  C   UNL     1       3.714   6.431  17.641  0.00  0.00    +0.000 A 
ATOM      6  C   UNL     1       3.148   5.612  18.635  0.00  0.00    +0.000 A 
ATOM      7  C   UNL     1       2.269   6.165  19.569  0.00  0.00    +0.000 A 
ATOM      8  C   UNL     1       1.880   7.499  19.450  0.00  0.00    +0.000 A 
ATOM      9  C   UNL     1       1.846   5.337  20.744  0.00  0.00    +0.000 C 
ATOM     10  C   UNL     1       1.540   3.934  20.278  0.00  0.00    +0.000 C 
ATOM     11  C   UNL     1       2.680   3.345  19.473  0.00  0.00    +0.000 C 
ATOM     12  O   UNL     1       2.835   2.123  19.436  0.00  0.00    +0.000 OA
ATOM     13  N   UNL     1       3.443   4.228  18.710  0.00  0.00    +0.000 N 
ATOM     14  C   UNL     1       4.421   3.666  17.788  0.00  0.00    +0.000 C 
ATOM     15  C   UNL     1       5.456   4.683  17.334  0.00  0.00    +0.000 C 
ATOM     16  C   UNL     1       4.754   5.879  16.701  0.00  0.00    +0.000 C 
ENDBRANCH   2   3
BRANCH   2  17
ATOM     17  C   UNL     1       0.582  10.060  18.941  0.00  0.00    +0.000 C 
BRANCH  17  18
ATOM     18  C   UNL     1       0.750  10.691  20.316  0.00  0.00    +0.000 C 
BRANCH  18  19
ATOM     19  N   UNL     1       0.362  12.117  20.278  0.00  0.00    +0.000 NA
ATOM     20  C   UNL     1      -0.916  12.297  19.549  0.00  0.00    +0.000 C 
ATOM     21  C   UNL     1      -2.177  11.813  20.308  0.00  0.00    +0.000 C 
ATOM     22  N   UNL     1      -2.234  12.453  21.633  0.00  0.00    +0.000 N 
ATOM     23  C   UNL     1      -1.011  12.308  22.439  0.00  0.00    +0.000 C 
ATOM     24  C   UNL     1       0.216  12.755  21.611  0.00  0.00    +0.000 C 
BRANCH  22  25
ATOM     25  C   UNL     1      -3.449  12.703  22.250  0.00  0.00    +0.000 A 
ATOM     26  C   UNL     1      -3.593  12.746  23.645  0.00  0.00    +0.000 A 
ATOM     27  C   UNL     1      -4.847  12.885  24.252  0.00  0.00    +0.000 A 
ATOM     28  C   UNL     1      -5.988  12.986  23.464  0.00  0.00    +0.000 A 
ATOM     29 CL   UNL     1      -7.536  13.108  24.203  0.00  0.00    +0.000 Cl
ATOM     30  C   UNL     1      -5.879  12.972  22.081  0.00  0.00    +0.000 A 
ATOM     31  C   UNL     1      -4.620  12.835  21.486  0.00  0.00    +0.000 A 
ENDBRANCH  22  25
ENDBRANCH  18  19
ENDBRANCH  17  18
ENDBRANCH   2  17
TORSDOF 5
ENDMDL
MODEL 2
REMARK VINA RESULT:      -8.6      1.254      1.735
REMARK  Name = 
REMARK  5 active torsions:
REMARK  status: ('A' for Active; 'I' for Inactive)
REMARK    1  A    between atoms: C_2  and  C_3
REMARK    2  A    between atoms: C_2  and  C_18
REMARK    3  A    between atoms: C_3  and  C_4
REMARK    4  A    between atoms: C_4  and  N_5
REMARK    5  A    between atoms: N_8  and  C_9
REMARK                            x       y       z     vdW  Elec       q    Type
REMARK                         _______ _______ _______ _____ _____    ______ ____
ROOT
ATOM      1  O   UNL     1      -0.004   8.526  21.772  0.00  0.00    +0.000 OA
ATOM      2  C   UNL     1       0.838   8.674  20.891  0.00  0.00    +0.000 C 
ENDROOT
BRANCH   2   3
ATOM      3  C   UNL     1       1.555   7.491  20.310  0.00  0.00    +0.000 A 
ATOM      4  C   UNL     1       2.322   7.639  19.149  0.00  0.00    +0.000 A 
ATOM      5  C   UNL     1       2.963   6.527  18.577  0.00  0.00    +0.000 A 
ATOM      6  C   UNL     1       2.774   5.249  19.133  0.00  0.00    +0.000 A 
ATOM      7  C   UNL     1       2.067   5.112  20.329  0.00  0.00    +0.000 A 
ATOM      8  C   UNL     1       1.466   6.228  20.911  0.00  0.00    +0.000 A 
ATOM      9  C   UNL     1       2.058   3.782  21.018  0.00  0.00    +0.000 C 
ATOM     10  C   UNL     1       1.863   2.692  19.990  0.00  0.00    +0.000 C 
ATOM     11  C   UNL     1       2.858   2.805  18.852  0.00  0.00    +0.000 C 
ATOM     12  O   UNL     1       3.180   1.797  18.220  0.00  0.00    +0.000 OA
ATOM     13  N   UNL     1       3.281   4.086  18.501  0.00  0.00    +0.000 N 
ATOM     14  C   UNL     1       4.087   4.234  17.297  0.00  0.00    +0.000 C 
ATOM     15  C   UNL     1       4.824   5.563  17.240  0.00  0.00    +0.000 C 
ATOM     16  C   UNL     1       3.824   6.707  17.354  0.00  0.00    +0.000 C 
ENDBRANCH   2   3
BRANCH   2  17
ATOM     17  C   UNL     1       1.255  10.029  20.358  0.00  0.00    +0.000 C 
BRANCH  17  18
ATOM     18  C   UNL     1       0.189  10.784  19.576  0.00  0.00    +0.000 C 
BRANCH  18  19
ATOM     19  N   UNL     1       0.047  12.160  20.098  0.00  0.00    +0.000 NA
ATOM     20  C   UNL     1      -1.124  12.836  19.492  0.00  0.00    +0.000 C 
ATOM     21  C   UNL     1      -2.501  12.336  19.994  0.00  0.00    +0.000 C 
ATOM     22  N   UNL     1      -2.553  12.415  21.463  0.00  0.00    +0.000 N 
ATOM     23  C   UNL     1      -1.436  11.750  22.154  0.00  0.00    +0.000 C 
ATOM     24  C   UNL     1      -0.092  12.250  21.574  0.00  0.00    +0.000 C 
BRANCH  22  25
ATOM     25  C   UNL     1      -3.753  12.625  22.123  0.00  0.00    +0.000 A 
ATOM     26  C   UNL     1      -4.914  13.051  21.461  0.00  0.00    +0.000 A 
ATOM     27  C   UNL     1      -6.085  13.369  22.160  0.00  0.00    +0.000 A 
ATOM     28  C   UNL     1      -6.113  13.262  23.546  0.00  0.00    +0.000 A 
ATOM     29 CL   UNL     1      -7.532  13.697  24.415  0.00  0.00    +0.000 Cl
ATOM     30  C   UNL     1      -4.989  12.820  24.230  0.00  0.00    +0.000 A 
ATOM     31  C   UNL     1      -3.826  12.503  23.521  0.00  0.00    +0.000 A 
ENDBRANCH  22  25
ENDBRANCH  18  19
ENDBRANCH  17  18
ENDBRANCH   2  17
TORSDOF 5
ENDMDL
MODEL 3
REMARK VINA RESULT:      -8.3      1.499      2.569
REMARK  Name = 
REMARK  5 active torsions:
REMARK  status: ('A' for Active; 'I' for Inactive)
REMARK    1  A    between atoms: C_2  and  C_3
REMARK    2  A    between atoms: C_2  and  C_18
REMARK    3  A    between atoms: C_3  and  C_4
REMARK    4  A    between atoms: C_4  and  N_5
REMARK    5  A    between atoms: N_8  and  C_9
REMARK                            x       y       z     vdW  Elec       q    Type
REMARK                         _______ _______ _______ _____ _____    ______ ____
ROOT
ATOM      1  O   UNL     1      -0.125   8.236  21.703  0.00  0.00    +0.000 OA
ATOM      2  C   UNL     1       0.738   8.522  20.878  0.00  0.00    +0.000 C 
ENDROOT
BRANCH   2   3
ATOM      3  C   UNL     1       1.587   7.453  20.256  0.00  0.00    +0.000 A 
ATOM      4  C   UNL     1       1.615   6.171  20.814  0.00  0.00    +0.000 A 
ATOM      5  C   UNL     1       2.438   5.175  20.260  0.00  0.00    +0.000 A 
ATOM      6  C   UNL     1       3.290   5.490  19.186  0.00  0.00    +0.000 A 
ATOM      7  C   UNL     1       3.211   6.748  18.586  0.00  0.00    +0.000 A 
ATOM      8  C   UNL     1       2.361   7.718  19.118  0.00  0.00    +0.000 A 
ATOM      9  C   UNL     1       3.964   6.993  17.315  0.00  0.00    +0.000 C 
ATOM     10  C   UNL     1       5.343   6.387  17.430  0.00  0.00    +0.000 C 
ATOM     11  C   UNL     1       5.286   4.934  17.857  0.00  0.00    +0.000 C 
ATOM     12  O   UNL     1       6.197   4.167  17.539  0.00  0.00    +0.000 OA
ATOM     13  N   UNL     1       4.239   4.558  18.698  0.00  0.00    +0.000 N 
ATOM     14  C   UNL     1       4.268   3.218  19.269  0.00  0.00    +0.000 C 
ATOM     15  C   UNL     1       2.917   2.777  19.808  0.00  0.00    +0.000 C 
ATOM     16  C   UNL     1       2.426   3.785  20.841  0.00  0.00    +0.000 C 
ENDBRANCH   2   3
BRANCH   2  17
ATOM     17  C   UNL     1       1.051   9.944  20.459  0.00  0.00    +0.000 C 
BRANCH  17  18
ATOM     18  C   UNL     1       0.011  10.611  19.569  0.00  0.00    +0.000 C 
BRANCH  18  19
ATOM     19  N   UNL     1      -0.107  12.046  19.903  0.00  0.00    +0.000 NA
ATOM     20  C   UNL     1      -1.329  12.630  19.302  0.00  0.00    +0.000 C 
ATOM     21  C   UNL     1      -2.658  12.204  19.977  0.00  0.00    +0.000 C 
ATOM     22  N   UNL     1      -2.596  12.488  21.420  0.00  0.00    +0.000 N 
ATOM     23  C   UNL     1      -1.420  11.928  22.107  0.00  0.00    +0.000 C 
ATOM     24  C   UNL     1      -0.132  12.342  21.358  0.00  0.00    +0.000 C 
BRANCH  22  25
ATOM     25  C   UNL     1      -3.743  12.788  22.136  0.00  0.00    +0.000 A 
ATOM     26  C   UNL     1      -3.805  12.699  23.535  0.00  0.00    +0.000 A 
ATOM     27  C   UNL     1      -5.003  12.894  24.232  0.00  0.00    +0.000 A 
ATOM     28  C   UNL     1      -6.169  13.184  23.534  0.00  0.00    +0.000 A 
ATOM     29 CL   UNL     1      -7.654  13.377  24.380  0.00  0.00    +0.000 Cl
ATOM     30  C   UNL     1      -6.138  13.304  22.152  0.00  0.00    +0.000 A 
ATOM     31  C   UNL     1      -4.935  13.109  21.466  0.00  0.00    +0.000 A 
ENDBRANCH  22  25
ENDBRANCH  18  19
ENDBRANCH  17  18
ENDBRANCH   2  17
TORSDOF 5
ENDMDL
MODEL 4
REMARK VINA RESULT:      -8.3      2.400      3.093
REMARK  Name = 
REMARK  5 active torsions:
REMARK  status: ('A' for Active; 'I' for Inactive)
REMARK    1  A    between atoms: C_2  and  C_3
REMARK    2  A    between atoms: C_2  and  C_18
REMARK    3  A    between atoms: C_3  and  C_4
REMARK    4  A    between atoms: C_4  and  N_5
REMARK    5  A    between atoms: N_8  and  C_9
REMARK                            x       y       z     vdW  Elec       q    Type
REMARK                         _______ _______ _______ _____ _____    ______ ____
ROOT
ATOM      1  O   UNL     1      -0.278   7.864  21.563  0.00  0.00    +0.000 OA
ATOM      2  C   UNL     1       0.839   8.069  21.095  0.00  0.00    +0.000 C 
ENDROOT
BRANCH   2   3
ATOM      3  C   UNL     1       1.608   6.961  20.439  0.00  0.00    +0.000 A 
ATOM      4  C   UNL     1       2.422   7.234  19.334  0.00  0.00    +0.000 A 
ATOM      5  C   UNL     1       3.114   6.195  18.690  0.00  0.00    +0.000 A 
ATOM      6  C   UNL     1       2.931   4.866  19.112  0.00  0.00    +0.000 A 
ATOM      7  C   UNL     1       2.176   4.601  20.256  0.00  0.00    +0.000 A 
ATOM      8  C   UNL     1       1.524   5.645  20.913  0.00  0.00    +0.000 A 
ATOM      9  C   UNL     1       2.168   3.211  20.814  0.00  0.00    +0.000 C 
ATOM     10  C   UNL     1       2.045   2.222  19.680  0.00  0.00    +0.000 C 
ATOM     11  C   UNL     1       3.086   2.462  18.605  0.00  0.00    +0.000 C 
ATOM     12  O   UNL     1       3.460   1.526  17.897  0.00  0.00    +0.000 OA
ATOM     13  N   UNL     1       3.493   3.779  18.397  0.00  0.00    +0.000 N 
ATOM     14  C   UNL     1       4.348   4.057  17.251  0.00  0.00    +0.000 C 
ATOM     15  C   UNL     1       5.055   5.399  17.354  0.00  0.00    +0.000 C 
ATOM     16  C   UNL     1       4.024   6.508  17.530  0.00  0.00    +0.000 C 
ENDBRANCH   2   3
BRANCH   2  17
ATOM     17  C   UNL     1       1.543   9.407  21.177  0.00  0.00    +0.000 C 
BRANCH  17  18
ATOM     18  C   UNL     1       0.708  10.557  21.724  0.00  0.00    +0.000 C 
BRANCH  18  19
ATOM     19  N   UNL     1       0.641  11.656  20.739  0.00  0.00    +0.000 NA
ATOM     20  C   UNL     1       0.282  11.141  19.396  0.00  0.00    +0.000 C 
ATOM     21  C   UNL     1      -1.194  10.699  19.237  0.00  0.00    +0.000 C 
ATOM     22  N   UNL     1      -2.087  11.801  19.631  0.00  0.00    +0.000 N 
ATOM     23  C   UNL     1      -1.817  12.365  20.964  0.00  0.00    +0.000 C 
ATOM     24  C   UNL     1      -0.320  12.736  21.080  0.00  0.00    +0.000 C 
BRANCH  22  25
ATOM     25  C   UNL     1      -3.340  11.941  19.057  0.00  0.00    +0.000 A 
ATOM     26  C   UNL     1      -3.617  11.542  17.741  0.00  0.00    +0.000 A 
ATOM     27  C   UNL     1      -4.856  11.797  17.140  0.00  0.00    +0.000 A 
ATOM     28  C   UNL     1      -5.847  12.459  17.854  0.00  0.00    +0.000 A 
ATOM     29 CL   UNL     1      -7.354  12.819  17.107  0.00  0.00    +0.000 Cl
ATOM     30  C   UNL     1      -5.615  12.846  19.167  0.00  0.00    +0.000 A 
ATOM     31  C   UNL     1      -4.374  12.585  19.758  0.00  0.00    +0.000 A 
ENDBRANCH  22  25
ENDBRANCH  18  19
ENDBRANCH  17  18
ENDBRANCH   2  17
TORSDOF 5
ENDMDL
MODEL 5
REMARK VINA RESULT:      -8.3      3.861      5.503
REMARK  Name = 
REMARK  5 active torsions:
REMARK  status: ('A' for Active; 'I' for Inactive)
REMARK    1  A    between atoms: C_2  and  C_3
REMARK    2  A    between atoms: C_2  and  C_18
REMARK    3  A    between atoms: C_3  and  C_4
REMARK    4  A    between atoms: C_4  and  N_5
REMARK    5  A    between atoms: N_8  and  C_9
REMARK                            x       y       z     vdW  Elec       q    Type
REMARK                         _______ _______ _______ _____ _____    ______ ____
ROOT
ATOM      1  O   UNL     1       1.784   9.259  22.322  0.00  0.00    +0.000 OA
ATOM      2  C   UNL     1       1.081   8.748  21.454  0.00  0.00    +0.000 C 
ENDROOT
BRANCH   2   3
ATOM      3  C   UNL     1       1.571   7.567  20.670  0.00  0.00    +0.000 A 
ATOM      4  C   UNL     1       2.400   7.760  19.560  0.00  0.00    +0.000 A 
ATOM      5  C   UNL     1       2.830   6.661  18.797  0.00  0.00    +0.000 A 
ATOM      6  C   UNL     1       2.367   5.370  19.108  0.00  0.00    +0.000 A 
ATOM      7  C   UNL     1       1.598   5.169  20.255  0.00  0.00    +0.000 A 
ATOM      8  C   UNL     1       1.208   6.262  21.029  0.00  0.00    +0.000 A 
ATOM      9  C   UNL     1       1.295   3.767  20.689  0.00  0.00    +0.000 C 
ATOM     10  C   UNL     1       0.931   2.941  19.478  0.00  0.00    +0.000 C 
ATOM     11  C   UNL     1       1.974   3.050  18.385  0.00  0.00    +0.000 C 
ATOM     12  O   UNL     1       2.116   2.127  17.581  0.00  0.00    +0.000 OA
ATOM     13  N   UNL     1       2.658   4.260  18.276  0.00  0.00    +0.000 N 
ATOM     14  C   UNL     1       3.528   4.453  17.124  0.00  0.00    +0.000 C 
ATOM     15  C   UNL     1       4.517   5.592  17.314  0.00  0.00    +0.000 C 
ATOM     16  C   UNL     1       3.760   6.877  17.631  0.00  0.00    +0.000 C 
ENDBRANCH   2   3
BRANCH   2  17
ATOM     17  C   UNL     1      -0.286   9.277  21.071  0.00  0.00    +0.000 C 
BRANCH  17  18
ATOM     18  C   UNL     1      -0.333  10.122  19.805  0.00  0.00    +0.000 C 
BRANCH  18  19
ATOM     19  N   UNL     1      -0.754  11.502  20.125  0.00  0.00    +0.000 NA
ATOM     20  C   UNL     1       0.109  12.088  21.177  0.00  0.00    +0.000 C 
ATOM     21  C   UNL     1       1.539  12.465  20.716  0.00  0.00    +0.000 C 
ATOM     22  N   UNL     1       1.465  13.353  19.544  0.00  0.00    +0.000 N 
ATOM     23  C   UNL     1       0.641  12.842  18.437  0.00  0.00    +0.000 C 
ATOM     24  C   UNL     1      -0.753  12.433  18.968  0.00  0.00    +0.000 C 
BRANCH  22  25
ATOM     25  C   UNL     1       2.452  14.294  19.301  0.00  0.00    +0.000 A 
ATOM     26  C   UNL     1       3.396  14.149  18.273  0.00  0.00    +0.000 A 
ATOM     27  C   UNL     1       4.456  15.051  18.115  0.00  0.00    +0.000 A 
ATOM     28  C   UNL     1       4.587  16.123  18.990  0.00  0.00    +0.000 A 
ATOM     29 CL   UNL     1       5.913  17.206  18.832  0.00  0.00    +0.000 Cl
ATOM     30  C   UNL     1       3.656  16.310  20.002  0.00  0.00    +0.000 A 
ATOM     31  C   UNL     1       2.601  15.404  20.150  0.00  0.00    +0.000 A 
ENDBRANCH  22  25
ENDBRANCH  18  19
ENDBRANCH  17  18
ENDBRANCH   2  17
TORSDOF 5
ENDMDL
MODEL 6
REMARK VINA RESULT:      -8.2      1.455      1.707
REMARK  Name = 
REMARK  5 active torsions:
REMARK  status: ('A' for Active; 'I' for Inactive)
REMARK    1  A    between atoms: C_2  and  C_3
REMARK    2  A    between atoms: C_2  and  C_18
REMARK    3  A    between atoms: C_3  and  C_4
REMARK    4  A    between atoms: C_4  and  N_5
REMARK    5  A    between atoms: N_8  and  C_9
REMARK                            x       y       z     vdW  Elec       q    Type
REMARK                         _______ _______ _______ _____ _____    ______ ____
ROOT
ATOM      1  O   UNL     1       1.117   8.737  21.410  0.00  0.00    +0.000 OA
ATOM      2  C   UNL     1       1.386   8.521  20.232  0.00  0.00    +0.000 C 
ENDROOT
BRANCH   2   3
ATOM      3  C   UNL     1       2.048   7.240  19.820  0.00  0.00    +0.000 A 
ATOM      4  C   UNL     1       2.852   7.205  18.675  0.00  0.00    +0.000 A 
ATOM      5  C   UNL     1       3.444   6.000  18.261  0.00  0.00    +0.000 A 
ATOM      6  C   UNL     1       3.168   4.810  18.959  0.00  0.00    +0.000 A 
ATOM      7  C   UNL     1       2.424   4.857  20.139  0.00  0.00    +0.000 A 
ATOM      8  C   UNL     1       1.873   6.066  20.564  0.00  0.00    +0.000 A 
ATOM      9  C   UNL     1       2.322   3.622  20.981  0.00  0.00    +0.000 C 
ATOM     10  C   UNL     1       2.092   2.428  20.085  0.00  0.00    +0.000 C 
ATOM     11  C   UNL     1       3.120   2.349  18.975  0.00  0.00    +0.000 C 
ATOM     12  O   UNL     1       3.401   1.256  18.479  0.00  0.00    +0.000 OA
ATOM     13  N   UNL     1       3.624   3.554  18.487  0.00  0.00    +0.000 N 
ATOM     14  C   UNL     1       4.468   3.511  17.301  0.00  0.00    +0.000 C 
ATOM     15  C   UNL     1       5.281   4.782  17.109  0.00  0.00    +0.000 C 
ATOM     16  C   UNL     1       4.345   5.984  17.054  0.00  0.00    +0.000 C 
ENDBRANCH   2   3
BRANCH   2  17
ATOM     17  C   UNL     1       1.126   9.520  19.123  0.00  0.00    +0.000 C 
BRANCH  17  18
ATOM     18  C   UNL     1      -0.213  10.242  19.189  0.00  0.00    +0.000 C 
BRANCH  18  19
ATOM     19  N   UNL     1      -0.005  11.691  19.392  0.00  0.00    +0.000 NA
ATOM     20  C   UNL     1      -1.060  12.476  18.709  0.00  0.00    +0.000 C 
ATOM     21  C   UNL     1      -2.455  12.424  19.382  0.00  0.00    +0.000 C 
ATOM     22  N   UNL     1      -2.339  12.819  20.795  0.00  0.00    +0.000 N 
ATOM     23  C   UNL     1      -1.326  12.075  21.560  0.00  0.00    +0.000 C 
ATOM     24  C   UNL     1       0.028  12.118  20.814  0.00  0.00    +0.000 C 
BRANCH  22  25
ATOM     25  C   UNL     1      -3.394  13.433  21.450  0.00  0.00    +0.000 A 
ATOM     26  C   UNL     1      -3.605  14.819  21.409  0.00  0.00    +0.000 A 
ATOM     27  C   UNL     1      -4.606  15.435  22.170  0.00  0.00    +0.000 A 
ATOM     28  C   UNL     1      -5.421  14.665  22.991  0.00  0.00    +0.000 A 
ATOM     29 CL   UNL     1      -6.620  15.419  23.965  0.00  0.00    +0.000 Cl
ATOM     30  C   UNL     1      -5.256  13.288  23.037  0.00  0.00    +0.000 A 
ATOM     31  C   UNL     1      -4.253  12.683  22.271  0.00  0.00    +0.000 A 
ENDBRANCH  22  25
ENDBRANCH  18  19
ENDBRANCH  17  18
ENDBRANCH   2  17
TORSDOF 5
ENDMDL
MODEL 7
REMARK VINA RESULT:      -8.2      1.039      1.447
REMARK  Name = 
REMARK  5 active torsions:
REMARK  status: ('A' for Active; 'I' for Inactive)
REMARK    1  A    between atoms: C_2  and  C_3
REMARK    2  A    between atoms: C_2  and  C_18
REMARK    3  A    between atoms: C_3  and  C_4
REMARK    4  A    between atoms: C_4  and  N_5
REMARK    5  A    between atoms: N_8  and  C_9
REMARK                            x       y       z     vdW  Elec       q    Type
REMARK                         _______ _______ _______ _____ _____    ______ ____
ROOT
ATOM      1  O   UNL     1       0.225   9.476  17.603  0.00  0.00    +0.000 OA
ATOM      2  C   UNL     1       1.367   9.531  18.051  0.00  0.00    +0.000 C 
ENDROOT
BRANCH   2   3
ATOM      3  C   UNL     1       2.134   8.276  18.349  0.00  0.00    +0.000 A 
ATOM      4  C   UNL     1       3.220   7.914  17.545  0.00  0.00    +0.000 A 
ATOM      5  C   UNL     1       3.918   6.719  17.794  0.00  0.00    +0.000 A 
ATOM      6  C   UNL     1       3.477   5.850  18.808  0.00  0.00    +0.000 A 
ATOM      7  C   UNL     1       2.438   6.244  19.653  0.00  0.00    +0.000 A 
ATOM      8  C   UNL     1       1.776   7.451  19.423  0.00  0.00    +0.000 A 
ATOM      9  C   UNL     1       2.125   5.408  20.857  0.00  0.00    +0.000 C 
ATOM     10  C   UNL     1       2.165   3.949  20.470  0.00  0.00    +0.000 C 
ATOM     11  C   UNL     1       3.458   3.584  19.770  0.00  0.00    +0.000 C 
ATOM     12  O   UNL     1       3.878   2.427  19.825  0.00  0.00    +0.000 OA
ATOM     13  N   UNL     1       4.061   4.572  18.992  0.00  0.00    +0.000 N 
ATOM     14  C   UNL     1       5.198   4.192  18.165  0.00  0.00    +0.000 C 
ATOM     15  C   UNL     1       6.016   5.387  17.701  0.00  0.00    +0.000 C 
ATOM     16  C   UNL     1       5.115   6.362  16.952  0.00  0.00    +0.000 C 
ENDBRANCH   2   3
BRANCH   2  17
ATOM     17  C   UNL     1       2.070  10.831  18.381  0.00  0.00    +0.000 C 
BRANCH  17  18
ATOM     18  C   UNL     1       1.158  12.019  18.661  0.00  0.00    +0.000 C 
BRANCH  18  19
ATOM     19  N   UNL     1       1.261  12.422  20.079  0.00  0.00    +0.000 NA
ATOM     20  C   UNL     1       0.511  13.676  20.327  0.00  0.00    +0.000 C 
ATOM     21  C   UNL     1      -1.031  13.529  20.318  0.00  0.00    +0.000 C 
ATOM     22  N   UNL     1      -1.436  12.480  21.268  0.00  0.00    +0.000 N 
ATOM     23  C   UNL     1      -0.754  11.188  21.084  0.00  0.00    +0.000 C 
ATOM     24  C   UNL     1       0.777  11.406  21.048  0.00  0.00    +0.000 C 
BRANCH  22  25
ATOM     25  C   UNL     1      -2.663  12.534  21.908  0.00  0.00    +0.000 A 
ATOM     26  C   UNL     1      -3.849  12.876  21.241  0.00  0.00    +0.000 A 
ATOM     27  C   UNL     1      -5.059  13.038  21.926  0.00  0.00    +0.000 A 
ATOM     28  C   UNL     1      -5.102  12.857  23.303  0.00  0.00    +0.000 A 
ATOM     29 CL   UNL     1      -6.574  13.102  24.158  0.00  0.00    +0.000 Cl
ATOM     30  C   UNL     1      -3.953  12.495  23.991  0.00  0.00    +0.000 A 
ATOM     31  C   UNL     1      -2.750  12.333  23.296  0.00  0.00    +0.000 A 
ENDBRANCH  22  25
ENDBRANCH  18  19
ENDBRANCH  17  18
ENDBRANCH   2  17
TORSDOF 5
ENDMDL
MODEL 8
REMARK VINA RESULT:      -8.1      3.913      5.626
REMARK  Name = 
REMARK  5 active torsions:
REMARK  status: ('A' for Active; 'I' for Inactive)
REMARK    1  A    between atoms: C_2  and  C_3
REMARK    2  A    between atoms: C_2  and  C_18
REMARK    3  A    between atoms: C_3  and  C_4
REMARK    4  A    between atoms: C_4  and  N_5
REMARK    5  A    between atoms: N_8  and  C_9
REMARK                            x       y       z     vdW  Elec       q    Type
REMARK                         _______ _______ _______ _____ _____    ______ ____
ROOT
ATOM      1  O   UNL     1       1.420   8.870  22.319  0.00  0.00    +0.000 OA
ATOM      2  C   UNL     1       1.064   8.609  21.173  0.00  0.00    +0.000 C 
ENDROOT
BRANCH   2   3
ATOM      3  C   UNL     1       1.623   7.420  20.450  0.00  0.00    +0.000 A 
ATOM      4  C   UNL     1       2.462   7.605  19.346  0.00  0.00    +0.000 A 
ATOM      5  C   UNL     1       2.958   6.496  18.639  0.00  0.00    +0.000 A 
ATOM      6  C   UNL     1       2.550   5.199  18.998  0.00  0.00    +0.000 A 
ATOM      7  C   UNL     1       1.770   5.011  20.141  0.00  0.00    +0.000 A 
ATOM      8  C   UNL     1       1.315   6.116  20.860  0.00  0.00    +0.000 A 
ATOM      9  C   UNL     1       1.526   3.616  20.631  0.00  0.00    +0.000 C 
ATOM     10  C   UNL     1       1.223   2.722  19.452  0.00  0.00    +0.000 C 
ATOM     11  C   UNL     1       2.280   2.834  18.372  0.00  0.00    +0.000 C 
ATOM     12  O   UNL     1       2.479   1.885  17.611  0.00  0.00    +0.000 OA
ATOM     13  N   UNL     1       2.908   4.069  18.221  0.00  0.00    +0.000 N 
ATOM     14  C   UNL     1       3.788   4.254  17.076  0.00  0.00    +0.000 C 
ATOM     15  C   UNL     1       4.719   5.446  17.232  0.00  0.00    +0.000 C 
ATOM     16  C   UNL     1       3.897   6.706  17.480  0.00  0.00    +0.000 C 
ENDBRANCH   2   3
BRANCH   2  17
ATOM     17  C   UNL     1       0.092   9.466  20.389  0.00  0.00    +0.000 C 
BRANCH  17  18
ATOM     18  C   UNL     1      -0.349  10.754  21.072  0.00  0.00    +0.000 C 
BRANCH  18  19
ATOM     19  N   UNL     1      -0.581  11.814  20.069  0.00  0.00    +0.000 NA
ATOM     20  C   UNL     1      -0.365  13.156  20.659  0.00  0.00    +0.000 C 
ATOM     21  C   UNL     1       1.116  13.521  20.931  0.00  0.00    +0.000 C 
ATOM     22  N   UNL     1       1.902  13.358  19.697  0.00  0.00    +0.000 N 
ATOM     23  C   UNL     1       1.765  12.044  19.050  0.00  0.00    +0.000 C 
ATOM     24  C   UNL     1       0.267  11.712  18.854  0.00  0.00    +0.000 C 
BRANCH  22  25
ATOM     25  C   UNL     1       3.023  14.137  19.459  0.00  0.00    +0.000 A 
ATOM     26  C   UNL     1       3.897  14.535  20.482  0.00  0.00    +0.000 A 
ATOM     27  C   UNL     1       4.958  15.417  20.242  0.00  0.00    +0.000 A 
ATOM     28  C   UNL     1       5.165  15.916  18.962  0.00  0.00    +0.000 A 
ATOM     29 CL   UNL     1       6.436  17.037  18.669  0.00  0.00    +0.000 Cl
ATOM     30  C   UNL     1       4.334  15.524  17.922  0.00  0.00    +0.000 A 
ATOM     31  C   UNL     1       3.278  14.641  18.173  0.00  0.00    +0.000 A 
ENDBRANCH  22  25
ENDBRANCH  18  19
ENDBRANCH  17  18
ENDBRANCH   2  17
TORSDOF 5
ENDMDL
MODEL 9
REMARK VINA RESULT:      -8.1      1.255      1.405
REMARK  Name = 
REMARK  5 active torsions:
REMARK  status: ('A' for Active; 'I' for Inactive)
REMARK    1  A    between atoms: C_2  and  C_3
REMARK    2  A    between atoms: C_2  and  C_18
REMARK    3  A    between atoms: C_3  and  C_4
REMARK    4  A    between atoms: C_4  and  N_5
REMARK    5  A    between atoms: N_8  and  C_9
REMARK                            x       y       z     vdW  Elec       q    Type
REMARK                         _______ _______ _______ _____ _____    ______ ____
ROOT
ATOM      1  O   UNL     1       0.876   9.514  21.131  0.00  0.00    +0.000 OA
ATOM      2  C   UNL     1       1.141   9.200  19.974  0.00  0.00    +0.000 C 
ENDROOT
BRANCH   2   3
ATOM      3  C   UNL     1       1.760   7.870  19.665  0.00  0.00    +0.000 A 
ATOM      4  C   UNL     1       2.595   7.729  18.550  0.00  0.00    +0.000 A 
ATOM      5  C   UNL     1       3.146   6.476  18.232  0.00  0.00    +0.000 A 
ATOM      6  C   UNL     1       2.799   5.345  18.994  0.00  0.00    +0.000 A 
ATOM      7  C   UNL     1       2.024   5.498  20.145  0.00  0.00    +0.000 A 
ATOM      8  C   UNL     1       1.513   6.754  20.475  0.00  0.00    +0.000 A 
ATOM      9  C   UNL     1       1.845   4.325  21.060  0.00  0.00    +0.000 C 
ATOM     10  C   UNL     1       1.590   3.087  20.234  0.00  0.00    +0.000 C 
ATOM     11  C   UNL     1       2.646   2.894  19.164  0.00  0.00    +0.000 C 
ATOM     12  O   UNL     1       2.895   1.762  18.747  0.00  0.00    +0.000 OA
ATOM     13  N   UNL     1       3.215   4.044  18.617  0.00  0.00    +0.000 N 
ATOM     14  C   UNL     1       4.091   3.891  17.464  0.00  0.00    +0.000 C 
ATOM     15  C   UNL     1       4.963   5.113  17.219  0.00  0.00    +0.000 C 
ATOM     16  C   UNL     1       4.081   6.346  17.057  0.00  0.00    +0.000 C 
ENDBRANCH   2   3
BRANCH   2  17
ATOM     17  C   UNL     1       0.919  10.120  18.790  0.00  0.00    +0.000 C 
BRANCH  17  18
ATOM     18  C   UNL     1       1.132  11.603  19.061  0.00  0.00    +0.000 C 
BRANCH  18  19
ATOM     19  N   UNL     1       0.052  12.398  18.440  0.00  0.00    +0.000 NA
ATOM     20  C   UNL     1      -1.200  11.609  18.351  0.00  0.00    +0.000 C 
ATOM     21  C   UNL     1      -1.929  11.384  19.699  0.00  0.00    +0.000 C 
ATOM     22  N   UNL     1      -2.171  12.680  20.355  0.00  0.00    +0.000 N 
ATOM     23  C   UNL     1      -0.976  13.525  20.505  0.00  0.00    +0.000 C 
ATOM     24  C   UNL     1      -0.263  13.669  19.140  0.00  0.00    +0.000 C 
BRANCH  22  25
ATOM     25  C   UNL     1      -3.261  12.862  21.190  0.00  0.00    +0.000 A 
ATOM     26  C   UNL     1      -3.127  13.182  22.549  0.00  0.00    +0.000 A 
ATOM     27  C   UNL     1      -4.236  13.249  23.403  0.00  0.00    +0.000 A 
ATOM     28  C   UNL     1      -5.507  12.996  22.904  0.00  0.00    +0.000 A 
ATOM     29 CL   UNL     1      -6.867  13.028  23.956  0.00  0.00    +0.000 Cl
ATOM     30  C   UNL     1      -5.679  12.701  21.558  0.00  0.00    +0.000 A 
ATOM     31  C   UNL     1      -4.565  12.639  20.715  0.00  0.00    +0.000 A 
ENDBRANCH  22  25
ENDBRANCH  18  19
ENDBRANCH  17  18
ENDBRANCH   2  17
TORSDOF 5
ENDMDL
