MODEL 1
REMARK VINA RESULT:      -8.1      0.000      0.000
REMARK  Name = 
REMARK  12 active torsions:
REMARK  status: ('A' for Active; 'I' for Inactive)
REMARK    1  A    between atoms: C_1  and  C_2
REMARK    2  A    between atoms: N_7  and  C_8
REMARK    3  A    between atoms: C_11  and  C_12
REMARK    4  A    between atoms: C_12  and  N_13
REMARK    5  A    between atoms: N_13  and  C_14
REMARK    6  A    between atoms: N_13  and  S_18
REMARK    7  A    between atoms: C_14  and  C_15
REMARK    8  A    between atoms: C_15  and  C_16
REMARK    9  A    between atoms: C_15  and  C_17
REMARK   10  A    between atoms: S_18  and  C_21
REMARK   11  A    between atoms: C_21  and  C_22
REMARK   12  A    between atoms: C_28  and  C_29
REMARK                            x       y       z     vdW  Elec       q    Type
REMARK                         _______ _______ _______ _____ _____    ______ ____
ROOT
ATOM      1  C   UNL     1       1.580   8.711  19.086  0.00  0.00    +0.000 A 
ATOM      2  C   UNL     1       2.445   8.489  18.011  0.00  0.00    +0.000 A 
ATOM      3  C   UNL     1       3.270   7.361  17.956  0.00  0.00    +0.000 A 
ATOM      4  C   UNL     1       3.325   6.481  19.034  0.00  0.00    +0.000 A 
ATOM      5  C   UNL     1       2.262   6.517  19.952  0.00  0.00    +0.000 A 
ATOM      6  C   UNL     1       1.946   5.382  20.887  0.00  0.00    +0.000 C 
ATOM      7  C   UNL     1       1.428   7.652  19.985  0.00  0.00    +0.000 A 
ENDROOT
BRANCH   1  14
ATOM      8  C   UNL     1      -0.233  14.798  19.048  0.00  0.00    +0.000 C 
ATOM      9  C   UNL     1      -0.818  13.659  19.843  0.00  0.00    +0.000 C 
ATOM     10  O   UNL     1      -1.943  13.759  20.331  0.00  0.00    +0.000 OA
ATOM     11  N   UNL     1      -0.058  12.510  19.943  0.00  0.00    +0.000 N 
ATOM     12  C   UNL     1      -0.617  11.315  20.586  0.00  0.00    +0.000 C 
ATOM     13  C   UNL     1      -0.431  10.056  19.707  0.00  0.00    +0.000 C 
ATOM     14  N   UNL     1       0.977   9.942  19.271  0.00  0.00    +0.000 N 
ATOM     15  C   UNL     1       1.518  11.135  18.606  0.00  0.00    +0.000 C 
ATOM     16  C   UNL     1       1.338  12.364  19.513  0.00  0.00    +0.000 C 
ENDBRANCH   1  14
BRANCH   4  17
ATOM     17  C   UNL     1       4.502   5.548  19.224  0.00  0.00    +0.000 C 
BRANCH  17  18
ATOM     18  N   UNL     1       4.764   4.472  18.178  0.00  0.00    +0.000 NA
BRANCH  18  19
ATOM     19  S   UNL     1       6.077   5.040  17.095  0.00  0.00    +0.000 S 
ATOM     20  O   UNL     1       6.499   6.339  17.600  0.00  0.00    +0.000 OA
ATOM     21  O   UNL     1       7.025   3.954  16.978  0.00  0.00    +0.000 OA
BRANCH  19  22
ATOM     22  C   UNL     1       5.225   5.292  15.535  0.00  0.00    +0.000 C 
BRANCH  22  23
ATOM     23  C   UNL     1       5.980   4.777  14.319  0.00  0.00    +0.000 A 
ATOM     24  C   UNL     1       5.322   3.831  13.507  0.00  0.00    +0.000 A 
ATOM     25  C   UNL     1       5.885   3.373  12.314  0.00  0.00    +0.000 A 
ATOM     26  C   UNL     1       7.123   3.855  11.903  0.00  0.00    +0.000 A 
ATOM     27  C   UNL     1       7.791   4.791  12.688  0.00  0.00    +0.000 A 
ATOM     28  C   UNL     1       7.223   5.256  13.881  0.00  0.00    +0.000 A 
ENDBRANCH  22  23
ENDBRANCH  19  22
ENDBRANCH  18  19
BRANCH  18  29
ATOM     29  C   UNL     1       3.556   4.141  17.279  0.00  0.00    +0.000 C 
BRANCH  29  30
ATOM     30  C   UNL     1       2.781   2.839  17.567  0.00  0.00    +0.000 C 
ATOM     31  C   UNL     1       3.592   1.905  18.481  0.00  0.00    +0.000 C 
ATOM     32  C   UNL     1       1.421   3.060  18.237  0.00  0.00    +0.000 C 
ENDBRANCH  29  30
ENDBRANCH  18  29
ENDBRANCH  17  18
ENDBRANCH   4  17
TORSDOF 8
ENDMDL
MODEL 2
REMARK VINA RESULT:      -8.0      0.797      1.014
REMARK  Name = 
REMARK  12 active torsions:
REMARK  status: ('A' for Active; 'I' for Inactive)
REMARK    1  A    between atoms: C_1  and  C_2
REMARK    2  A    between atoms: N_7  and  C_8
REMARK    3  A    between atoms: C_11  and  C_12
REMARK    4  A    between atoms: C_12  and  N_13
REMARK    5  A    between atoms: N_13  and  C_14
REMARK    6  A    between atoms: N_13  and  S_18
REMARK    7  A    between atoms: C_14  and  C_15
REMARK    8  A    between atoms: C_15  and  C_16
REMARK    9  A    between atoms: C_15  and  C_17
REMARK   10  A    between atoms: S_18  and  C_21
REMARK   11  A    between atoms: C_21  and  C_22
REMARK   12  A    between atoms: C_28  and  C_29
REMARK                            x       y       z     vdW  Elec       q    Type
REMARK                         _______ _______ _______ _____ _____    ______ ____
ROOT
ATOM      1  C   UNL     1       2.058   8.033  19.138  0.00  0.00    +0.000 A 
ATOM      2  C   UNL     1       2.965   7.912  18.081  0.00  0.00    +0.000 A 
ATOM      3  C   UNL     1       3.888   6.863  18.023  0.00  0.00    +0.000 A 
ATOM      4  C   UNL     1       3.994   5.967  19.084  0.00  0.00    +0.000 A 
ATOM      5  C   UNL     1       2.911   5.889  19.975  0.00  0.00    +0.000 A 
ATOM      6  C   UNL     1       2.675   4.708  20.877  0.00  0.00    +0.000 C 
ATOM      7  C   UNL     1       1.980   6.944  20.011  0.00  0.00    +0.000 A 
ENDROOT
BRANCH   1  14
ATOM      8  C   UNL     1      -0.791  13.697  18.764  0.00  0.00    +0.000 C 
ATOM      9  C   UNL     1      -0.784  12.735  19.924  0.00  0.00    +0.000 C 
ATOM     10  O   UNL     1      -1.628  12.834  20.815  0.00  0.00    +0.000 OA
ATOM     11  N   UNL     1       0.166  11.733  19.901  0.00  0.00    +0.000 N 
ATOM     12  C   UNL     1       0.148  10.682  20.925  0.00  0.00    +0.000 C 
ATOM     13  C   UNL     1       0.223   9.272  20.295  0.00  0.00    +0.000 C 
ATOM     14  N   UNL     1       1.344   9.201  19.333  0.00  0.00    +0.000 N 
ATOM     15  C   UNL     1       1.337  10.243  18.297  0.00  0.00    +0.000 C 
ATOM     16  C   UNL     1       1.284  11.632  18.955  0.00  0.00    +0.000 C 
ENDBRANCH   1  14
BRANCH   4  17
ATOM     17  C   UNL     1       5.244   5.138  19.284  0.00  0.00    +0.000 C 
BRANCH  17  18
ATOM     18  N   UNL     1       5.679   4.183  18.179  0.00  0.00    +0.000 NA
BRANCH  18  19
ATOM     19  S   UNL     1       6.785   5.061  17.072  0.00  0.00    +0.000 S 
ATOM     20  O   UNL     1       7.081   6.337  17.708  0.00  0.00    +0.000 OA
ATOM     21  O   UNL     1       7.851   4.145  16.730  0.00  0.00    +0.000 OA
BRANCH  19  22
ATOM     22  C   UNL     1       5.750   5.373  15.639  0.00  0.00    +0.000 C 
BRANCH  22  23
ATOM     23  C   UNL     1       6.314   4.838  14.331  0.00  0.00    +0.000 A 
ATOM     24  C   UNL     1       5.577   3.829  13.678  0.00  0.00    +0.000 A 
ATOM     25  C   UNL     1       5.953   3.345  12.424  0.00  0.00    +0.000 A 
ATOM     26  C   UNL     1       7.077   3.862  11.790  0.00  0.00    +0.000 A 
ATOM     27  C   UNL     1       7.820   4.861  12.415  0.00  0.00    +0.000 A 
ATOM     28  C   UNL     1       7.439   5.353  13.670  0.00  0.00    +0.000 A 
ENDBRANCH  22  23
ENDBRANCH  19  22
ENDBRANCH  18  19
BRANCH  18  29
ATOM     29  C   UNL     1       4.527   3.633  17.314  0.00  0.00    +0.000 C 
BRANCH  29  30
ATOM     30  C   UNL     1       3.364   2.922  18.035  0.00  0.00    +0.000 C 
ATOM     31  C   UNL     1       2.016   3.266  17.379  0.00  0.00    +0.000 C 
ATOM     32  C   UNL     1       3.483   1.395  18.052  0.00  0.00    +0.000 C 
ENDBRANCH  29  30
ENDBRANCH  18  29
ENDBRANCH  17  18
ENDBRANCH   4  17
TORSDOF 8
ENDMDL
MODEL 3
REMARK VINA RESULT:      -7.9      1.027      1.410
REMARK  Name = 
REMARK  12 active torsions:
REMARK  status: ('A' for Active; 'I' for Inactive)
REMARK    1  A    between atoms: C_1  and  C_2
REMARK    2  A    between atoms: N_7  and  C_8
REMARK    3  A    between atoms: C_11  and  C_12
REMARK    4  A    between atoms: C_12  and  N_13
REMARK    5  A    between atoms: N_13  and  C_14
REMARK    6  A    between atoms: N_13  and  S_18
REMARK    7  A    between atoms: C_14  and  C_15
REMARK    8  A    between atoms: C_15  and  C_16
REMARK    9  A    between atoms: C_15  and  C_17
REMARK   10  A    between atoms: S_18  and  C_21
REMARK   11  A    between atoms: C_21  and  C_22
REMARK   12  A    between atoms: C_28  and  C_29
REMARK                            x       y       z     vdW  Elec       q    Type
REMARK                         _______ _______ _______ _____ _____    ______ ____
ROOT
ATOM      1  C   UNL     1       1.721   8.067  19.456  0.00  0.00    +0.000 A 
ATOM      2  C   UNL     1       2.578   8.049  18.351  0.00  0.00    +0.000 A 
ATOM      3  C   UNL     1       3.561   7.065  18.202  0.00  0.00    +0.000 A 
ATOM      4  C   UNL     1       3.779   6.135  19.216  0.00  0.00    +0.000 A 
ATOM      5  C   UNL     1       2.751   5.950  20.154  0.00  0.00    +0.000 A 
ATOM      6  C   UNL     1       2.637   4.720  21.014  0.00  0.00    +0.000 C 
ATOM      7  C   UNL     1       1.757   6.940  20.282  0.00  0.00    +0.000 A 
ENDROOT
BRANCH   1  14
ATOM      8  C   UNL     1      -1.316  13.021  22.017  0.00  0.00    +0.000 C 
ATOM      9  C   UNL     1      -1.403  12.508  20.603  0.00  0.00    +0.000 C 
ATOM     10  O   UNL     1      -1.846  13.229  19.709  0.00  0.00    +0.000 OA
ATOM     11  N   UNL     1      -0.919  11.236  20.367  0.00  0.00    +0.000 N 
ATOM     12  C   UNL     1      -0.847  10.722  18.995  0.00  0.00    +0.000 C 
ATOM     13  C   UNL     1       0.548  10.131  18.682  0.00  0.00    +0.000 C 
ATOM     14  N   UNL     1       0.947   9.176  19.738  0.00  0.00    +0.000 N 
ATOM     15  C   UNL     1       0.895   9.711  21.106  0.00  0.00    +0.000 C 
ATOM     16  C   UNL     1      -0.509  10.270  21.394  0.00  0.00    +0.000 C 
ENDBRANCH   1  14
BRANCH   4  17
ATOM     17  C   UNL     1       5.088   5.382  19.317  0.00  0.00    +0.000 C 
BRANCH  17  18
ATOM     18  N   UNL     1       5.433   4.359  18.242  0.00  0.00    +0.000 NA
BRANCH  18  19
ATOM     19  S   UNL     1       6.482   5.151  17.020  0.00  0.00    +0.000 S 
ATOM     20  O   UNL     1       6.691   6.517  17.476  0.00  0.00    +0.000 OA
ATOM     21  O   UNL     1       7.608   4.270  16.798  0.00  0.00    +0.000 OA
BRANCH  19  22
ATOM     22  C   UNL     1       5.432   5.196  15.564  0.00  0.00    +0.000 C 
BRANCH  22  23
ATOM     23  C   UNL     1       6.115   4.733  14.286  0.00  0.00    +0.000 A 
ATOM     24  C   UNL     1       5.440   3.769  13.510  0.00  0.00    +0.000 A 
ATOM     25  C   UNL     1       5.931   3.354  12.270  0.00  0.00    +0.000 A 
ATOM     26  C   UNL     1       7.110   3.898  11.775  0.00  0.00    +0.000 A 
ATOM     27  C   UNL     1       7.794   4.854  12.523  0.00  0.00    +0.000 A 
ATOM     28  C   UNL     1       7.298   5.276  13.764  0.00  0.00    +0.000 A 
ENDBRANCH  22  23
ENDBRANCH  19  22
ENDBRANCH  18  19
BRANCH  18  29
ATOM     29  C   UNL     1       4.219   3.787  17.484  0.00  0.00    +0.000 C 
BRANCH  29  30
ATOM     30  C   UNL     1       3.252   2.872  18.262  0.00  0.00    +0.000 C 
ATOM     31  C   UNL     1       1.802   3.070  17.788  0.00  0.00    +0.000 C 
ATOM     32  C   UNL     1       3.570   1.378  18.133  0.00  0.00    +0.000 C 
ENDBRANCH  29  30
ENDBRANCH  18  29
ENDBRANCH  17  18
ENDBRANCH   4  17
TORSDOF 8
ENDMDL
MODEL 4
REMARK VINA RESULT:      -7.9      0.682      1.142
REMARK  Name = 
REMARK  12 active torsions:
REMARK  status: ('A' for Active; 'I' for Inactive)
REMARK    1  A    between atoms: C_1  and  C_2
REMARK    2  A    between atoms: N_7  and  C_8
REMARK    3  A    between atoms: C_11  and  C_12
REMARK    4  A    between atoms: C_12  and  N_13
REMARK    5  A    between atoms: N_13  and  C_14
REMARK    6  A    between atoms: N_13  and  S_18
REMARK    7  A    between atoms: C_14  and  C_15
REMARK    8  A    between atoms: C_15  and  C_16
REMARK    9  A    between atoms: C_15  and  C_17
REMARK   10  A    between atoms: S_18  and  C_21
REMARK   11  A    between atoms: C_21  and  C_22
REMARK   12  A    between atoms: C_28  and  C_29
REMARK                            x       y       z     vdW  Elec       q    Type
REMARK                         _______ _______ _______ _____ _____    ______ ____
ROOT
ATOM      1  C   UNL     1       1.368   9.077  19.105  0.00  0.00    +0.000 A 
ATOM      2  C   UNL     1       2.180   8.870  17.986  0.00  0.00    +0.000 A 
ATOM      3  C   UNL     1       2.999   7.742  17.873  0.00  0.00    +0.000 A 
ATOM      4  C   UNL     1       3.105   6.846  18.935  0.00  0.00    +0.000 A 
ATOM      5  C   UNL     1       2.088   6.870  19.904  0.00  0.00    +0.000 A 
ATOM      6  C   UNL     1       1.815   5.721  20.836  0.00  0.00    +0.000 C 
ATOM      7  C   UNL     1       1.259   8.005  19.995  0.00  0.00    +0.000 A 
ENDROOT
BRANCH   1  14
ATOM      8  C   UNL     1      -0.289  15.199  19.434  0.00  0.00    +0.000 C 
ATOM      9  C   UNL     1      -0.983  14.014  20.055  0.00  0.00    +0.000 C 
ATOM     10  O   UNL     1      -2.152  14.107  20.427  0.00  0.00    +0.000 OA
ATOM     11  N   UNL     1      -0.266  12.836  20.129  0.00  0.00    +0.000 N 
ATOM     12  C   UNL     1      -0.918  11.608  20.596  0.00  0.00    +0.000 C 
ATOM     13  C   UNL     1      -0.667  10.427  19.630  0.00  0.00    +0.000 C 
ATOM     14  N   UNL     1       0.778  10.305  19.338  0.00  0.00    +0.000 N 
ATOM     15  C   UNL     1       1.415  11.535  18.846  0.00  0.00    +0.000 C 
ATOM     16  C   UNL     1       1.165  12.684  19.839  0.00  0.00    +0.000 C 
ENDBRANCH   1  14
BRANCH   4  17
ATOM     17  C   UNL     1       4.288   5.910  19.053  0.00  0.00    +0.000 C 
BRANCH  17  18
ATOM     18  N   UNL     1       4.479   4.829  17.997  0.00  0.00    +0.000 NA
BRANCH  18  19
ATOM     19  S   UNL     1       5.668   5.419  16.789  0.00  0.00    +0.000 S 
ATOM     20  O   UNL     1       4.933   6.275  15.869  0.00  0.00    +0.000 OA
ATOM     21  O   UNL     1       6.799   5.935  17.529  0.00  0.00    +0.000 OA
BRANCH  19  22
ATOM     22  C   UNL     1       6.128   3.918  15.918  0.00  0.00    +0.000 C 
BRANCH  22  23
ATOM     23  C   UNL     1       6.392   4.113  14.432  0.00  0.00    +0.000 A 
ATOM     24  C   UNL     1       7.441   4.984  14.075  0.00  0.00    +0.000 A 
ATOM     25  C   UNL     1       7.831   5.152  12.744  0.00  0.00    +0.000 A 
ATOM     26  C   UNL     1       7.180   4.448  11.738  0.00  0.00    +0.000 A 
ATOM     27  C   UNL     1       6.142   3.580  12.067  0.00  0.00    +0.000 A 
ATOM     28  C   UNL     1       5.755   3.405  13.402  0.00  0.00    +0.000 A 
ENDBRANCH  22  23
ENDBRANCH  19  22
ENDBRANCH  18  19
BRANCH  18  29
ATOM     29  C   UNL     1       3.201   4.456  17.220  0.00  0.00    +0.000 C 
BRANCH  29  30
ATOM     30  C   UNL     1       2.577   3.071  17.486  0.00  0.00    +0.000 C 
ATOM     31  C   UNL     1       3.574   2.145  18.203  0.00  0.00    +0.000 C 
ATOM     32  C   UNL     1       1.305   3.115  18.339  0.00  0.00    +0.000 C 
ENDBRANCH  29  30
ENDBRANCH  18  29
ENDBRANCH  17  18
ENDBRANCH   4  17
TORSDOF 8
ENDMDL
MODEL 5
REMARK VINA RESULT:      -7.9      1.943      2.675
REMARK  Name = 
REMARK  12 active torsions:
REMARK  status: ('A' for Active; 'I' for Inactive)
REMARK    1  A    between atoms: C_1  and  C_2
REMARK    2  A    between atoms: N_7  and  C_8
REMARK    3  A    between atoms: C_11  and  C_12
REMARK    4  A    between atoms: C_12  and  N_13
REMARK    5  A    between atoms: N_13  and  C_14
REMARK    6  A    between atoms: N_13  and  S_18
REMARK    7  A    between atoms: C_14  and  C_15
REMARK    8  A    between atoms: C_15  and  C_16
REMARK    9  A    between atoms: C_15  and  C_17
REMARK   10  A    between atoms: S_18  and  C_21
REMARK   11  A    between atoms: C_21  and  C_22
REMARK   12  A    between atoms: C_28  and  C_29
REMARK                            x       y       z     vdW  Elec       q    Type
REMARK                         _______ _______ _______ _____ _____    ______ ____
ROOT
ATOM      1  C   UNL     1       0.844   9.026  20.639  0.00  0.00    +0.000 A 
ATOM      2  C   UNL     1       1.332   7.939  21.371  0.00  0.00    +0.000 A 
ATOM      3  C   UNL     1       2.121   6.949  20.777  0.00  0.00    +0.000 A 
ATOM      4  C   UNL     1       2.350   6.970  19.403  0.00  0.00    +0.000 A 
ATOM      5  C   UNL     1       2.142   8.186  18.731  0.00  0.00    +0.000 A 
ATOM      6  C   UNL     1       2.745   8.495  17.388  0.00  0.00    +0.000 C 
ATOM      7  C   UNL     1       1.360   9.181  19.349  0.00  0.00    +0.000 A 
ENDROOT
BRANCH   1  14
ATOM      8  C   UNL     1      -3.914  13.102  21.675  0.00  0.00    +0.000 C 
ATOM      9  C   UNL     1      -3.117  12.327  22.692  0.00  0.00    +0.000 C 
ATOM     10  O   UNL     1      -3.551  12.175  23.833  0.00  0.00    +0.000 OA
ATOM     11  N   UNL     1      -1.929  11.768  22.263  0.00  0.00    +0.000 N 
ATOM     12  C   UNL     1      -1.167  10.889  23.157  0.00  0.00    +0.000 C 
ATOM     13  C   UNL     1      -0.779   9.565  22.459  0.00  0.00    +0.000 C 
ATOM     14  N   UNL     1      -0.146   9.843  21.152  0.00  0.00    +0.000 N 
ATOM     15  C   UNL     1      -0.930  10.703  20.255  0.00  0.00    +0.000 C 
ATOM     16  C   UNL     1      -1.280  12.020  20.970  0.00  0.00    +0.000 C 
ENDBRANCH   1  14
BRANCH   4  17
ATOM     17  C   UNL     1       2.774   5.720  18.662  0.00  0.00    +0.000 C 
BRANCH  17  18
ATOM     18  N   UNL     1       3.620   4.684  19.392  0.00  0.00    +0.000 NA
BRANCH  18  19
ATOM     19  S   UNL     1       5.310   4.813  18.803  0.00  0.00    +0.000 S 
ATOM     20  O   UNL     1       6.039   5.580  19.803  0.00  0.00    +0.000 OA
ATOM     21  O   UNL     1       5.734   3.476  18.448  0.00  0.00    +0.000 OA
BRANCH  19  22
ATOM     22  C   UNL     1       5.142   5.824  17.329  0.00  0.00    +0.000 C 
BRANCH  22  23
ATOM     23  C   UNL     1       5.722   5.196  16.071  0.00  0.00    +0.000 A 
ATOM     24  C   UNL     1       4.835   4.475  15.246  0.00  0.00    +0.000 A 
ATOM     25  C   UNL     1       5.243   3.949  14.018  0.00  0.00    +0.000 A 
ATOM     26  C   UNL     1       6.550   4.135  13.585  0.00  0.00    +0.000 A 
ATOM     27  C   UNL     1       7.444   4.847  14.382  0.00  0.00    +0.000 A 
ATOM     28  C   UNL     1       7.033   5.381  15.610  0.00  0.00    +0.000 A 
ENDBRANCH  22  23
ENDBRANCH  19  22
ENDBRANCH  18  19
BRANCH  18  29
ATOM     29  C   UNL     1       3.180   3.223  19.169  0.00  0.00    +0.000 C 
BRANCH  29  30
ATOM     30  C   UNL     1       2.083   2.654  20.092  0.00  0.00    +0.000 C 
ATOM     31  C   UNL     1       2.225   3.204  21.521  0.00  0.00    +0.000 C 
ATOM     32  C   UNL     1       0.657   2.962  19.627  0.00  0.00    +0.000 C 
ENDBRANCH  29  30
ENDBRANCH  18  29
ENDBRANCH  17  18
ENDBRANCH   4  17
TORSDOF 8
ENDMDL
MODEL 6
REMARK VINA RESULT:      -7.8      1.279      1.921
REMARK  Name = 
REMARK  12 active torsions:
REMARK  status: ('A' for Active; 'I' for Inactive)
REMARK    1  A    between atoms: C_1  and  C_2
REMARK    2  A    between atoms: N_7  and  C_8
REMARK    3  A    between atoms: C_11  and  C_12
REMARK    4  A    between atoms: C_12  and  N_13
REMARK    5  A    between atoms: N_13  and  C_14
REMARK    6  A    between atoms: N_13  and  S_18
REMARK    7  A    between atoms: C_14  and  C_15
REMARK    8  A    between atoms: C_15  and  C_16
REMARK    9  A    between atoms: C_15  and  C_17
REMARK   10  A    between atoms: S_18  and  C_21
REMARK   11  A    between atoms: C_21  and  C_22
REMARK   12  A    between atoms: C_28  and  C_29
REMARK                            x       y       z     vdW  Elec       q    Type
REMARK                         _______ _______ _______ _____ _____    ______ ____
ROOT
ATOM      1  C   UNL     1       1.443   8.266  19.848  0.00  0.00    +0.000 A 
ATOM      2  C   UNL     1       2.197   8.292  18.671  0.00  0.00    +0.000 A 
ATOM      3  C   UNL     1       3.112   7.279  18.365  0.00  0.00    +0.000 A 
ATOM      4  C   UNL     1       3.372   6.269  19.288  0.00  0.00    +0.000 A 
ATOM      5  C   UNL     1       2.422   6.061  20.302  0.00  0.00    +0.000 A 
ATOM      6  C   UNL     1       2.323   4.778  21.082  0.00  0.00    +0.000 C 
ATOM      7  C   UNL     1       1.495   7.081  20.589  0.00  0.00    +0.000 A 
ENDROOT
BRANCH   1  14
ATOM      8  C   UNL     1      -1.168  13.100  23.034  0.00  0.00    +0.000 C 
ATOM      9  C   UNL     1      -1.341  12.745  21.580  0.00  0.00    +0.000 C 
ATOM     10  O   UNL     1      -1.768  13.581  20.785  0.00  0.00    +0.000 OA
ATOM     11  N   UNL     1      -0.950  11.477  21.194  0.00  0.00    +0.000 N 
ATOM     12  C   UNL     1      -0.962  11.106  19.774  0.00  0.00    +0.000 C 
ATOM     13  C   UNL     1       0.378  10.468  19.342  0.00  0.00    +0.000 C 
ATOM     14  N   UNL     1       0.754   9.385  20.276  0.00  0.00    +0.000 N 
ATOM     15  C   UNL     1       0.787   9.776  21.693  0.00  0.00    +0.000 C 
ATOM     16  C   UNL     1      -0.565  10.386  22.097  0.00  0.00    +0.000 C 
ENDBRANCH   1  14
BRANCH   4  17
ATOM     17  C   UNL     1       4.644   5.453  19.216  0.00  0.00    +0.000 C 
BRANCH  17  18
ATOM     18  N   UNL     1       4.977   4.721  17.923  0.00  0.00    +0.000 NA
BRANCH  18  19
ATOM     19  S   UNL     1       5.909   5.830  16.864  0.00  0.00    +0.000 S 
ATOM     20  O   UNL     1       4.984   6.305  15.846  0.00  0.00    +0.000 OA
ATOM     21  O   UNL     1       6.590   6.766  17.732  0.00  0.00    +0.000 OA
BRANCH  19  22
ATOM     22  C   UNL     1       7.094   4.732  16.082  0.00  0.00    +0.000 C 
BRANCH  22  23
ATOM     23  C   UNL     1       6.866   4.526  14.592  0.00  0.00    +0.000 A 
ATOM     24  C   UNL     1       7.746   5.186  13.710  0.00  0.00    +0.000 A 
ATOM     25  C   UNL     1       7.688   4.981  12.330  0.00  0.00    +0.000 A 
ATOM     26  C   UNL     1       6.748   4.106  11.799  0.00  0.00    +0.000 A 
ATOM     27  C   UNL     1       5.870   3.441  12.651  0.00  0.00    +0.000 A 
ATOM     28  C   UNL     1       5.932   3.640  14.036  0.00  0.00    +0.000 A 
ENDBRANCH  22  23
ENDBRANCH  19  22
ENDBRANCH  18  19
BRANCH  18  29
ATOM     29  C   UNL     1       3.751   4.256  17.113  0.00  0.00    +0.000 C 
BRANCH  29  30
ATOM     30  C   UNL     1       2.663   3.452  17.853  0.00  0.00    +0.000 C 
ATOM     31  C   UNL     1       1.257   3.935  17.461  0.00  0.00    +0.000 C 
ATOM     32  C   UNL     1       2.715   1.944  17.587  0.00  0.00    +0.000 C 
ENDBRANCH  29  30
ENDBRANCH  18  29
ENDBRANCH  17  18
ENDBRANCH   4  17
TORSDOF 8
ENDMDL
MODEL 7
REMARK VINA RESULT:      -7.8      1.821      2.685
REMARK  Name = 
REMARK  12 active torsions:
REMARK  status: ('A' for Active; 'I' for Inactive)
REMARK    1  A    between atoms: C_1  and  C_2
REMARK    2  A    between atoms: N_7  and  C_8
REMARK    3  A    between atoms: C_11  and  C_12
REMARK    4  A    between atoms: C_12  and  N_13
REMARK    5  A    between atoms: N_13  and  C_14
REMARK    6  A    between atoms: N_13  and  S_18
REMARK    7  A    between atoms: C_14  and  C_15
REMARK    8  A    between atoms: C_15  and  C_16
REMARK    9  A    between atoms: C_15  and  C_17
REMARK   10  A    between atoms: S_18  and  C_21
REMARK   11  A    between atoms: C_21  and  C_22
REMARK   12  A    between atoms: C_28  and  C_29
REMARK                            x       y       z     vdW  Elec       q    Type
REMARK                         _______ _______ _______ _____ _____    ______ ____
ROOT
ATOM      1  C   UNL     1       0.985   8.873  20.508  0.00  0.00    +0.000 A 
ATOM      2  C   UNL     1       1.383   7.720  21.190  0.00  0.00    +0.000 A 
ATOM      3  C   UNL     1       2.146   6.727  20.567  0.00  0.00    +0.000 A 
ATOM      4  C   UNL     1       2.438   6.819  19.208  0.00  0.00    +0.000 A 
ATOM      5  C   UNL     1       2.322   8.083  18.607  0.00  0.00    +0.000 A 
ATOM      6  C   UNL     1       2.999   8.440  17.312  0.00  0.00    +0.000 C 
ATOM      7  C   UNL     1       1.565   9.079  19.253  0.00  0.00    +0.000 A 
ENDROOT
BRANCH   1  14
ATOM      8  C   UNL     1      -3.635  13.093  21.595  0.00  0.00    +0.000 C 
ATOM      9  C   UNL     1      -2.891  12.251  22.599  0.00  0.00    +0.000 C 
ATOM     10  O   UNL     1      -3.356  12.075  23.725  0.00  0.00    +0.000 OA
ATOM     11  N   UNL     1      -1.716  11.662  22.174  0.00  0.00    +0.000 N 
ATOM     12  C   UNL     1      -1.008  10.722  23.051  0.00  0.00    +0.000 C 
ATOM     13  C   UNL     1      -0.656   9.410  22.313  0.00  0.00    +0.000 C 
ATOM     14  N   UNL     1       0.016   9.709  21.030  0.00  0.00    +0.000 N 
ATOM     15  C   UNL     1      -0.715  10.632  20.150  0.00  0.00    +0.000 C 
ATOM     16  C   UNL     1      -1.030  11.934  20.905  0.00  0.00    +0.000 C 
ENDBRANCH   1  14
BRANCH   4  17
ATOM     17  C   UNL     1       2.830   5.595  18.408  0.00  0.00    +0.000 C 
BRANCH  17  18
ATOM     18  N   UNL     1       3.761   4.569  19.041  0.00  0.00    +0.000 NA
BRANCH  18  19
ATOM     19  S   UNL     1       4.967   4.061  17.813  0.00  0.00    +0.000 S 
ATOM     20  O   UNL     1       6.275   4.197  18.436  0.00  0.00    +0.000 OA
ATOM     21  O   UNL     1       4.527   2.784  17.296  0.00  0.00    +0.000 OA
BRANCH  19  22
ATOM     22  C   UNL     1       4.809   5.330  16.552  0.00  0.00    +0.000 C 
BRANCH  22  23
ATOM     23  C   UNL     1       5.475   4.983  15.230  0.00  0.00    +0.000 A 
ATOM     24  C   UNL     1       6.781   5.472  15.021  0.00  0.00    +0.000 A 
ATOM     25  C   UNL     1       7.519   5.125  13.887  0.00  0.00    +0.000 A 
ATOM     26  C   UNL     1       6.967   4.276  12.935  0.00  0.00    +0.000 A 
ATOM     27  C   UNL     1       5.680   3.779  13.121  0.00  0.00    +0.000 A 
ATOM     28  C   UNL     1       4.942   4.121  14.262  0.00  0.00    +0.000 A 
ENDBRANCH  22  23
ENDBRANCH  19  22
ENDBRANCH  18  19
BRANCH  18  29
ATOM     29  C   UNL     1       3.064   3.288  19.539  0.00  0.00    +0.000 C 
BRANCH  29  30
ATOM     30  C   UNL     1       1.566   3.377  19.897  0.00  0.00    +0.000 C 
ATOM     31  C   UNL     1       0.734   2.412  19.037  0.00  0.00    +0.000 C 
ATOM     32  C   UNL     1       1.258   3.058  21.364  0.00  0.00    +0.000 C 
ENDBRANCH  29  30
ENDBRANCH  18  29
ENDBRANCH  17  18
ENDBRANCH   4  17
TORSDOF 8
ENDMDL
MODEL 8
REMARK VINA RESULT:      -7.8      2.334      4.610
REMARK  Name = 
REMARK  12 active torsions:
REMARK  status: ('A' for Active; 'I' for Inactive)
REMARK    1  A    between atoms: C_1  and  C_2
REMARK    2  A    between atoms: N_7  and  C_8
REMARK    3  A    between atoms: C_11  and  C_12
REMARK    4  A    between atoms: C_12  and  N_13
REMARK    5  A    between atoms: N_13  and  C_14
REMARK    6  A    between atoms: N_13  and  S_18
REMARK    7  A    between atoms: C_14  and  C_15
REMARK    8  A    between atoms: C_15  and  C_16
REMARK    9  A    between atoms: C_15  and  C_17
REMARK   10  A    between atoms: S_18  and  C_21
REMARK   11  A    between atoms: C_21  and  C_22
REMARK   12  A    between atoms: C_28  and  C_29
REMARK                            x       y       z     vdW  Elec       q    Type
REMARK                         _______ _______ _______ _____ _____    ______ ____
ROOT
ATOM      1  C   UNL     1       1.326   9.585  19.119  0.00  0.00    +0.000 A 
ATOM      2  C   UNL     1       1.946   9.316  17.895  0.00  0.00    +0.000 A 
ATOM      3  C   UNL     1       2.674   8.141  17.685  0.00  0.00    +0.000 A 
ATOM      4  C   UNL     1       2.889   7.254  18.737  0.00  0.00    +0.000 A 
ATOM      5  C   UNL     1       2.033   7.349  19.847  0.00  0.00    +0.000 A 
ATOM      6  C   UNL     1       1.841   6.230  20.834  0.00  0.00    +0.000 C 
ATOM      7  C   UNL     1       1.293   8.532  20.038  0.00  0.00    +0.000 A 
ENDROOT
BRANCH   1  14
ATOM      8  C   UNL     1      -0.969  14.893  21.744  0.00  0.00    +0.000 C 
ATOM      9  C   UNL     1      -0.617  14.648  20.299  0.00  0.00    +0.000 C 
ATOM     10  O   UNL     1      -0.441  15.597  19.536  0.00  0.00    +0.000 OA
ATOM     11  N   UNL     1      -0.456  13.333  19.908  0.00  0.00    +0.000 N 
ATOM     12  C   UNL     1       0.017  13.024  18.554  0.00  0.00    +0.000 C 
ATOM     13  C   UNL     1       1.193  12.020  18.578  0.00  0.00    +0.000 C 
ATOM     14  N   UNL     1       0.848  10.849  19.412  0.00  0.00    +0.000 N 
ATOM     15  C   UNL     1       0.400  11.170  20.774  0.00  0.00    +0.000 C 
ATOM     16  C   UNL     1      -0.783  12.152  20.715  0.00  0.00    +0.000 C 
ENDBRANCH   1  14
BRANCH   4  17
ATOM     17  C   UNL     1       4.021   6.251  18.696  0.00  0.00    +0.000 C 
BRANCH  17  18
ATOM     18  N   UNL     1       4.540   5.782  17.342  0.00  0.00    +0.000 NA
BRANCH  18  19
ATOM     19  S   UNL     1       4.895   4.027  17.446  0.00  0.00    +0.000 S 
ATOM     20  O   UNL     1       5.697   3.696  16.277  0.00  0.00    +0.000 OA
ATOM     21  O   UNL     1       5.399   3.777  18.778  0.00  0.00    +0.000 OA
BRANCH  19  22
ATOM     22  C   UNL     1       3.273   3.281  17.246  0.00  0.00    +0.000 C 
BRANCH  22  23
ATOM     23  C   UNL     1       2.530   3.042  18.552  0.00  0.00    +0.000 A 
ATOM     24  C   UNL     1       3.307   2.732  19.686  0.00  0.00    +0.000 A 
ATOM     25  C   UNL     1       2.733   2.596  20.952  0.00  0.00    +0.000 A 
ATOM     26  C   UNL     1       1.363   2.771  21.113  0.00  0.00    +0.000 A 
ATOM     27  C   UNL     1       0.575   3.080  20.007  0.00  0.00    +0.000 A 
ATOM     28  C   UNL     1       1.152   3.223  18.738  0.00  0.00    +0.000 A 
ENDBRANCH  22  23
ENDBRANCH  19  22
ENDBRANCH  18  19
BRANCH  18  29
ATOM     29  C   UNL     1       5.838   6.473  16.877  0.00  0.00    +0.000 C 
BRANCH  29  30
ATOM     30  C   UNL     1       6.783   7.031  17.960  0.00  0.00    +0.000 C 
ATOM     31  C   UNL     1       7.765   5.951  18.446  0.00  0.00    +0.000 C 
ATOM     32  C   UNL     1       7.620   8.229  17.499  0.00  0.00    +0.000 C 
ENDBRANCH  29  30
ENDBRANCH  18  29
ENDBRANCH  17  18
ENDBRANCH   4  17
TORSDOF 8
ENDMDL
MODEL 9
REMARK VINA RESULT:      -7.8      1.955      2.609
REMARK  Name = 
REMARK  12 active torsions:
REMARK  status: ('A' for Active; 'I' for Inactive)
REMARK    1  A    between atoms: C_1  and  C_2
REMARK    2  A    between atoms: N_7  and  C_8
REMARK    3  A    between atoms: C_11  and  C_12
REMARK    4  A    between atoms: C_12  and  N_13
REMARK    5  A    between atoms: N_13  and  C_14
REMARK    6  A    between atoms: N_13  and  S_18
REMARK    7  A    between atoms: C_14  and  C_15
REMARK    8  A    between atoms: C_15  and  C_16
REMARK    9  A    between atoms: C_15  and  C_17
REMARK   10  A    between atoms: S_18  and  C_21
REMARK   11  A    between atoms: C_21  and  C_22
REMARK   12  A    between atoms: C_28  and  C_29
REMARK                            x       y       z     vdW  Elec       q    Type
REMARK                         _______ _______ _______ _____ _____    ______ ____
ROOT
ATOM      1  C   UNL     1       1.267   9.792  19.050  0.00  0.00    +0.000 A 
ATOM      2  C   UNL     1       1.884   9.242  17.922  0.00  0.00    +0.000 A 
ATOM      3  C   UNL     1       2.490   7.982  17.959  0.00  0.00    +0.000 A 
ATOM      4  C   UNL     1       2.587   7.288  19.163  0.00  0.00    +0.000 A 
ATOM      5  C   UNL     1       1.721   7.671  20.200  0.00  0.00    +0.000 A 
ATOM      6  C   UNL     1       1.390   6.777  21.365  0.00  0.00    +0.000 C 
ATOM      7  C   UNL     1       1.103   8.935  20.142  0.00  0.00    +0.000 A 
ENDROOT
BRANCH   1  14
ATOM      8  C   UNL     1      -1.369  15.486  20.030  0.00  0.00    +0.000 C 
ATOM      9  C   UNL     1      -0.162  15.153  19.191  0.00  0.00    +0.000 C 
ATOM     10  O   UNL     1       0.631  16.037  18.870  0.00  0.00    +0.000 OA
ATOM     11  N   UNL     1       0.023  13.825  18.860  0.00  0.00    +0.000 N 
ATOM     12  C   UNL     1       1.244  13.407  18.162  0.00  0.00    +0.000 C 
ATOM     13  C   UNL     1       1.911  12.197  18.857  0.00  0.00    +0.000 C 
ATOM     14  N   UNL     1       0.916  11.128  19.088  0.00  0.00    +0.000 N 
ATOM     15  C   UNL     1      -0.291  11.553  19.811  0.00  0.00    +0.000 C 
ATOM     16  C   UNL     1      -0.942  12.742  19.083  0.00  0.00    +0.000 C 
ENDBRANCH   1  14
BRANCH   4  17
ATOM     17  C   UNL     1       3.609   6.189  19.352  0.00  0.00    +0.000 C 
BRANCH  17  18
ATOM     18  N   UNL     1       3.124   4.762  19.573  0.00  0.00    +0.000 NA
BRANCH  18  19
ATOM     19  S   UNL     1       4.393   3.633  18.994  0.00  0.00    +0.000 S 
ATOM     20  O   UNL     1       4.779   2.821  20.139  0.00  0.00    +0.000 OA
ATOM     21  O   UNL     1       3.887   3.013  17.790  0.00  0.00    +0.000 OA
BRANCH  19  22
ATOM     22  C   UNL     1       5.755   4.735  18.600  0.00  0.00    +0.000 C 
BRANCH  22  23
ATOM     23  C   UNL     1       5.940   4.993  17.112  0.00  0.00    +0.000 A 
ATOM     24  C   UNL     1       6.960   4.274  16.457  0.00  0.00    +0.000 A 
ATOM     25  C   UNL     1       7.145   4.361  15.076  0.00  0.00    +0.000 A 
ATOM     26  C   UNL     1       6.308   5.168  14.315  0.00  0.00    +0.000 A 
ATOM     27  C   UNL     1       5.291   5.886  14.940  0.00  0.00    +0.000 A 
ATOM     28  C   UNL     1       5.101   5.794  16.325  0.00  0.00    +0.000 A 
ENDBRANCH  22  23
ENDBRANCH  19  22
ENDBRANCH  18  19
BRANCH  18  29
ATOM     29  C   UNL     1       1.828   4.400  18.820  0.00  0.00    +0.000 C 
BRANCH  29  30
ATOM     30  C   UNL     1       0.820   3.473  19.530  0.00  0.00    +0.000 C 
ATOM     31  C   UNL     1       0.643   2.155  18.758  0.00  0.00    +0.000 C 
ATOM     32  C   UNL     1       1.214   3.108  20.965  0.00  0.00    +0.000 C 
ENDBRANCH  29  30
ENDBRANCH  18  29
ENDBRANCH  17  18
ENDBRANCH   4  17
TORSDOF 8
ENDMDL
