MODEL 1
REMARK VINA RESULT:      -7.7      0.000      0.000
REMARK  Name = 
REMARK  3 active torsions:
REMARK  status: ('A' for Active; 'I' for Inactive)
REMARK    1  A    between atoms: C_1  and  C_2
REMARK    2  A    between atoms: N_9  and  C_10
REMARK    3  A    between atoms: C_10  and  C_11
REMARK                            x       y       z     vdW  Elec       q    Type
REMARK                         _______ _______ _______ _____ _____    ______ ____
ROOT
ATOM      1  C   UNL     1       4.903   6.726  16.608  0.00  0.00    +0.000 C 
ATOM      2  C   UNL     1       4.944   5.194  16.518  0.00  0.00    +0.000 C 
ATOM      3  C   UNL     1       5.377   4.724  15.139  0.00  0.00    +0.000 C 
ATOM      4  C   UNL     1       6.845   4.992  14.943  0.00  0.00    +0.000 C 
ATOM      5  O   UNL     1       7.347   5.112  13.829  0.00  0.00    +0.000 OA
ATOM      6  N   UNL     1       7.613   5.009  16.079  0.00  0.00    +0.000 N 
ATOM      7  C   UNL     1       7.204   4.666  17.339  0.00  0.00    +0.000 C 
ATOM      8  O   UNL     1       8.030   4.397  18.206  0.00  0.00    +0.000 OA
ATOM      9  N   UNL     1       5.838   4.627  17.524  0.00  0.00    +0.000 N 
ATOM     10  H   UNL     1       8.612   5.058  15.938  0.00  0.00    +0.000 HD
ENDROOT
BRANCH   9  11
ATOM     11  C   UNL     1       5.290   4.164  18.794  0.00  0.00    +0.000 C 
BRANCH  11  12
ATOM     12  C   UNL     1       3.847   3.719  18.679  0.00  0.00    +0.000 A 
ATOM     13  C   UNL     1       3.533   2.503  18.050  0.00  0.00    +0.000 A 
ATOM     14  C   UNL     1       2.213   2.054  17.982  0.00  0.00    +0.000 A 
ATOM     15  C   UNL     1       1.186   2.819  18.531  0.00  0.00    +0.000 A 
ATOM     16  C   UNL     1       1.480   4.042  19.134  0.00  0.00    +0.000 A 
ATOM     17  C   UNL     1       2.802   4.492  19.205  0.00  0.00    +0.000 A 
ENDBRANCH  11  12
ENDBRANCH   9  11
TORSDOF 2
ENDMDL
MODEL 2
REMARK VINA RESULT:      -7.6      0.079      1.208
REMARK  Name = 
REMARK  3 active torsions:
REMARK  status: ('A' for Active; 'I' for Inactive)
REMARK    1  A    between atoms: C_1  and  C_2
REMARK    2  A    between atoms: N_9  and  C_10
REMARK    3  A    between atoms: C_10  and  C_11
REMARK                            x       y       z     vdW  Elec       q    Type
REMARK                         _______ _______ _______ _____ _____    ______ ____
ROOT
ATOM      1  C   UNL     1       4.951   6.718  16.555  0.00  0.00    +0.000 C 
ATOM      2  C   UNL     1       4.978   5.184  16.487  0.00  0.00    +0.000 C 
ATOM      3  C   UNL     1       5.387   4.691  15.109  0.00  0.00    +0.000 C 
ATOM      4  C   UNL     1       6.854   4.943  14.888  0.00  0.00    +0.000 C 
ATOM      5  O   UNL     1       7.341   5.043  13.765  0.00  0.00    +0.000 OA
ATOM      6  N   UNL     1       7.639   4.969  16.012  0.00  0.00    +0.000 N 
ATOM      7  C   UNL     1       7.245   4.648  17.282  0.00  0.00    +0.000 C 
ATOM      8  O   UNL     1       8.081   4.383  18.141  0.00  0.00    +0.000 OA
ATOM      9  N   UNL     1       5.881   4.623  17.488  0.00  0.00    +0.000 N 
ATOM     10  H   UNL     1       8.636   5.007  15.856  0.00  0.00    +0.000 HD
ENDROOT
BRANCH   9  11
ATOM     11  C   UNL     1       5.347   4.182  18.772  0.00  0.00    +0.000 C 
BRANCH  11  12
ATOM     12  C   UNL     1       3.912   3.712  18.676  0.00  0.00    +0.000 A 
ATOM     13  C   UNL     1       2.874   4.508  19.187  0.00  0.00    +0.000 A 
ATOM     14  C   UNL     1       1.541   4.112  19.062  0.00  0.00    +0.000 A 
ATOM     15  C   UNL     1       1.227   2.910  18.432  0.00  0.00    +0.000 A 
ATOM     16  C   UNL     1       2.248   2.095  17.945  0.00  0.00    +0.000 A 
ATOM     17  C   UNL     1       3.583   2.492  18.069  0.00  0.00    +0.000 A 
ENDBRANCH  11  12
ENDBRANCH   9  11
TORSDOF 2
ENDMDL
MODEL 3
REMARK VINA RESULT:      -7.3      1.268      1.776
REMARK  Name = 
REMARK  3 active torsions:
REMARK  status: ('A' for Active; 'I' for Inactive)
REMARK    1  A    between atoms: C_1  and  C_2
REMARK    2  A    between atoms: N_9  and  C_10
REMARK    3  A    between atoms: C_10  and  C_11
REMARK                            x       y       z     vdW  Elec       q    Type
REMARK                         _______ _______ _______ _____ _____    ______ ____
ROOT
ATOM      1  C   UNL     1       4.734   6.967  16.744  0.00  0.00    +0.000 C 
ATOM      2  C   UNL     1       4.673   5.492  17.164  0.00  0.00    +0.000 C 
ATOM      3  C   UNL     1       5.481   4.608  16.228  0.00  0.00    +0.000 C 
ATOM      4  C   UNL     1       6.952   4.836  16.450  0.00  0.00    +0.000 C 
ATOM      5  O   UNL     1       7.790   4.599  15.585  0.00  0.00    +0.000 OA
ATOM      6  N   UNL     1       7.318   5.243  17.707  0.00  0.00    +0.000 N 
ATOM      7  C   UNL     1       6.502   5.320  18.802  0.00  0.00    +0.000 C 
ATOM      8  O   UNL     1       6.984   5.371  19.930  0.00  0.00    +0.000 OA
ATOM      9  N   UNL     1       5.150   5.308  18.532  0.00  0.00    +0.000 N 
ATOM     10  H   UNL     1       8.310   5.270  17.893  0.00  0.00    +0.000 HD
ENDROOT
BRANCH   9  11
ATOM     11  C   UNL     1       4.189   5.271  19.629  0.00  0.00    +0.000 C 
BRANCH  11  12
ATOM     12  C   UNL     1       3.162   4.171  19.469  0.00  0.00    +0.000 A 
ATOM     13  C   UNL     1       1.811   4.421  19.756  0.00  0.00    +0.000 A 
ATOM     14  C   UNL     1       0.844   3.432  19.565  0.00  0.00    +0.000 A 
ATOM     15  C   UNL     1       1.215   2.175  19.092  0.00  0.00    +0.000 A 
ATOM     16  C   UNL     1       2.558   1.903  18.829  0.00  0.00    +0.000 A 
ATOM     17  C   UNL     1       3.527   2.893  19.019  0.00  0.00    +0.000 A 
ENDBRANCH  11  12
ENDBRANCH   9  11
TORSDOF 2
ENDMDL
MODEL 4
REMARK VINA RESULT:      -7.2      1.483      1.781
REMARK  Name = 
REMARK  3 active torsions:
REMARK  status: ('A' for Active; 'I' for Inactive)
REMARK    1  A    between atoms: C_1  and  C_2
REMARK    2  A    between atoms: N_9  and  C_10
REMARK    3  A    between atoms: C_10  and  C_11
REMARK                            x       y       z     vdW  Elec       q    Type
REMARK                         _______ _______ _______ _____ _____    ______ ____
ROOT
ATOM      1  C   UNL     1       6.347   7.316  17.316  0.00  0.00    +0.000 C 
ATOM      2  C   UNL     1       5.113   6.432  17.085  0.00  0.00    +0.000 C 
ATOM      3  C   UNL     1       5.234   5.621  15.805  0.00  0.00    +0.000 C 
ATOM      4  C   UNL     1       6.253   4.528  15.985  0.00  0.00    +0.000 C 
ATOM      5  O   UNL     1       6.845   4.021  15.037  0.00  0.00    +0.000 OA
ATOM      6  N   UNL     1       6.422   4.064  17.264  0.00  0.00    +0.000 N 
ATOM      7  C   UNL     1       5.662   4.395  18.353  0.00  0.00    +0.000 C 
ATOM      8  O   UNL     1       5.680   3.689  19.357  0.00  0.00    +0.000 OA
ATOM      9  N   UNL     1       4.888   5.528  18.209  0.00  0.00    +0.000 N 
ATOM     10  H   UNL     1       7.006   3.247  17.366  0.00  0.00    +0.000 HD
ENDROOT
BRANCH   9  11
ATOM     11  C   UNL     1       3.954   5.908  19.263  0.00  0.00    +0.000 C 
BRANCH  11  12
ATOM     12  C   UNL     1       2.804   4.934  19.403  0.00  0.00    +0.000 A 
ATOM     13  C   UNL     1       2.201   4.386  18.259  0.00  0.00    +0.000 A 
ATOM     14  C   UNL     1       1.174   3.448  18.371  0.00  0.00    +0.000 A 
ATOM     15  C   UNL     1       0.727   3.050  19.629  0.00  0.00    +0.000 A 
ATOM     16  C   UNL     1       1.296   3.606  20.774  0.00  0.00    +0.000 A 
ATOM     17  C   UNL     1       2.327   4.545  20.663  0.00  0.00    +0.000 A 
ENDBRANCH  11  12
ENDBRANCH   9  11
TORSDOF 2
ENDMDL
MODEL 5
REMARK VINA RESULT:      -7.1      1.468      1.974
REMARK  Name = 
REMARK  3 active torsions:
REMARK  status: ('A' for Active; 'I' for Inactive)
REMARK    1  A    between atoms: C_1  and  C_2
REMARK    2  A    between atoms: N_9  and  C_10
REMARK    3  A    between atoms: C_10  and  C_11
REMARK                            x       y       z     vdW  Elec       q    Type
REMARK                         _______ _______ _______ _____ _____    ______ ____
ROOT
ATOM      1  C   UNL     1       6.344   7.302  17.326  0.00  0.00    +0.000 C 
ATOM      2  C   UNL     1       5.112   6.417  17.095  0.00  0.00    +0.000 C 
ATOM      3  C   UNL     1       5.225   5.623  15.803  0.00  0.00    +0.000 C 
ATOM      4  C   UNL     1       6.250   4.533  15.959  0.00  0.00    +0.000 C 
ATOM      5  O   UNL     1       6.836   4.041  14.998  0.00  0.00    +0.000 OA
ATOM      6  N   UNL     1       6.433   4.053  17.230  0.00  0.00    +0.000 N 
ATOM      7  C   UNL     1       5.681   4.365  18.330  0.00  0.00    +0.000 C 
ATOM      8  O   UNL     1       5.712   3.646  19.324  0.00  0.00    +0.000 OA
ATOM      9  N   UNL     1       4.901   5.496  18.209  0.00  0.00    +0.000 N 
ATOM     10  H   UNL     1       7.021   3.237  17.316  0.00  0.00    +0.000 HD
ENDROOT
BRANCH   9  11
ATOM     11  C   UNL     1       3.975   5.858  19.276  0.00  0.00    +0.000 C 
BRANCH  11  12
ATOM     12  C   UNL     1       2.834   4.874  19.416  0.00  0.00    +0.000 A 
ATOM     13  C   UNL     1       2.365   4.515  20.691  0.00  0.00    +0.000 A 
ATOM     14  C   UNL     1       1.281   3.648  20.836  0.00  0.00    +0.000 A 
ATOM     15  C   UNL     1       0.655   3.119  19.710  0.00  0.00    +0.000 A 
ATOM     16  C   UNL     1       1.126   3.444  18.438  0.00  0.00    +0.000 A 
ATOM     17  C   UNL     1       2.212   4.313  18.291  0.00  0.00    +0.000 A 
ENDBRANCH  11  12
ENDBRANCH   9  11
TORSDOF 2
ENDMDL
MODEL 6
REMARK VINA RESULT:      -7.0      2.809      5.319
REMARK  Name = 
REMARK  3 active torsions:
REMARK  status: ('A' for Active; 'I' for Inactive)
REMARK    1  A    between atoms: C_1  and  C_2
REMARK    2  A    between atoms: N_9  and  C_10
REMARK    3  A    between atoms: C_10  and  C_11
REMARK                            x       y       z     vdW  Elec       q    Type
REMARK                         _______ _______ _______ _____ _____    ______ ____
ROOT
ATOM      1  C   UNL     1       2.003   4.640  18.029  0.00  0.00    +0.000 C 
ATOM      2  C   UNL     1       2.645   5.103  19.344  0.00  0.00    +0.000 C 
ATOM      3  C   UNL     1       1.758   4.798  20.540  0.00  0.00    +0.000 C 
ATOM      4  C   UNL     1       1.754   3.318  20.811  0.00  0.00    +0.000 C 
ATOM      5  O   UNL     1       0.835   2.763  21.407  0.00  0.00    +0.000 OA
ATOM      6  N   UNL     1       2.878   2.631  20.432  0.00  0.00    +0.000 N 
ATOM      7  C   UNL     1       4.044   3.178  19.971  0.00  0.00    +0.000 C 
ATOM      8  O   UNL     1       5.081   2.520  19.977  0.00  0.00    +0.000 OA
ATOM      9  N   UNL     1       3.953   4.486  19.544  0.00  0.00    +0.000 N 
ATOM     10  H   UNL     1       2.931   1.668  20.730  0.00  0.00    +0.000 HD
ENDROOT
BRANCH   9  11
ATOM     11  C   UNL     1       5.157   5.204  19.139  0.00  0.00    +0.000 C 
BRANCH  11  12
ATOM     12  C   UNL     1       5.318   5.271  17.635  0.00  0.00    +0.000 A 
ATOM     13  C   UNL     1       5.657   4.117  16.910  0.00  0.00    +0.000 A 
ATOM     14  C   UNL     1       5.759   4.151  15.519  0.00  0.00    +0.000 A 
ATOM     15  C   UNL     1       5.535   5.342  14.832  0.00  0.00    +0.000 A 
ATOM     16  C   UNL     1       5.226   6.503  15.540  0.00  0.00    +0.000 A 
ATOM     17  C   UNL     1       5.121   6.470  16.934  0.00  0.00    +0.000 A 
ENDBRANCH  11  12
ENDBRANCH   9  11
TORSDOF 2
ENDMDL
MODEL 7
REMARK VINA RESULT:      -6.9      3.158      5.503
REMARK  Name = 
REMARK  3 active torsions:
REMARK  status: ('A' for Active; 'I' for Inactive)
REMARK    1  A    between atoms: C_1  and  C_2
REMARK    2  A    between atoms: N_9  and  C_10
REMARK    3  A    between atoms: C_10  and  C_11
REMARK                            x       y       z     vdW  Elec       q    Type
REMARK                         _______ _______ _______ _____ _____    ______ ____
ROOT
ATOM      1  C   UNL     1       3.994   2.176  19.835  0.00  0.00    +0.000 C 
ATOM      2  C   UNL     1       3.639   3.096  18.659  0.00  0.00    +0.000 C 
ATOM      3  C   UNL     1       2.432   2.584  17.889  0.00  0.00    +0.000 C 
ATOM      4  C   UNL     1       1.183   2.782  18.704  0.00  0.00    +0.000 C 
ATOM      5  O   UNL     1       0.174   2.104  18.533  0.00  0.00    +0.000 OA
ATOM      6  N   UNL     1       1.201   3.824  19.595  0.00  0.00    +0.000 N 
ATOM      7  C   UNL     1       2.177   4.776  19.709  0.00  0.00    +0.000 C 
ATOM      8  O   UNL     1       1.947   5.832  20.290  0.00  0.00    +0.000 OA
ATOM      9  N   UNL     1       3.379   4.460  19.110  0.00  0.00    +0.000 N 
ATOM     10  H   UNL     1       0.323   4.038  20.046  0.00  0.00    +0.000 HD
ENDROOT
BRANCH   9  11
ATOM     11  C   UNL     1       4.453   5.448  19.071  0.00  0.00    +0.000 C 
BRANCH  11  12
ATOM     12  C   UNL     1       5.309   5.329  17.828  0.00  0.00    +0.000 A 
ATOM     13  C   UNL     1       6.602   4.788  17.912  0.00  0.00    +0.000 A 
ATOM     14  C   UNL     1       7.384   4.625  16.767  0.00  0.00    +0.000 A 
ATOM     15  C   UNL     1       6.890   5.010  15.523  0.00  0.00    +0.000 A 
ATOM     16  C   UNL     1       5.619   5.576  15.428  0.00  0.00    +0.000 A 
ATOM     17  C   UNL     1       4.833   5.738  16.574  0.00  0.00    +0.000 A 
ENDBRANCH  11  12
ENDBRANCH   9  11
TORSDOF 2
ENDMDL
MODEL 8
REMARK VINA RESULT:      -6.9      1.939      2.571
REMARK  Name = 
REMARK  3 active torsions:
REMARK  status: ('A' for Active; 'I' for Inactive)
REMARK    1  A    between atoms: C_1  and  C_2
REMARK    2  A    between atoms: N_9  and  C_10
REMARK    3  A    between atoms: C_10  and  C_11
REMARK                            x       y       z     vdW  Elec       q    Type
REMARK                         _______ _______ _______ _____ _____    ______ ____
ROOT
ATOM      1  C   UNL     1       5.938   5.264  19.404  0.00  0.00    +0.000 C 
ATOM      2  C   UNL     1       5.384   5.947  18.146  0.00  0.00    +0.000 C 
ATOM      3  C   UNL     1       6.453   6.105  17.076  0.00  0.00    +0.000 C 
ATOM      4  C   UNL     1       6.774   4.765  16.471  0.00  0.00    +0.000 C 
ATOM      5  O   UNL     1       7.848   4.534  15.923  0.00  0.00    +0.000 OA
ATOM      6  N   UNL     1       5.765   3.837  16.487  0.00  0.00    +0.000 N 
ATOM      7  C   UNL     1       4.468   4.057  16.863  0.00  0.00    +0.000 C 
ATOM      8  O   UNL     1       3.586   3.271  16.531  0.00  0.00    +0.000 OA
ATOM      9  N   UNL     1       4.253   5.207  17.593  0.00  0.00    +0.000 N 
ATOM     10  H   UNL     1       5.935   2.988  15.967  0.00  0.00    +0.000 HD
ENDROOT
BRANCH   9  11
ATOM     11  C   UNL     1       2.894   5.600  17.949  0.00  0.00    +0.000 C 
BRANCH  11  12
ATOM     12  C   UNL     1       2.300   4.727  19.033  0.00  0.00    +0.000 A 
ATOM     13  C   UNL     1       1.353   3.743  18.707  0.00  0.00    +0.000 A 
ATOM     14  C   UNL     1       0.834   2.896  19.687  0.00  0.00    +0.000 A 
ATOM     15  C   UNL     1       1.246   3.027  21.012  0.00  0.00    +0.000 A 
ATOM     16  C   UNL     1       2.165   4.018  21.356  0.00  0.00    +0.000 A 
ATOM     17  C   UNL     1       2.686   4.866  20.374  0.00  0.00    +0.000 A 
ENDBRANCH  11  12
ENDBRANCH   9  11
TORSDOF 2
ENDMDL
MODEL 9
REMARK VINA RESULT:      -6.9      3.292      5.891
REMARK  Name = 
REMARK  3 active torsions:
REMARK  status: ('A' for Active; 'I' for Inactive)
REMARK    1  A    between atoms: C_1  and  C_2
REMARK    2  A    between atoms: N_9  and  C_10
REMARK    3  A    between atoms: C_10  and  C_11
REMARK                            x       y       z     vdW  Elec       q    Type
REMARK                         _______ _______ _______ _____ _____    ______ ____
ROOT
ATOM      1  C   UNL     1       4.353   2.587  19.661  0.00  0.00    +0.000 C 
ATOM      2  C   UNL     1       2.948   2.886  19.120  0.00  0.00    +0.000 C 
ATOM      3  C   UNL     1       1.866   2.284  20.003  0.00  0.00    +0.000 C 
ATOM      4  C   UNL     1       1.770   3.053  21.293  0.00  0.00    +0.000 C 
ATOM      5  O   UNL     1       1.314   2.557  22.319  0.00  0.00    +0.000 OA
ATOM      6  N   UNL     1       2.139   4.372  21.239  0.00  0.00    +0.000 N 
ATOM      7  C   UNL     1       2.444   5.083  20.110  0.00  0.00    +0.000 C 
ATOM      8  O   UNL     1       2.435   6.310  20.130  0.00  0.00    +0.000 OA
ATOM      9  N   UNL     1       2.722   4.323  18.993  0.00  0.00    +0.000 N 
ATOM     10  H   UNL     1       1.952   4.920  22.067  0.00  0.00    +0.000 HD
ENDROOT
BRANCH   9  11
ATOM     11  C   UNL     1       2.947   4.976  17.708  0.00  0.00    +0.000 C 
BRANCH  11  12
ATOM     12  C   UNL     1       4.402   4.951  17.289  0.00  0.00    +0.000 A 
ATOM     13  C   UNL     1       5.342   5.750  17.960  0.00  0.00    +0.000 A 
ATOM     14  C   UNL     1       6.695   5.701  17.619  0.00  0.00    +0.000 A 
ATOM     15  C   UNL     1       7.126   4.860  16.595  0.00  0.00    +0.000 A 
ATOM     16  C   UNL     1       6.201   4.083  15.901  0.00  0.00    +0.000 A 
ATOM     17  C   UNL     1       4.845   4.130  16.242  0.00  0.00    +0.000 A 
ENDBRANCH  11  12
ENDBRANCH   9  11
TORSDOF 2
ENDMDL
