MODEL 1
REMARK VINA RESULT:      -8.6      0.000      0.000
REMARK  Name = 
REMARK  7 active torsions:
REMARK  status: ('A' for Active; 'I' for Inactive)
REMARK    1  A    between atoms: C_1  and  C_2
REMARK    2  A    between atoms: N_4  and  C_5
REMARK    3  A    between atoms: C_9  and  C_10
REMARK    4  A    between atoms: N_12  and  C_13
REMARK    5  A    between atoms: C_17  and  C_18
REMARK    6  A    between atoms: C_21  and  C_22
REMARK    7  A    between atoms: C_28  and  C_29
REMARK                            x       y       z     vdW  Elec       q    Type
REMARK                         _______ _______ _______ _____ _____    ______ ____
ROOT
ATOM      1  C   UNL     1       4.099   5.046  17.515  0.00  0.00    +0.000 A 
ATOM      2  C   UNL     1       4.132   4.139  18.572  0.00  0.00    +0.000 A 
ATOM      3  C   UNL     1       3.528   4.459  19.793  0.00  0.00    +0.000 A 
ATOM      4  C   UNL     1       2.861   5.676  19.965  0.00  0.00    +0.000 A 
ATOM      5  C   UNL     1       2.806   6.608  18.923  0.00  0.00    +0.000 A 
ATOM      6  C   UNL     1       3.474   6.290  17.715  0.00  0.00    +0.000 A 
ENDROOT
BRANCH   5   7
ATOM      7  C   UNL     1       2.098   7.901  19.053  0.00  0.00    +0.000 A 
ATOM      8  C   UNL     1       1.910   8.839  18.057  0.00  0.00    +0.000 A 
ATOM      9  C   UNL     1       1.101   9.921  18.472  0.00  0.00    +0.000 A 
ATOM     10  C   UNL     1       0.686   9.836  19.791  0.00  0.00    +0.000 A 
ATOM     11  S   UNL     1       1.318   8.422  20.518  0.00  0.00    +0.000 S 
BRANCH  10  12
ATOM     12  C   UNL     1      -0.165  10.842  20.377  0.00  0.00    +0.000 A 
ATOM     13  N   UNL     1       0.172  11.372  21.535  0.00  0.00    +0.000 NA
ATOM     14  C   UNL     1      -0.856  12.176  21.911  0.00  0.00    +0.000 A 
ATOM     15  C   UNL     1      -0.976  12.904  23.100  0.00  0.00    +0.000 A 
ATOM     16  C   UNL     1      -2.132  13.642  23.317  0.00  0.00    +0.000 A 
ATOM     17  C   UNL     1      -3.150  13.643  22.364  0.00  0.00    +0.000 A 
ATOM     18  C   UNL     1      -3.061  12.918  21.148  0.00  0.00    +0.000 A 
ATOM     19  C   UNL     1      -4.242  12.929  20.221  0.00  0.00    +0.000 C 
ATOM     20  C   UNL     1      -1.868  12.189  20.954  0.00  0.00    +0.000 A 
ATOM     21  N   UNL     1      -1.373  11.361  19.952  0.00  0.00    +0.000 N 
ATOM     22  H   UNL     1      -1.833  11.146  19.080  0.00  0.00    +0.000 HD
ENDBRANCH  10  12
ENDBRANCH   5   7
BRANCH   1  25
ATOM     23  C   UNL     1       5.950   5.100  15.837  0.00  0.00    +0.000 C 
ATOM     24  O   UNL     1       6.834   5.590  16.530  0.00  0.00    +0.000 OA
ATOM     25  N   UNL     1       4.664   4.774  16.244  0.00  0.00    +0.000 N 
ATOM     26  H   UNL     1       4.135   4.151  15.647  0.00  0.00    +0.000 HD
BRANCH  23  31
ATOM     27  C   UNL     1       5.688   3.599  12.382  0.00  0.00    +0.000 A 
ATOM     28  C   UNL     1       6.908   3.983  11.825  0.00  0.00    +0.000 A 
ATOM     29  C   UNL     1       7.821   4.738  12.567  0.00  0.00    +0.000 A 
ATOM     30  C   UNL     1       7.520   5.115  13.869  0.00  0.00    +0.000 A 
ATOM     31  C   UNL     1       6.291   4.757  14.430  0.00  0.00    +0.000 A 
ATOM     32  C   UNL     1       5.374   4.003  13.679  0.00  0.00    +0.000 A 
BRANCH  27  36
ATOM     33  C   UNL     1       2.800   2.214  10.381  0.00  0.00    +0.000 C 
ATOM     34  C   UNL     1       3.757   3.282  10.844  0.00  0.00    +0.000 C 
ATOM     35  O   UNL     1       3.610   4.439  10.463  0.00  0.00    +0.000 OA
ATOM     36  N   UNL     1       4.738   2.811  11.707  0.00  0.00    +0.000 N 
ATOM     37  H   UNL     1       4.844   1.809  11.798  0.00  0.00    +0.000 HD
ENDBRANCH  27  36
ENDBRANCH  23  31
ENDBRANCH   1  25
TORSDOF 5
ENDMDL
MODEL 2
REMARK VINA RESULT:      -8.5      4.643     12.380
REMARK  Name = 
REMARK  7 active torsions:
REMARK  status: ('A' for Active; 'I' for Inactive)
REMARK    1  A    between atoms: C_1  and  C_2
REMARK    2  A    between atoms: N_4  and  C_5
REMARK    3  A    between atoms: C_9  and  C_10
REMARK    4  A    between atoms: N_12  and  C_13
REMARK    5  A    between atoms: C_17  and  C_18
REMARK    6  A    between atoms: C_21  and  C_22
REMARK    7  A    between atoms: C_28  and  C_29
REMARK                            x       y       z     vdW  Elec       q    Type
REMARK                         _______ _______ _______ _____ _____    ______ ____
ROOT
ATOM      1  C   UNL     1      -1.335  12.718  19.553  0.00  0.00    +0.000 A 
ATOM      2  C   UNL     1      -0.576  13.884  19.585  0.00  0.00    +0.000 A 
ATOM      3  C   UNL     1       0.804  13.833  19.360  0.00  0.00    +0.000 A 
ATOM      4  C   UNL     1       1.438  12.620  19.075  0.00  0.00    +0.000 A 
ATOM      5  C   UNL     1       0.705  11.429  19.032  0.00  0.00    +0.000 A 
ATOM      6  C   UNL     1      -0.680  11.495  19.320  0.00  0.00    +0.000 A 
ENDROOT
BRANCH   5   7
ATOM      7  C   UNL     1       1.330  10.125  18.718  0.00  0.00    +0.000 A 
ATOM      8  C   UNL     1       2.237   9.870  17.708  0.00  0.00    +0.000 A 
ATOM      9  C   UNL     1       2.726   8.544  17.736  0.00  0.00    +0.000 A 
ATOM     10  C   UNL     1       2.182   7.768  18.746  0.00  0.00    +0.000 A 
ATOM     11  S   UNL     1       1.048   8.681  19.646  0.00  0.00    +0.000 S 
BRANCH  10  12
ATOM     12  C   UNL     1       2.583   6.396  18.938  0.00  0.00    +0.000 A 
ATOM     13  N   UNL     1       3.069   5.720  17.918  0.00  0.00    +0.000 NA
ATOM     14  C   UNL     1       3.234   4.440  18.340  0.00  0.00    +0.000 A 
ATOM     15  C   UNL     1       3.671   3.345  17.586  0.00  0.00    +0.000 A 
ATOM     16  C   UNL     1       3.737   2.099  18.195  0.00  0.00    +0.000 A 
ATOM     17  C   UNL     1       3.364   1.953  19.532  0.00  0.00    +0.000 A 
ATOM     18  C   UNL     1       2.919   3.041  20.325  0.00  0.00    +0.000 A 
ATOM     19  C   UNL     1       2.474   2.765  21.732  0.00  0.00    +0.000 C 
ATOM     20  C   UNL     1       2.876   4.295  19.678  0.00  0.00    +0.000 A 
ATOM     21  N   UNL     1       2.509   5.583  20.053  0.00  0.00    +0.000 N 
ATOM     22  H   UNL     1       2.205   5.869  20.972  0.00  0.00    +0.000 HD
ENDBRANCH  10  12
ENDBRANCH   5   7
BRANCH   1  25
ATOM     23  C   UNL     1      -3.667  12.085  18.914  0.00  0.00    +0.000 C 
ATOM     24  O   UNL     1      -3.424  11.380  17.942  0.00  0.00    +0.000 OA
ATOM     25  N   UNL     1      -2.740  12.702  19.742  0.00  0.00    +0.000 N 
ATOM     26  H   UNL     1      -3.071  13.033  20.639  0.00  0.00    +0.000 HD
BRANCH  23  31
ATOM     27  C   UNL     1      -6.715  12.942  20.973  0.00  0.00    +0.000 A 
ATOM     28  C   UNL     1      -7.742  12.513  20.131  0.00  0.00    +0.000 A 
ATOM     29  C   UNL     1      -7.450  11.948  18.886  0.00  0.00    +0.000 A 
ATOM     30  C   UNL     1      -6.131  11.809  18.474  0.00  0.00    +0.000 A 
ATOM     31  C   UNL     1      -5.095  12.258  19.297  0.00  0.00    +0.000 A 
ATOM     32  C   UNL     1      -5.393  12.830  20.545  0.00  0.00    +0.000 A 
BRANCH  27  36
ATOM     33  C   UNL     1      -7.679  13.687  24.548  0.00  0.00    +0.000 C 
ATOM     34  C   UNL     1      -7.424  12.803  23.354  0.00  0.00    +0.000 C 
ATOM     35  O   UNL     1      -7.666  11.601  23.423  0.00  0.00    +0.000 OA
ATOM     36  N   UNL     1      -6.934  13.488  22.251  0.00  0.00    +0.000 N 
ATOM     37  H   UNL     1      -6.620  14.440  22.388  0.00  0.00    +0.000 HD
ENDBRANCH  27  36
ENDBRANCH  23  31
ENDBRANCH   1  25
TORSDOF 5
ENDMDL
MODEL 3
REMARK VINA RESULT:      -8.5      1.720      2.362
REMARK  Name = 
REMARK  7 active torsions:
REMARK  status: ('A' for Active; 'I' for Inactive)
REMARK    1  A    between atoms: C_1  and  C_2
REMARK    2  A    between atoms: N_4  and  C_5
REMARK    3  A    between atoms: C_9  and  C_10
REMARK    4  A    between atoms: N_12  and  C_13
REMARK    5  A    between atoms: C_17  and  C_18
REMARK    6  A    between atoms: C_21  and  C_22
REMARK    7  A    between atoms: C_28  and  C_29
REMARK                            x       y       z     vdW  Elec       q    Type
REMARK                         _______ _______ _______ _____ _____    ______ ____
ROOT
ATOM      1  C   UNL     1       3.141   6.007  19.041  0.00  0.00    +0.000 A 
ATOM      2  C   UNL     1       2.777   4.911  19.818  0.00  0.00    +0.000 A 
ATOM      3  C   UNL     1       1.858   5.062  20.862  0.00  0.00    +0.000 A 
ATOM      4  C   UNL     1       1.271   6.304  21.126  0.00  0.00    +0.000 A 
ATOM      5  C   UNL     1       1.612   7.425  20.363  0.00  0.00    +0.000 A 
ATOM      6  C   UNL     1       2.588   7.264  19.349  0.00  0.00    +0.000 A 
ENDROOT
BRANCH   5   7
ATOM      7  C   UNL     1       1.005   8.755  20.593  0.00  0.00    +0.000 A 
ATOM      8  C   UNL     1       0.860   9.765  19.662  0.00  0.00    +0.000 A 
ATOM      9  C   UNL     1       0.144  10.875  20.169  0.00  0.00    +0.000 A 
ATOM     10  C   UNL     1      -0.240  10.736  21.492  0.00  0.00    +0.000 A 
ATOM     11  S   UNL     1       0.305   9.237  22.111  0.00  0.00    +0.000 S 
BRANCH  10  12
ATOM     12  C   UNL     1      -0.998  11.761  22.165  0.00  0.00    +0.000 A 
ATOM     13  N   UNL     1      -0.368  12.808  22.657  0.00  0.00    +0.000 NA
ATOM     14  C   UNL     1      -1.289  13.533  23.342  0.00  0.00    +0.000 A 
ATOM     15  C   UNL     1      -1.073  14.701  24.083  0.00  0.00    +0.000 A 
ATOM     16  C   UNL     1      -2.146  15.276  24.750  0.00  0.00    +0.000 A 
ATOM     17  C   UNL     1      -3.409  14.688  24.680  0.00  0.00    +0.000 A 
ATOM     18  C   UNL     1      -3.664  13.507  23.937  0.00  0.00    +0.000 A 
ATOM     19  C   UNL     1      -5.044  12.916  23.984  0.00  0.00    +0.000 C 
ATOM     20  C   UNL     1      -2.554  12.956  23.262  0.00  0.00    +0.000 A 
ATOM     21  N   UNL     1      -2.347  11.842  22.454  0.00  0.00    +0.000 N 
ATOM     22  H   UNL     1      -3.054  11.185  22.159  0.00  0.00    +0.000 HD
ENDBRANCH  10  12
ENDBRANCH   5   7
BRANCH   1  25
ATOM     23  C   UNL     1       4.234   4.810  17.139  0.00  0.00    +0.000 C 
ATOM     24  O   UNL     1       3.599   3.763  17.170  0.00  0.00    +0.000 OA
ATOM     25  N   UNL     1       4.043   5.919  17.950  0.00  0.00    +0.000 N 
ATOM     26  H   UNL     1       4.460   6.790  17.647  0.00  0.00    +0.000 HD
BRANCH  23  31
ATOM     27  C   UNL     1       6.336   4.049  14.095  0.00  0.00    +0.000 A 
ATOM     28  C   UNL     1       7.281   5.072  14.154  0.00  0.00    +0.000 A 
ATOM     29  C   UNL     1       7.239   6.021  15.180  0.00  0.00    +0.000 A 
ATOM     30  C   UNL     1       6.250   5.953  16.153  0.00  0.00    +0.000 A 
ATOM     31  C   UNL     1       5.282   4.947  16.091  0.00  0.00    +0.000 A 
ATOM     32  C   UNL     1       5.325   3.999  15.054  0.00  0.00    +0.000 A 
BRANCH  27  36
ATOM     33  C   UNL     1       5.593   1.645  11.278  0.00  0.00    +0.000 C 
ATOM     34  C   UNL     1       5.406   2.898  12.094  0.00  0.00    +0.000 C 
ATOM     35  O   UNL     1       4.483   3.663  11.831  0.00  0.00    +0.000 OA
ATOM     36  N   UNL     1       6.338   3.042  13.112  0.00  0.00    +0.000 N 
ATOM     37  H   UNL     1       7.143   2.429  13.105  0.00  0.00    +0.000 HD
ENDBRANCH  27  36
ENDBRANCH  23  31
ENDBRANCH   1  25
TORSDOF 5
ENDMDL
MODEL 4
REMARK VINA RESULT:      -8.5      1.708      2.079
REMARK  Name = 
REMARK  7 active torsions:
REMARK  status: ('A' for Active; 'I' for Inactive)
REMARK    1  A    between atoms: C_1  and  C_2
REMARK    2  A    between atoms: N_4  and  C_5
REMARK    3  A    between atoms: C_9  and  C_10
REMARK    4  A    between atoms: N_12  and  C_13
REMARK    5  A    between atoms: C_17  and  C_18
REMARK    6  A    between atoms: C_21  and  C_22
REMARK    7  A    between atoms: C_28  and  C_29
REMARK                            x       y       z     vdW  Elec       q    Type
REMARK                         _______ _______ _______ _____ _____    ______ ____
ROOT
ATOM      1  C   UNL     1       4.100   4.506  17.606  0.00  0.00    +0.000 A 
ATOM      2  C   UNL     1       4.154   3.462  18.526  0.00  0.00    +0.000 A 
ATOM      3  C   UNL     1       3.580   3.609  19.793  0.00  0.00    +0.000 A 
ATOM      4  C   UNL     1       2.921   4.791  20.148  0.00  0.00    +0.000 A 
ATOM      5  C   UNL     1       2.845   5.858  19.247  0.00  0.00    +0.000 A 
ATOM      6  C   UNL     1       3.484   5.711  17.991  0.00  0.00    +0.000 A 
ENDROOT
BRANCH   5   7
ATOM      7  C   UNL     1       2.145   7.121  19.571  0.00  0.00    +0.000 A 
ATOM      8  C   UNL     1       1.562   7.450  20.779  0.00  0.00    +0.000 A 
ATOM      9  C   UNL     1       1.065   8.774  20.802  0.00  0.00    +0.000 A 
ATOM     10  C   UNL     1       1.238   9.457  19.610  0.00  0.00    +0.000 A 
ATOM     11  S   UNL     1       2.000   8.448  18.457  0.00  0.00    +0.000 S 
BRANCH  10  12
ATOM     12  C   UNL     1       0.812  10.827  19.460  0.00  0.00    +0.000 A 
ATOM     13  N   UNL     1       1.628  11.696  18.901  0.00  0.00    +0.000 NA
ATOM     14  C   UNL     1       1.036  12.913  19.008  0.00  0.00    +0.000 A 
ATOM     15  C   UNL     1       1.556  14.150  18.607  0.00  0.00    +0.000 A 
ATOM     16  C   UNL     1       0.806  15.295  18.840  0.00  0.00    +0.000 A 
ATOM     17  C   UNL     1      -0.435  15.202  19.470  0.00  0.00    +0.000 A 
ATOM     18  C   UNL     1      -0.992  13.966  19.887  0.00  0.00    +0.000 A 
ATOM     19  C   UNL     1      -2.303  13.983  20.618  0.00  0.00    +0.000 C 
ATOM     20  C   UNL     1      -0.210  12.821  19.624  0.00  0.00    +0.000 A 
ATOM     21  N   UNL     1      -0.352  11.458  19.858  0.00  0.00    +0.000 N 
ATOM     22  H   UNL     1      -1.152  11.009  20.279  0.00  0.00    +0.000 HD
ENDBRANCH  10  12
ENDBRANCH   5   7
BRANCH   1  25
ATOM     23  C   UNL     1       5.978   4.479  15.958  0.00  0.00    +0.000 C 
ATOM     24  O   UNL     1       6.926   4.536  16.733  0.00  0.00    +0.000 OA
ATOM     25  N   UNL     1       4.634   4.413  16.296  0.00  0.00    +0.000 N 
ATOM     26  H   UNL     1       3.991   4.115  15.574  0.00  0.00    +0.000 HD
BRANCH  23  31
ATOM     27  C   UNL     1       5.699   3.556  12.307  0.00  0.00    +0.000 A 
ATOM     28  C   UNL     1       6.850   4.147  11.787  0.00  0.00    +0.000 A 
ATOM     29  C   UNL     1       7.722   4.856  12.619  0.00  0.00    +0.000 A 
ATOM     30  C   UNL     1       7.448   4.979  13.975  0.00  0.00    +0.000 A 
ATOM     31  C   UNL     1       6.285   4.412  14.504  0.00  0.00    +0.000 A 
ATOM     32  C   UNL     1       5.408   3.706  13.662  0.00  0.00    +0.000 A 
BRANCH  27  36
ATOM     33  C   UNL     1       2.884   2.253  10.152  0.00  0.00    +0.000 C 
ATOM     34  C   UNL     1       3.771   3.313  10.752  0.00  0.00    +0.000 C 
ATOM     35  O   UNL     1       3.536   4.498  10.533  0.00  0.00    +0.000 OA
ATOM     36  N   UNL     1       4.796   2.801  11.536  0.00  0.00    +0.000 N 
ATOM     37  H   UNL     1       4.974   1.806  11.489  0.00  0.00    +0.000 HD
ENDBRANCH  27  36
ENDBRANCH  23  31
ENDBRANCH   1  25
TORSDOF 5
ENDMDL
MODEL 5
REMARK VINA RESULT:      -8.4      2.921      5.809
REMARK  Name = 
REMARK  7 active torsions:
REMARK  status: ('A' for Active; 'I' for Inactive)
REMARK    1  A    between atoms: C_1  and  C_2
REMARK    2  A    between atoms: N_4  and  C_5
REMARK    3  A    between atoms: C_9  and  C_10
REMARK    4  A    between atoms: N_12  and  C_13
REMARK    5  A    between atoms: C_17  and  C_18
REMARK    6  A    between atoms: C_21  and  C_22
REMARK    7  A    between atoms: C_28  and  C_29
REMARK                            x       y       z     vdW  Elec       q    Type
REMARK                         _______ _______ _______ _____ _____    ______ ____
ROOT
ATOM      1  C   UNL     1       1.796   9.621  18.575  0.00  0.00    +0.000 A 
ATOM      2  C   UNL     1       2.441  10.641  17.881  0.00  0.00    +0.000 A 
ATOM      3  C   UNL     1       2.093  11.977  18.107  0.00  0.00    +0.000 A 
ATOM      4  C   UNL     1       1.114  12.312  19.049  0.00  0.00    +0.000 A 
ATOM      5  C   UNL     1       0.448  11.312  19.766  0.00  0.00    +0.000 A 
ATOM      6  C   UNL     1       0.775   9.964  19.479  0.00  0.00    +0.000 A 
ENDROOT
BRANCH   5   7
ATOM      7  C   UNL     1      -0.582  11.619  20.783  0.00  0.00    +0.000 A 
ATOM      8  C   UNL     1      -0.501  11.360  22.138  0.00  0.00    +0.000 A 
ATOM      9  C   UNL     1      -1.607  11.870  22.857  0.00  0.00    +0.000 A 
ATOM     10  C   UNL     1      -2.551  12.498  22.061  0.00  0.00    +0.000 A 
ATOM     11  S   UNL     1      -2.073  12.436  20.419  0.00  0.00    +0.000 S 
BRANCH  10  12
ATOM     12  C   UNL     1      -3.733  13.097  22.628  0.00  0.00    +0.000 A 
ATOM     13  N   UNL     1      -4.604  12.332  23.253  0.00  0.00    +0.000 NA
ATOM     14  C   UNL     1      -5.665  13.121  23.563  0.00  0.00    +0.000 A 
ATOM     15  C   UNL     1      -6.861  12.734  24.181  0.00  0.00    +0.000 A 
ATOM     16  C   UNL     1      -7.849  13.689  24.377  0.00  0.00    +0.000 A 
ATOM     17  C   UNL     1      -7.645  15.004  23.956  0.00  0.00    +0.000 A 
ATOM     18  C   UNL     1      -6.446  15.429  23.329  0.00  0.00    +0.000 A 
ATOM     19  C   UNL     1      -6.355  16.850  22.851  0.00  0.00    +0.000 C 
ATOM     20  C   UNL     1      -5.459  14.436  23.156  0.00  0.00    +0.000 A 
ATOM     21  N   UNL     1      -4.183  14.404  22.603  0.00  0.00    +0.000 N 
ATOM     22  H   UNL     1      -3.684  15.191  22.215  0.00  0.00    +0.000 HD
ENDBRANCH  10  12
ENDBRANCH   5   7
BRANCH   1  25
ATOM     23  C   UNL     1       2.251   7.320  19.437  0.00  0.00    +0.000 C 
ATOM     24  O   UNL     1       2.020   7.502  20.627  0.00  0.00    +0.000 OA
ATOM     25  N   UNL     1       2.120   8.250  18.416  0.00  0.00    +0.000 N 
ATOM     26  H   UNL     1       2.096   7.895  17.468  0.00  0.00    +0.000 HD
BRANCH  23  31
ATOM     27  C   UNL     1       3.695   4.522  17.351  0.00  0.00    +0.000 A 
ATOM     28  C   UNL     1       3.345   3.407  18.112  0.00  0.00    +0.000 A 
ATOM     29  C   UNL     1       2.643   3.556  19.312  0.00  0.00    +0.000 A 
ATOM     30  C   UNL     1       2.287   4.822  19.758  0.00  0.00    +0.000 A 
ATOM     31  C   UNL     1       2.653   5.950  19.018  0.00  0.00    +0.000 A 
ATOM     32  C   UNL     1       3.364   5.794  17.816  0.00  0.00    +0.000 A 
BRANCH  27  36
ATOM     33  C   UNL     1       6.185   4.370  14.515  0.00  0.00    +0.000 C 
ATOM     34  C   UNL     1       5.739   4.280  15.952  0.00  0.00    +0.000 C 
ATOM     35  O   UNL     1       6.569   4.093  16.837  0.00  0.00    +0.000 OA
ATOM     36  N   UNL     1       4.371   4.443  16.119  0.00  0.00    +0.000 N 
ATOM     37  H   UNL     1       3.788   4.418  15.293  0.00  0.00    +0.000 HD
ENDBRANCH  27  36
ENDBRANCH  23  31
ENDBRANCH   1  25
TORSDOF 5
ENDMDL
MODEL 6
REMARK VINA RESULT:      -8.3      0.842      1.071
REMARK  Name = 
REMARK  7 active torsions:
REMARK  status: ('A' for Active; 'I' for Inactive)
REMARK    1  A    between atoms: C_1  and  C_2
REMARK    2  A    between atoms: N_4  and  C_5
REMARK    3  A    between atoms: C_9  and  C_10
REMARK    4  A    between atoms: N_12  and  C_13
REMARK    5  A    between atoms: C_17  and  C_18
REMARK    6  A    between atoms: C_21  and  C_22
REMARK    7  A    between atoms: C_28  and  C_29
REMARK                            x       y       z     vdW  Elec       q    Type
REMARK                         _______ _______ _______ _____ _____    ______ ____
ROOT
ATOM      1  C   UNL     1       4.019   4.982  17.507  0.00  0.00    +0.000 A 
ATOM      2  C   UNL     1       3.946   4.054  18.542  0.00  0.00    +0.000 A 
ATOM      3  C   UNL     1       3.313   4.387  19.744  0.00  0.00    +0.000 A 
ATOM      4  C   UNL     1       2.722   5.643  19.918  0.00  0.00    +0.000 A 
ATOM      5  C   UNL     1       2.775   6.599  18.898  0.00  0.00    +0.000 A 
ATOM      6  C   UNL     1       3.471   6.262  17.710  0.00  0.00    +0.000 A 
ENDROOT
BRANCH   5   7
ATOM      7  C   UNL     1       2.150   7.934  19.029  0.00  0.00    +0.000 A 
ATOM      8  C   UNL     1       2.046   8.893  18.041  0.00  0.00    +0.000 A 
ATOM      9  C   UNL     1       1.300  10.022  18.454  0.00  0.00    +0.000 A 
ATOM     10  C   UNL     1       0.852   9.949  19.762  0.00  0.00    +0.000 A 
ATOM     11  S   UNL     1       1.375   8.488  20.484  0.00  0.00    +0.000 S 
BRANCH  10  12
ATOM     12  C   UNL     1       0.057  11.001  20.344  0.00  0.00    +0.000 A 
ATOM     13  N   UNL     1       0.300  12.251  20.007  0.00  0.00    +0.000 NA
ATOM     14  C   UNL     1      -0.491  13.029  20.791  0.00  0.00    +0.000 A 
ATOM     15  C   UNL     1      -0.536  14.427  20.833  0.00  0.00    +0.000 A 
ATOM     16  C   UNL     1      -1.392  15.040  21.738  0.00  0.00    +0.000 A 
ATOM     17  C   UNL     1      -2.180  14.266  22.589  0.00  0.00    +0.000 A 
ATOM     18  C   UNL     1      -2.160  12.847  22.572  0.00  0.00    +0.000 A 
ATOM     19  C   UNL     1      -2.996  12.109  23.578  0.00  0.00    +0.000 C 
ATOM     20  C   UNL     1      -1.289  12.257  21.632  0.00  0.00    +0.000 A 
ATOM     21  N   UNL     1      -0.953  10.953  21.286  0.00  0.00    +0.000 N 
ATOM     22  H   UNL     1      -1.351  10.114  21.681  0.00  0.00    +0.000 HD
ENDBRANCH  10  12
ENDBRANCH   5   7
BRANCH   1  25
ATOM     23  C   UNL     1       5.848   5.170  15.814  0.00  0.00    +0.000 C 
ATOM     24  O   UNL     1       6.655   5.825  16.463  0.00  0.00    +0.000 OA
ATOM     25  N   UNL     1       4.619   4.700  16.253  0.00  0.00    +0.000 N 
ATOM     26  H   UNL     1       4.182   3.968  15.707  0.00  0.00    +0.000 HD
BRANCH  23  31
ATOM     27  C   UNL     1       5.681   3.578  12.393  0.00  0.00    +0.000 A 
ATOM     28  C   UNL     1       6.934   3.908  11.877  0.00  0.00    +0.000 A 
ATOM     29  C   UNL     1       7.840   4.657  12.636  0.00  0.00    +0.000 A 
ATOM     30  C   UNL     1       7.498   5.079  13.914  0.00  0.00    +0.000 A 
ATOM     31  C   UNL     1       6.236   4.776  14.432  0.00  0.00    +0.000 A 
ATOM     32  C   UNL     1       5.327   4.029  13.664  0.00  0.00    +0.000 A 
BRANCH  27  36
ATOM     33  C   UNL     1       2.799   2.225  10.361  0.00  0.00    +0.000 C 
ATOM     34  C   UNL     1       3.751   3.286  10.849  0.00  0.00    +0.000 C 
ATOM     35  O   UNL     1       3.598   4.452  10.494  0.00  0.00    +0.000 OA
ATOM     36  N   UNL     1       4.734   2.801  11.700  0.00  0.00    +0.000 N 
ATOM     37  H   UNL     1       4.846   1.798  11.769  0.00  0.00    +0.000 HD
ENDBRANCH  27  36
ENDBRANCH  23  31
ENDBRANCH   1  25
TORSDOF 5
ENDMDL
MODEL 7
REMARK VINA RESULT:      -8.2      1.417      1.650
REMARK  Name = 
REMARK  7 active torsions:
REMARK  status: ('A' for Active; 'I' for Inactive)
REMARK    1  A    between atoms: C_1  and  C_2
REMARK    2  A    between atoms: N_4  and  C_5
REMARK    3  A    between atoms: C_9  and  C_10
REMARK    4  A    between atoms: N_12  and  C_13
REMARK    5  A    between atoms: C_17  and  C_18
REMARK    6  A    between atoms: C_21  and  C_22
REMARK    7  A    between atoms: C_28  and  C_29
REMARK                            x       y       z     vdW  Elec       q    Type
REMARK                         _______ _______ _______ _____ _____    ______ ____
ROOT
ATOM      1  C   UNL     1       3.377   5.274  18.380  0.00  0.00    +0.000 A 
ATOM      2  C   UNL     1       3.122   4.265  19.305  0.00  0.00    +0.000 A 
ATOM      3  C   UNL     1       2.391   4.542  20.466  0.00  0.00    +0.000 A 
ATOM      4  C   UNL     1       1.884   5.824  20.703  0.00  0.00    +0.000 A 
ATOM      5  C   UNL     1       2.119   6.860  19.793  0.00  0.00    +0.000 A 
ATOM      6  C   UNL     1       2.911   6.572  18.654  0.00  0.00    +0.000 A 
ENDROOT
BRANCH   5   7
ATOM      7  C   UNL     1       1.589   8.227  19.994  0.00  0.00    +0.000 A 
ATOM      8  C   UNL     1       1.486   9.217  19.036  0.00  0.00    +0.000 A 
ATOM      9  C   UNL     1       0.838  10.377  19.519  0.00  0.00    +0.000 A 
ATOM     10  C   UNL     1       0.465  10.297  20.850  0.00  0.00    +0.000 A 
ATOM     11  S   UNL     1       0.937   8.788  21.505  0.00  0.00    +0.000 S 
BRANCH  10  12
ATOM     12  C   UNL     1      -0.227  11.380  21.504  0.00  0.00    +0.000 A 
ATOM     13  N   UNL     1       0.352  12.561  21.576  0.00  0.00    +0.000 NA
ATOM     14  C   UNL     1      -0.449  13.342  22.346  0.00  0.00    +0.000 A 
ATOM     15  C   UNL     1      -0.215  14.662  22.750  0.00  0.00    +0.000 A 
ATOM     16  C   UNL     1      -1.144  15.280  23.576  0.00  0.00    +0.000 A 
ATOM     17  C   UNL     1      -2.280  14.586  23.995  0.00  0.00    +0.000 A 
ATOM     18  C   UNL     1      -2.547  13.250  23.603  0.00  0.00    +0.000 A 
ATOM     19  C   UNL     1      -3.762  12.570  24.166  0.00  0.00    +0.000 C 
ATOM     20  C   UNL     1      -1.590  12.656  22.754  0.00  0.00    +0.000 A 
ATOM     21  N   UNL     1      -1.446  11.409  22.153  0.00  0.00    +0.000 N 
ATOM     22  H   UNL     1      -2.102  10.644  22.212  0.00  0.00    +0.000 HD
ENDBRANCH  10  12
ENDBRANCH   5   7
BRANCH   1  25
ATOM     23  C   UNL     1       5.465   5.028  17.028  0.00  0.00    +0.000 C 
ATOM     24  O   UNL     1       6.295   5.095  17.926  0.00  0.00    +0.000 OA
ATOM     25  N   UNL     1       4.085   5.055  17.171  0.00  0.00    +0.000 N 
ATOM     26  H   UNL     1       3.533   4.737  16.385  0.00  0.00    +0.000 HD
BRANCH  23  31
ATOM     27  C   UNL     1       5.493   4.238  13.334  0.00  0.00    +0.000 A 
ATOM     28  C   UNL     1       6.852   4.349  13.042  0.00  0.00    +0.000 A 
ATOM     29  C   UNL     1       7.769   4.688  14.043  0.00  0.00    +0.000 A 
ATOM     30  C   UNL     1       7.331   4.918  15.340  0.00  0.00    +0.000 A 
ATOM     31  C   UNL     1       5.969   4.835  15.641  0.00  0.00    +0.000 A 
ATOM     32  C   UNL     1       5.051   4.500  14.631  0.00  0.00    +0.000 A 
BRANCH  27  36
ATOM     33  C   UNL     1       3.480   2.754  10.504  0.00  0.00    +0.000 C 
ATOM     34  C   UNL     1       4.621   2.818  11.485  0.00  0.00    +0.000 C 
ATOM     35  O   UNL     1       5.526   1.991  11.422  0.00  0.00    +0.000 OA
ATOM     36  N   UNL     1       4.520   3.869  12.386  0.00  0.00    +0.000 N 
ATOM     37  H   UNL     1       3.640   4.366  12.435  0.00  0.00    +0.000 HD
ENDBRANCH  27  36
ENDBRANCH  23  31
ENDBRANCH   1  25
TORSDOF 5
ENDMDL
MODEL 8
REMARK VINA RESULT:      -8.1      0.740      1.453
REMARK  Name = 
REMARK  7 active torsions:
REMARK  status: ('A' for Active; 'I' for Inactive)
REMARK    1  A    between atoms: C_1  and  C_2
REMARK    2  A    between atoms: N_4  and  C_5
REMARK    3  A    between atoms: C_9  and  C_10
REMARK    4  A    between atoms: N_12  and  C_13
REMARK    5  A    between atoms: C_17  and  C_18
REMARK    6  A    between atoms: C_21  and  C_22
REMARK    7  A    between atoms: C_28  and  C_29
REMARK                            x       y       z     vdW  Elec       q    Type
REMARK                         _______ _______ _______ _____ _____    ______ ____
ROOT
ATOM      1  C   UNL     1       4.088   4.841  17.508  0.00  0.00    +0.000 A 
ATOM      2  C   UNL     1       4.008   3.931  18.558  0.00  0.00    +0.000 A 
ATOM      3  C   UNL     1       3.368   4.285  19.751  0.00  0.00    +0.000 A 
ATOM      4  C   UNL     1       2.777   5.544  19.899  0.00  0.00    +0.000 A 
ATOM      5  C   UNL     1       2.836   6.482  18.863  0.00  0.00    +0.000 A 
ATOM      6  C   UNL     1       3.539   6.124  17.686  0.00  0.00    +0.000 A 
ENDROOT
BRANCH   5   7
ATOM      7  C   UNL     1       2.211   7.819  18.968  0.00  0.00    +0.000 A 
ATOM      8  C   UNL     1       2.066   8.740  17.949  0.00  0.00    +0.000 A 
ATOM      9  C   UNL     1       1.331   9.881  18.346  0.00  0.00    +0.000 A 
ATOM     10  C   UNL     1       0.931   9.856  19.672  0.00  0.00    +0.000 A 
ATOM     11  S   UNL     1       1.486   8.425  20.428  0.00  0.00    +0.000 S 
BRANCH  10  12
ATOM     12  C   UNL     1       0.153  10.927  20.243  0.00  0.00    +0.000 A 
ATOM     13  N   UNL     1      -1.143  10.972  20.014  0.00  0.00    +0.000 NA
ATOM     14  C   UNL     1      -1.595  12.135  20.548  0.00  0.00    +0.000 A 
ATOM     15  C   UNL     1      -2.898  12.644  20.500  0.00  0.00    +0.000 A 
ATOM     16  C   UNL     1      -3.153  13.880  21.078  0.00  0.00    +0.000 A 
ATOM     17  C   UNL     1      -2.120  14.595  21.685  0.00  0.00    +0.000 A 
ATOM     18  C   UNL     1      -0.790  14.108  21.754  0.00  0.00    +0.000 A 
ATOM     19  C   UNL     1       0.262  14.987  22.367  0.00  0.00    +0.000 C 
ATOM     20  C   UNL     1      -0.569  12.844  21.167  0.00  0.00    +0.000 A 
ATOM     21  N   UNL     1       0.538  12.017  21.001  0.00  0.00    +0.000 N 
ATOM     22  H   UNL     1       1.470  12.198  21.342  0.00  0.00    +0.000 HD
ENDBRANCH  10  12
ENDBRANCH   5   7
BRANCH   1  25
ATOM     23  C   UNL     1       5.631   5.318  15.601  0.00  0.00    +0.000 C 
ATOM     24  O   UNL     1       6.154   6.345  16.018  0.00  0.00    +0.000 OA
ATOM     25  N   UNL     1       4.695   4.537  16.263  0.00  0.00    +0.000 N 
ATOM     26  H   UNL     1       4.548   3.598  15.915  0.00  0.00    +0.000 HD
BRANCH  23  31
ATOM     27  C   UNL     1       5.576   3.519  12.280  0.00  0.00    +0.000 A 
ATOM     28  C   UNL     1       6.880   3.729  11.835  0.00  0.00    +0.000 A 
ATOM     29  C   UNL     1       7.786   4.463  12.608  0.00  0.00    +0.000 A 
ATOM     30  C   UNL     1       7.392   4.991  13.830  0.00  0.00    +0.000 A 
ATOM     31  C   UNL     1       6.080   4.809  14.276  0.00  0.00    +0.000 A 
ATOM     32  C   UNL     1       5.172   4.076  13.493  0.00  0.00    +0.000 A 
BRANCH  27  36
ATOM     33  C   UNL     1       2.693   2.232  10.207  0.00  0.00    +0.000 C 
ATOM     34  C   UNL     1       3.659   3.272  10.712  0.00  0.00    +0.000 C 
ATOM     35  O   UNL     1       3.532   4.442  10.362  0.00  0.00    +0.000 OA
ATOM     36  N   UNL     1       4.623   2.764  11.572  0.00  0.00    +0.000 N 
ATOM     37  H   UNL     1       4.715   1.759  11.636  0.00  0.00    +0.000 HD
ENDBRANCH  27  36
ENDBRANCH  23  31
ENDBRANCH   1  25
TORSDOF 5
ENDMDL
MODEL 9
REMARK VINA RESULT:      -8.0      4.991     12.168
REMARK  Name = 
REMARK  7 active torsions:
REMARK  status: ('A' for Active; 'I' for Inactive)
REMARK    1  A    between atoms: C_1  and  C_2
REMARK    2  A    between atoms: N_4  and  C_5
REMARK    3  A    between atoms: C_9  and  C_10
REMARK    4  A    between atoms: N_12  and  C_13
REMARK    5  A    between atoms: C_17  and  C_18
REMARK    6  A    between atoms: C_21  and  C_22
REMARK    7  A    between atoms: C_28  and  C_29
REMARK                            x       y       z     vdW  Elec       q    Type
REMARK                         _______ _______ _______ _____ _____    ______ ____
ROOT
ATOM      1  C   UNL     1      -0.518  13.515  20.065  0.00  0.00    +0.000 A 
ATOM      2  C   UNL     1       0.269  14.563  19.594  0.00  0.00    +0.000 A 
ATOM      3  C   UNL     1       1.448  14.296  18.889  0.00  0.00    +0.000 A 
ATOM      4  C   UNL     1       1.842  12.981  18.624  0.00  0.00    +0.000 A 
ATOM      5  C   UNL     1       1.073  11.905  19.080  0.00  0.00    +0.000 A 
ATOM      6  C   UNL     1      -0.086  12.195  19.842  0.00  0.00    +0.000 A 
ENDROOT
BRANCH   5   7
ATOM      7  C   UNL     1       1.441  10.497  18.809  0.00  0.00    +0.000 A 
ATOM      8  C   UNL     1       2.178  10.032  17.738  0.00  0.00    +0.000 A 
ATOM      9  C   UNL     1       2.447   8.646  17.822  0.00  0.00    +0.000 A 
ATOM     10  C   UNL     1       1.900   8.036  18.938  0.00  0.00    +0.000 A 
ATOM     11  S   UNL     1       1.034   9.181  19.871  0.00  0.00    +0.000 S 
BRANCH  10  12
ATOM     12  C   UNL     1       2.093   6.631  19.197  0.00  0.00    +0.000 A 
ATOM     13  N   UNL     1       1.861   6.163  20.406  0.00  0.00    +0.000 NA
ATOM     14  C   UNL     1       2.245   4.861  20.403  0.00  0.00    +0.000 A 
ATOM     15  C   UNL     1       2.241   3.970  21.482  0.00  0.00    +0.000 A 
ATOM     16  C   UNL     1       2.713   2.680  21.283  0.00  0.00    +0.000 A 
ATOM     17  C   UNL     1       3.188   2.294  20.029  0.00  0.00    +0.000 A 
ATOM     18  C   UNL     1       3.205   3.171  18.914  0.00  0.00    +0.000 A 
ATOM     19  C   UNL     1       3.802   2.679  17.627  0.00  0.00    +0.000 C 
ATOM     20  C   UNL     1       2.707   4.470  19.148  0.00  0.00    +0.000 A 
ATOM     21  N   UNL     1       2.548   5.617  18.377  0.00  0.00    +0.000 N 
ATOM     22  H   UNL     1       2.764   5.705  17.394  0.00  0.00    +0.000 HD
ENDBRANCH  10  12
ENDBRANCH   5   7
BRANCH   1  25
ATOM     23  C   UNL     1      -1.903  13.703  22.136  0.00  0.00    +0.000 C 
ATOM     24  O   UNL     1      -1.018  13.612  22.978  0.00  0.00    +0.000 OA
ATOM     25  N   UNL     1      -1.738  13.714  20.759  0.00  0.00    +0.000 N 
ATOM     26  H   UNL     1      -2.516  14.049  20.203  0.00  0.00    +0.000 HD
BRANCH  23  31
ATOM     27  C   UNL     1      -5.588  13.071  22.677  0.00  0.00    +0.000 A 
ATOM     28  C   UNL     1      -5.954  14.202  23.405  0.00  0.00    +0.000 A 
ATOM     29  C   UNL     1      -5.004  15.176  23.731  0.00  0.00    +0.000 A 
ATOM     30  C   UNL     1      -3.683  15.023  23.332  0.00  0.00    +0.000 A 
ATOM     31  C   UNL     1      -3.298  13.882  22.623  0.00  0.00    +0.000 A 
ATOM     32  C   UNL     1      -4.255  12.904  22.303  0.00  0.00    +0.000 A 
BRANCH  27  36
ATOM     33  C   UNL     1      -7.906  10.698  20.871  0.00  0.00    +0.000 C 
ATOM     34  C   UNL     1      -6.794  11.709  20.978  0.00  0.00    +0.000 C 
ATOM     35  O   UNL     1      -6.260  12.138  19.960  0.00  0.00    +0.000 OA
ATOM     36  N   UNL     1      -6.495  12.070  22.285  0.00  0.00    +0.000 N 
ATOM     37  H   UNL     1      -6.893  11.513  23.031  0.00  0.00    +0.000 HD
ENDBRANCH  27  36
ENDBRANCH  23  31
ENDBRANCH   1  25
TORSDOF 5
ENDMDL
