MODEL 1
REMARK VINA RESULT:      -6.3      0.000      0.000
REMARK  Name = 
REMARK  4 active torsions:
REMARK  status: ('A' for Active; 'I' for Inactive)
REMARK    1  A    between atoms: C_1  and  O_2
REMARK    2  A    between atoms: O_2  and  C_3
REMARK    3  A    between atoms: C_7  and  N_8
REMARK    4  A    between atoms: N_11  and  C_12
REMARK                            x       y       z     vdW  Elec       q    Type
REMARK                         _______ _______ _______ _____ _____    ______ ____
ROOT
ATOM      1  C   UNL     1       6.890   5.928  16.564  0.00  0.00    +0.000 A 
ATOM      2  C   UNL     1       6.725   5.215  15.379  0.00  0.00    +0.000 A 
ATOM      3  C   UNL     1       5.843   4.141  15.329  0.00  0.00    +0.000 A 
ATOM      4  C   UNL     1       5.112   3.781  16.465  0.00  0.00    +0.000 A 
ATOM      5  C   UNL     1       5.255   4.474  17.673  0.00  0.00    +0.000 A 
ATOM      6  C   UNL     1       6.163   5.545  17.693  0.00  0.00    +0.000 A 
ENDROOT
BRANCH   5   7
ATOM      7  N   UNL     1       4.501   4.194  18.794  0.00  0.00    +0.000 N 
ATOM      8  C   UNL     1       4.605   2.917  19.508  0.00  0.00    +0.000 C 
ATOM      9  C   UNL     1       3.200   2.501  20.005  0.00  0.00    +0.000 C 
ATOM     10  N   UNL     1       2.561   3.541  20.846  0.00  0.00    +0.000 NA
ATOM     11  C   UNL     1       1.228   3.113  21.264  0.00  0.00    +0.000 C 
ATOM     12  C   UNL     1       2.486   4.807  20.082  0.00  0.00    +0.000 C 
ATOM     13  C   UNL     1       3.873   5.272  19.576  0.00  0.00    +0.000 C 
ENDBRANCH   5   7
BRANCH   1  15
ATOM     14  C   UNL     1       7.755   7.879  17.607  0.00  0.00    +0.000 C 
ATOM     15  O   UNL     1       7.756   6.987  16.497  0.00  0.00    +0.000 OA
ENDBRANCH   1  15
TORSDOF 2
ENDMDL
MODEL 2
REMARK VINA RESULT:      -6.2      1.644      2.385
REMARK  Name = 
REMARK  4 active torsions:
REMARK  status: ('A' for Active; 'I' for Inactive)
REMARK    1  A    between atoms: C_1  and  O_2
REMARK    2  A    between atoms: O_2  and  C_3
REMARK    3  A    between atoms: C_7  and  N_8
REMARK    4  A    between atoms: N_11  and  C_12
REMARK                            x       y       z     vdW  Elec       q    Type
REMARK                         _______ _______ _______ _____ _____    ______ ____
ROOT
ATOM      1  C   UNL     1       5.621   4.369  15.524  0.00  0.00    +0.000 A 
ATOM      2  C   UNL     1       5.617   5.718  15.178  0.00  0.00    +0.000 A 
ATOM      3  C   UNL     1       5.032   6.653  16.024  0.00  0.00    +0.000 A 
ATOM      4  C   UNL     1       4.455   6.244  17.230  0.00  0.00    +0.000 A 
ATOM      5  C   UNL     1       4.439   4.896  17.608  0.00  0.00    +0.000 A 
ATOM      6  C   UNL     1       5.027   3.975  16.725  0.00  0.00    +0.000 A 
ENDROOT
BRANCH   5   7
ATOM      7  N   UNL     1       3.943   4.462  18.820  0.00  0.00    +0.000 N 
ATOM      8  C   UNL     1       4.442   3.251  19.481  0.00  0.00    +0.000 C 
ATOM      9  C   UNL     1       3.259   2.528  20.169  0.00  0.00    +0.000 C 
ATOM     10  N   UNL     1       2.530   3.402  21.119  0.00  0.00    +0.000 NA
ATOM     11  C   UNL     1       1.408   2.683  21.717  0.00  0.00    +0.000 C 
ATOM     12  C   UNL     1       2.055   4.609  20.403  0.00  0.00    +0.000 C 
ATOM     13  C   UNL     1       3.207   5.375  19.711  0.00  0.00    +0.000 C 
ENDBRANCH   5   7
BRANCH   1  15
ATOM     14  C   UNL     1       5.979   3.754  13.258  0.00  0.00    +0.000 C 
ATOM     15  O   UNL     1       6.252   3.536  14.638  0.00  0.00    +0.000 OA
ENDBRANCH   1  15
TORSDOF 2
ENDMDL
MODEL 3
REMARK VINA RESULT:      -6.2      1.073      1.486
REMARK  Name = 
REMARK  4 active torsions:
REMARK  status: ('A' for Active; 'I' for Inactive)
REMARK    1  A    between atoms: C_1  and  O_2
REMARK    2  A    between atoms: O_2  and  C_3
REMARK    3  A    between atoms: C_7  and  N_8
REMARK    4  A    between atoms: N_11  and  C_12
REMARK                            x       y       z     vdW  Elec       q    Type
REMARK                         _______ _______ _______ _____ _____    ______ ____
ROOT
ATOM      1  C   UNL     1       6.812   5.822  16.344  0.00  0.00    +0.000 A 
ATOM      2  C   UNL     1       6.940   5.032  15.204  0.00  0.00    +0.000 A 
ATOM      3  C   UNL     1       6.013   4.030  14.943  0.00  0.00    +0.000 A 
ATOM      4  C   UNL     1       4.942   3.819  15.819  0.00  0.00    +0.000 A 
ATOM      5  C   UNL     1       4.786   4.593  16.975  0.00  0.00    +0.000 A 
ATOM      6  C   UNL     1       5.747   5.588  17.216  0.00  0.00    +0.000 A 
ENDROOT
BRANCH   5   7
ATOM      7  N   UNL     1       3.706   4.462  17.825  0.00  0.00    +0.000 N 
ATOM      8  C   UNL     1       3.433   5.427  18.896  0.00  0.00    +0.000 C 
ATOM      9  C   UNL     1       2.890   4.668  20.131  0.00  0.00    +0.000 C 
ATOM     10  N   UNL     1       1.693   3.852  19.819  0.00  0.00    +0.000 NA
ATOM     11  C   UNL     1       1.239   3.135  21.008  0.00  0.00    +0.000 C 
ATOM     12  C   UNL     1       2.021   2.902  18.731  0.00  0.00    +0.000 C 
ATOM     13  C   UNL     1       2.555   3.617  17.466  0.00  0.00    +0.000 C 
ENDBRANCH   5   7
BRANCH   1  15
ATOM     14  C   UNL     1       7.623   7.652  17.623  0.00  0.00    +0.000 C 
ATOM     15  O   UNL     1       7.759   6.801  16.490  0.00  0.00    +0.000 OA
ENDBRANCH   1  15
TORSDOF 2
ENDMDL
MODEL 4
REMARK VINA RESULT:      -6.2      1.798      2.748
REMARK  Name = 
REMARK  4 active torsions:
REMARK  status: ('A' for Active; 'I' for Inactive)
REMARK    1  A    between atoms: C_1  and  O_2
REMARK    2  A    between atoms: O_2  and  C_3
REMARK    3  A    between atoms: C_7  and  N_8
REMARK    4  A    between atoms: N_11  and  C_12
REMARK                            x       y       z     vdW  Elec       q    Type
REMARK                         _______ _______ _______ _____ _____    ______ ____
ROOT
ATOM      1  C   UNL     1       5.757   4.549  15.434  0.00  0.00    +0.000 A 
ATOM      2  C   UNL     1       5.784   5.941  15.466  0.00  0.00    +0.000 A 
ATOM      3  C   UNL     1       4.981   6.633  16.365  0.00  0.00    +0.000 A 
ATOM      4  C   UNL     1       4.153   5.934  17.248  0.00  0.00    +0.000 A 
ATOM      5  C   UNL     1       4.099   4.535  17.242  0.00  0.00    +0.000 A 
ATOM      6  C   UNL     1       4.913   3.867  16.313  0.00  0.00    +0.000 A 
ENDROOT
BRANCH   5   7
ATOM      7  N   UNL     1       3.348   3.809  18.143  0.00  0.00    +0.000 N 
ATOM      8  C   UNL     1       1.882   3.815  18.125  0.00  0.00    +0.000 C 
ATOM      9  C   UNL     1       1.359   3.774  19.581  0.00  0.00    +0.000 C 
ATOM     10  N   UNL     1       1.885   2.619  20.345  0.00  0.00    +0.000 NA
ATOM     11  C   UNL     1       1.387   2.644  21.718  0.00  0.00    +0.000 C 
ATOM     12  C   UNL     1       3.366   2.658  20.327  0.00  0.00    +0.000 C 
ATOM     13  C   UNL     1       3.937   2.683  18.889  0.00  0.00    +0.000 C 
ENDBRANCH   5   7
BRANCH   1  15
ATOM     14  C   UNL     1       6.087   3.717  13.234  0.00  0.00    +0.000 C 
ATOM     15  O   UNL     1       6.609   3.964  14.535  0.00  0.00    +0.000 OA
ENDBRANCH   1  15
TORSDOF 2
ENDMDL
MODEL 5
REMARK VINA RESULT:      -6.1      2.761      5.603
REMARK  Name = 
REMARK  4 active torsions:
REMARK  status: ('A' for Active; 'I' for Inactive)
REMARK    1  A    between atoms: C_1  and  O_2
REMARK    2  A    between atoms: O_2  and  C_3
REMARK    3  A    between atoms: C_7  and  N_8
REMARK    4  A    between atoms: N_11  and  C_12
REMARK                            x       y       z     vdW  Elec       q    Type
REMARK                         _______ _______ _______ _____ _____    ______ ____
ROOT
ATOM      1  C   UNL     1       3.152   2.889  19.925  0.00  0.00    +0.000 A 
ATOM      2  C   UNL     1       2.359   2.219  18.997  0.00  0.00    +0.000 A 
ATOM      3  C   UNL     1       2.514   2.469  17.638  0.00  0.00    +0.000 A 
ATOM      4  C   UNL     1       3.474   3.387  17.199  0.00  0.00    +0.000 A 
ATOM      5  C   UNL     1       4.286   4.080  18.104  0.00  0.00    +0.000 A 
ATOM      6  C   UNL     1       4.095   3.813  19.470  0.00  0.00    +0.000 A 
ENDROOT
BRANCH   5   7
ATOM      7  N   UNL     1       5.290   4.939  17.707  0.00  0.00    +0.000 N 
ATOM      8  C   UNL     1       6.705   4.668  17.983  0.00  0.00    +0.000 C 
ATOM      9  C   UNL     1       7.419   6.002  18.308  0.00  0.00    +0.000 C 
ATOM     10  N   UNL     1       7.261   7.011  17.234  0.00  0.00    +0.000 NA
ATOM     11  C   UNL     1       7.926   8.258  17.601  0.00  0.00    +0.000 C 
ATOM     12  C   UNL     1       5.817   7.241  16.991  0.00  0.00    +0.000 C 
ATOM     13  C   UNL     1       5.062   5.935  16.647  0.00  0.00    +0.000 C 
ENDBRANCH   5   7
BRANCH   1  15
ATOM     14  C   UNL     1       1.614   2.692  21.724  0.00  0.00    +0.000 C 
ATOM     15  O   UNL     1       2.943   2.546  21.235  0.00  0.00    +0.000 OA
ENDBRANCH   1  15
TORSDOF 2
ENDMDL
MODEL 6
REMARK VINA RESULT:      -6.0      1.900      2.731
REMARK  Name = 
REMARK  4 active torsions:
REMARK  status: ('A' for Active; 'I' for Inactive)
REMARK    1  A    between atoms: C_1  and  O_2
REMARK    2  A    between atoms: O_2  and  C_3
REMARK    3  A    between atoms: C_7  and  N_8
REMARK    4  A    between atoms: N_11  and  C_12
REMARK                            x       y       z     vdW  Elec       q    Type
REMARK                         _______ _______ _______ _____ _____    ______ ____
ROOT
ATOM      1  C   UNL     1       5.346   4.535  15.779  0.00  0.00    +0.000 A 
ATOM      2  C   UNL     1       5.634   5.895  15.702  0.00  0.00    +0.000 A 
ATOM      3  C   UNL     1       4.982   6.795  16.536  0.00  0.00    +0.000 A 
ATOM      4  C   UNL     1       4.041   6.336  17.463  0.00  0.00    +0.000 A 
ATOM      5  C   UNL     1       3.724   4.976  17.566  0.00  0.00    +0.000 A 
ATOM      6  C   UNL     1       4.392   4.095  16.700  0.00  0.00    +0.000 A 
ENDROOT
BRANCH   5   7
ATOM      7  N   UNL     1       2.854   4.477  18.514  0.00  0.00    +0.000 N 
ATOM      8  C   UNL     1       2.291   5.316  19.577  0.00  0.00    +0.000 C 
ATOM      9  C   UNL     1       2.193   4.484  20.878  0.00  0.00    +0.000 C 
ATOM     10  N   UNL     1       1.411   3.237  20.701  0.00  0.00    +0.000 NA
ATOM     11  C   UNL     1       1.374   2.475  21.946  0.00  0.00    +0.000 C 
ATOM     12  C   UNL     1       2.018   2.432  19.615  0.00  0.00    +0.000 C 
ATOM     13  C   UNL     1       2.123   3.220  18.287  0.00  0.00    +0.000 C 
ENDBRANCH   5   7
BRANCH   1  15
ATOM     14  C   UNL     1       6.960   4.387  14.043  0.00  0.00    +0.000 C 
ATOM     15  O   UNL     1       6.068   3.731  14.937  0.00  0.00    +0.000 OA
ENDBRANCH   1  15
TORSDOF 2
ENDMDL
MODEL 7
REMARK VINA RESULT:      -6.0      1.197      2.476
REMARK  Name = 
REMARK  4 active torsions:
REMARK  status: ('A' for Active; 'I' for Inactive)
REMARK    1  A    between atoms: C_1  and  O_2
REMARK    2  A    between atoms: O_2  and  C_3
REMARK    3  A    between atoms: C_7  and  N_8
REMARK    4  A    between atoms: N_11  and  C_12
REMARK                            x       y       z     vdW  Elec       q    Type
REMARK                         _______ _______ _______ _____ _____    ______ ____
ROOT
ATOM      1  C   UNL     1       6.431   5.625  16.358  0.00  0.00    +0.000 A 
ATOM      2  C   UNL     1       7.486   6.079  17.145  0.00  0.00    +0.000 A 
ATOM      3  C   UNL     1       7.380   6.062  18.531  0.00  0.00    +0.000 A 
ATOM      4  C   UNL     1       6.218   5.578  19.140  0.00  0.00    +0.000 A 
ATOM      5  C   UNL     1       5.136   5.118  18.380  0.00  0.00    +0.000 A 
ATOM      6  C   UNL     1       5.271   5.161  16.982  0.00  0.00    +0.000 A 
ENDROOT
BRANCH   5   7
ATOM      7  N   UNL     1       4.002   4.569  18.942  0.00  0.00    +0.000 N 
ATOM      8  C   UNL     1       2.984   5.389  19.607  0.00  0.00    +0.000 C 
ATOM      9  C   UNL     1       2.435   4.618  20.831  0.00  0.00    +0.000 C 
ATOM     10  N   UNL     1       1.905   3.281  20.473  0.00  0.00    +0.000 NA
ATOM     11  C   UNL     1       1.429   2.584  21.665  0.00  0.00    +0.000 C 
ATOM     12  C   UNL     1       2.969   2.499  19.802  0.00  0.00    +0.000 C 
ATOM     13  C   UNL     1       3.538   3.225  18.559  0.00  0.00    +0.000 C 
ENDBRANCH   5   7
BRANCH   1  15
ATOM     14  C   UNL     1       6.362   4.457  14.291  0.00  0.00    +0.000 C 
ATOM     15  O   UNL     1       6.650   5.654  15.006  0.00  0.00    +0.000 OA
ENDBRANCH   1  15
TORSDOF 2
ENDMDL
MODEL 8
REMARK VINA RESULT:      -5.9      1.934      2.718
REMARK  Name = 
REMARK  4 active torsions:
REMARK  status: ('A' for Active; 'I' for Inactive)
REMARK    1  A    between atoms: C_1  and  O_2
REMARK    2  A    between atoms: O_2  and  C_3
REMARK    3  A    between atoms: C_7  and  N_8
REMARK    4  A    between atoms: N_11  and  C_12
REMARK                            x       y       z     vdW  Elec       q    Type
REMARK                         _______ _______ _______ _____ _____    ______ ____
ROOT
ATOM      1  C   UNL     1       7.076   7.108  17.701  0.00  0.00    +0.000 A 
ATOM      2  C   UNL     1       7.962   6.618  18.657  0.00  0.00    +0.000 A 
ATOM      3  C   UNL     1       7.610   5.521  19.435  0.00  0.00    +0.000 A 
ATOM      4  C   UNL     1       6.370   4.901  19.253  0.00  0.00    +0.000 A 
ATOM      5  C   UNL     1       5.455   5.369  18.304  0.00  0.00    +0.000 A 
ATOM      6  C   UNL     1       5.836   6.487  17.543  0.00  0.00    +0.000 A 
ENDROOT
BRANCH   5   7
ATOM      7  N   UNL     1       4.253   4.742  18.046  0.00  0.00    +0.000 N 
ATOM      8  C   UNL     1       2.972   5.454  18.101  0.00  0.00    +0.000 C 
ATOM      9  C   UNL     1       1.895   4.510  18.689  0.00  0.00    +0.000 C 
ATOM     10  N   UNL     1       1.776   3.240  17.935  0.00  0.00    +0.000 NA
ATOM     11  C   UNL     1       0.771   2.374  18.546  0.00  0.00    +0.000 C 
ATOM     12  C   UNL     1       3.096   2.566  17.904  0.00  0.00    +0.000 C 
ATOM     13  C   UNL     1       4.203   3.468  17.309  0.00  0.00    +0.000 C 
ENDBRANCH   5   7
BRANCH   1  15
ATOM     14  C   UNL     1       8.105   9.249  17.697  0.00  0.00    +0.000 C 
ATOM     15  O   UNL     1       7.533   8.170  16.965  0.00  0.00    +0.000 OA
ENDBRANCH   1  15
TORSDOF 2
ENDMDL
MODEL 9
REMARK VINA RESULT:      -5.9      1.383      2.292
REMARK  Name = 
REMARK  4 active torsions:
REMARK  status: ('A' for Active; 'I' for Inactive)
REMARK    1  A    between atoms: C_1  and  O_2
REMARK    2  A    between atoms: O_2  and  C_3
REMARK    3  A    between atoms: C_7  and  N_8
REMARK    4  A    between atoms: N_11  and  C_12
REMARK                            x       y       z     vdW  Elec       q    Type
REMARK                         _______ _______ _______ _____ _____    ______ ____
ROOT
ATOM      1  C   UNL     1       6.840   5.708  16.666  0.00  0.00    +0.000 A 
ATOM      2  C   UNL     1       7.791   6.171  17.572  0.00  0.00    +0.000 A 
ATOM      3  C   UNL     1       7.576   6.039  18.938  0.00  0.00    +0.000 A 
ATOM      4  C   UNL     1       6.408   5.431  19.409  0.00  0.00    +0.000 A 
ATOM      5  C   UNL     1       5.429   4.956  18.528  0.00  0.00    +0.000 A 
ATOM      6  C   UNL     1       5.672   5.117  17.153  0.00  0.00    +0.000 A 
ENDROOT
BRANCH   5   7
ATOM      7  N   UNL     1       4.299   4.288  18.950  0.00  0.00    +0.000 N 
ATOM      8  C   UNL     1       4.330   2.881  19.364  0.00  0.00    +0.000 C 
ATOM      9  C   UNL     1       3.029   2.188  18.892  0.00  0.00    +0.000 C 
ATOM     10  N   UNL     1       1.808   2.869  19.383  0.00  0.00    +0.000 NA
ATOM     11  C   UNL     1       0.612   2.195  18.886  0.00  0.00    +0.000 C 
ATOM     12  C   UNL     1       1.830   4.284  18.944  0.00  0.00    +0.000 C 
ATOM     13  C   UNL     1       3.108   5.024  19.407  0.00  0.00    +0.000 C 
ENDBRANCH   5   7
BRANCH   1  15
ATOM     14  C   UNL     1       6.899   4.743  14.497  0.00  0.00    +0.000 C 
ATOM     15  O   UNL     1       7.164   5.856  15.344  0.00  0.00    +0.000 OA
ENDBRANCH   1  15
TORSDOF 2
ENDMDL
