MODEL 1
REMARK VINA RESULT:      -7.4      0.000      0.000
REMARK  Name = 
REMARK  3 active torsions:
REMARK  status: ('A' for Active; 'I' for Inactive)
REMARK    1  A    between atoms: C_1  and  C_2
REMARK    2  A    between atoms: C_7  and  C_8
REMARK    3  A    between atoms: N_10  and  C_11
REMARK                            x       y       z     vdW  Elec       q    Type
REMARK                         _______ _______ _______ _____ _____    ______ ____
ROOT
ATOM      1  C   UNL     1       5.165   4.291  17.989  0.00  0.00    +0.000 C 
ATOM      2  O   UNL     1       5.666   3.808  19.000  0.00  0.00    +0.000 OA
ATOM      3  N   UNL     1       3.796   4.414  17.785  0.00  0.00    +0.000 N 
ATOM      4  H   UNL     1       3.513   4.708  16.859  0.00  0.00    +0.000 HD
ENDROOT
BRANCH   1  11
ATOM      5  C   UNL     1       7.428   6.551  18.033  0.00  0.00    +0.000 C 
ATOM      6  C   UNL     1       6.977   5.724  16.880  0.00  0.00    +0.000 A 
ATOM      7  N   UNL     1       7.597   5.930  15.656  0.00  0.00    +0.000 NA
ATOM      8  C   UNL     1       7.107   5.122  14.754  0.00  0.00    +0.000 A 
ATOM      9  N   UNL     1       7.532   5.100  13.482  0.00  0.00    +0.000 N 
ATOM     10  S   UNL     1       5.856   4.087  15.295  0.00  0.00    +0.000 S 
ATOM     11  C   UNL     1       5.994   4.742  16.878  0.00  0.00    +0.000 A 
ATOM     12  H   UNL     1       8.074   5.906  13.192  0.00  0.00    +0.000 HD
ATOM     13  H   UNL     1       6.910   4.735  12.773  0.00  0.00    +0.000 HD
ENDBRANCH   1  11
BRANCH   3  14
ATOM     14  C   UNL     1       2.763   4.077  18.683  0.00  0.00    +0.000 A 
ATOM     15  C   UNL     1       2.553   4.731  19.898  0.00  0.00    +0.000 A 
ATOM     16  C   UNL     1       1.522   4.329  20.753  0.00  0.00    +0.000 A 
ATOM     17  C   UNL     1       0.693   3.268  20.402  0.00  0.00    +0.000 A 
ATOM     18  C   UNL     1       0.880   2.621  19.183  0.00  0.00    +0.000 A 
ATOM     19  C   UNL     1       1.903   3.031  18.322  0.00  0.00    +0.000 A 
ENDBRANCH   3  14
TORSDOF 2
ENDMDL
MODEL 2
REMARK VINA RESULT:      -7.4      0.129      1.204
REMARK  Name = 
REMARK  3 active torsions:
REMARK  status: ('A' for Active; 'I' for Inactive)
REMARK    1  A    between atoms: C_1  and  C_2
REMARK    2  A    between atoms: C_7  and  C_8
REMARK    3  A    between atoms: N_10  and  C_11
REMARK                            x       y       z     vdW  Elec       q    Type
REMARK                         _______ _______ _______ _____ _____    ______ ____
ROOT
ATOM      1  C   UNL     1       5.141   4.255  17.922  0.00  0.00    +0.000 C 
ATOM      2  O   UNL     1       5.633   3.757  18.930  0.00  0.00    +0.000 OA
ATOM      3  N   UNL     1       3.773   4.385  17.711  0.00  0.00    +0.000 N 
ATOM      4  H   UNL     1       3.498   4.692  16.787  0.00  0.00    +0.000 HD
ENDROOT
BRANCH   1  11
ATOM      5  C   UNL     1       7.422   6.494  18.022  0.00  0.00    +0.000 C 
ATOM      6  C   UNL     1       6.970   5.694  16.851  0.00  0.00    +0.000 A 
ATOM      7  N   UNL     1       7.598   5.919  15.634  0.00  0.00    +0.000 NA
ATOM      8  C   UNL     1       7.105   5.133  14.714  0.00  0.00    +0.000 A 
ATOM      9  N   UNL     1       7.535   5.134  13.443  0.00  0.00    +0.000 N 
ATOM     10  S   UNL     1       5.843   4.099  15.228  0.00  0.00    +0.000 S 
ATOM     11  C   UNL     1       5.979   4.721  16.825  0.00  0.00    +0.000 A 
ATOM     12  H   UNL     1       8.086   5.941  13.171  0.00  0.00    +0.000 HD
ATOM     13  H   UNL     1       6.914   4.788  12.724  0.00  0.00    +0.000 HD
ENDBRANCH   1  11
BRANCH   3  14
ATOM     14  C   UNL     1       2.733   4.036  18.596  0.00  0.00    +0.000 A 
ATOM     15  C   UNL     1       1.904   2.928  18.414  0.00  0.00    +0.000 A 
ATOM     16  C   UNL     1       0.875   2.653  19.319  0.00  0.00    +0.000 A 
ATOM     17  C   UNL     1       0.664   3.485  20.414  0.00  0.00    +0.000 A 
ATOM     18  C   UNL     1       1.497   4.582  20.619  0.00  0.00    +0.000 A 
ATOM     19  C   UNL     1       2.536   4.849  19.720  0.00  0.00    +0.000 A 
ENDBRANCH   3  14
TORSDOF 2
ENDMDL
MODEL 3
REMARK VINA RESULT:      -7.3      0.933      1.146
REMARK  Name = 
REMARK  3 active torsions:
REMARK  status: ('A' for Active; 'I' for Inactive)
REMARK    1  A    between atoms: C_1  and  C_2
REMARK    2  A    between atoms: C_7  and  C_8
REMARK    3  A    between atoms: N_10  and  C_11
REMARK                            x       y       z     vdW  Elec       q    Type
REMARK                         _______ _______ _______ _____ _____    ______ ____
ROOT
ATOM      1  C   UNL     1       5.428   4.445  18.357  0.00  0.00    +0.000 C 
ATOM      2  O   UNL     1       6.057   4.424  19.412  0.00  0.00    +0.000 OA
ATOM      3  N   UNL     1       4.078   4.132  18.254  0.00  0.00    +0.000 N 
ATOM      4  H   UNL     1       3.713   4.062  17.313  0.00  0.00    +0.000 HD
ENDROOT
BRANCH   1  11
ATOM      5  C   UNL     1       7.507   6.806  17.781  0.00  0.00    +0.000 C 
ATOM      6  C   UNL     1       6.983   5.789  16.828  0.00  0.00    +0.000 A 
ATOM      7  N   UNL     1       7.435   5.839  15.517  0.00  0.00    +0.000 NA
ATOM      8  C   UNL     1       6.901   4.877  14.813  0.00  0.00    +0.000 A 
ATOM      9  N   UNL     1       7.171   4.685  13.513  0.00  0.00    +0.000 N 
ATOM     10  S   UNL     1       5.804   3.870  15.655  0.00  0.00    +0.000 S 
ATOM     11  C   UNL     1       6.082   4.765  17.096  0.00  0.00    +0.000 A 
ATOM     12  H   UNL     1       7.613   5.466  13.041  0.00  0.00    +0.000 HD
ATOM     13  H   UNL     1       6.498   4.182  12.950  0.00  0.00    +0.000 HD
ENDBRANCH   1  11
BRANCH   3  14
ATOM     14  C   UNL     1       3.194   3.800  19.300  0.00  0.00    +0.000 A 
ATOM     15  C   UNL     1       3.435   2.777  20.218  0.00  0.00    +0.000 A 
ATOM     16  C   UNL     1       2.503   2.484  21.219  0.00  0.00    +0.000 A 
ATOM     17  C   UNL     1       1.320   3.212  21.309  0.00  0.00    +0.000 A 
ATOM     18  C   UNL     1       1.077   4.249  20.412  0.00  0.00    +0.000 A 
ATOM     19  C   UNL     1       2.016   4.550  19.420  0.00  0.00    +0.000 A 
ENDBRANCH   3  14
TORSDOF 2
ENDMDL
MODEL 4
REMARK VINA RESULT:      -7.1      1.130      1.264
REMARK  Name = 
REMARK  3 active torsions:
REMARK  status: ('A' for Active; 'I' for Inactive)
REMARK    1  A    between atoms: C_1  and  C_2
REMARK    2  A    between atoms: C_7  and  C_8
REMARK    3  A    between atoms: N_10  and  C_11
REMARK                            x       y       z     vdW  Elec       q    Type
REMARK                         _______ _______ _______ _____ _____    ______ ____
ROOT
ATOM      1  C   UNL     1       5.121   4.840  18.528  0.00  0.00    +0.000 C 
ATOM      2  O   UNL     1       5.463   5.380  19.576  0.00  0.00    +0.000 OA
ATOM      3  N   UNL     1       4.026   3.992  18.416  0.00  0.00    +0.000 N 
ATOM      4  H   UNL     1       3.930   3.511  17.530  0.00  0.00    +0.000 HD
ENDROOT
BRANCH   1  11
ATOM      5  C   UNL     1       7.636   6.760  18.062  0.00  0.00    +0.000 C 
ATOM      6  C   UNL     1       6.978   5.852  17.082  0.00  0.00    +0.000 A 
ATOM      7  N   UNL     1       7.498   5.804  15.797  0.00  0.00    +0.000 NA
ATOM      8  C   UNL     1       6.828   4.954  15.065  0.00  0.00    +0.000 A 
ATOM      9  N   UNL     1       7.122   4.703  13.780  0.00  0.00    +0.000 N 
ATOM     10  S   UNL     1       5.519   4.180  15.849  0.00  0.00    +0.000 S 
ATOM     11  C   UNL     1       5.888   5.019  17.302  0.00  0.00    +0.000 A 
ATOM     12  H   UNL     1       7.727   5.382  13.333  0.00  0.00    +0.000 HD
ATOM     13  H   UNL     1       6.395   4.331  13.183  0.00  0.00    +0.000 HD
ENDBRANCH   1  11
BRANCH   3  14
ATOM     14  C   UNL     1       3.103   3.646  19.423  0.00  0.00    +0.000 A 
ATOM     15  C   UNL     1       1.801   4.145  19.480  0.00  0.00    +0.000 A 
ATOM     16  C   UNL     1       0.943   3.779  20.522  0.00  0.00    +0.000 A 
ATOM     17  C   UNL     1       1.381   2.911  21.518  0.00  0.00    +0.000 A 
ATOM     18  C   UNL     1       2.671   2.390  21.461  0.00  0.00    +0.000 A 
ATOM     19  C   UNL     1       3.525   2.746  20.411  0.00  0.00    +0.000 A 
ENDBRANCH   3  14
TORSDOF 2
ENDMDL
MODEL 5
REMARK VINA RESULT:      -6.8      1.212      1.212
REMARK  Name = 
REMARK  3 active torsions:
REMARK  status: ('A' for Active; 'I' for Inactive)
REMARK    1  A    between atoms: C_1  and  C_2
REMARK    2  A    between atoms: C_7  and  C_8
REMARK    3  A    between atoms: N_10  and  C_11
REMARK                            x       y       z     vdW  Elec       q    Type
REMARK                         _______ _______ _______ _____ _____    ______ ____
ROOT
ATOM      1  C   UNL     1       4.429   5.075  17.586  0.00  0.00    +0.000 C 
ATOM      2  O   UNL     1       3.887   6.105  17.980  0.00  0.00    +0.000 OA
ATOM      3  N   UNL     1       4.151   3.811  18.092  0.00  0.00    +0.000 N 
ATOM      4  H   UNL     1       4.757   3.066  17.774  0.00  0.00    +0.000 HD
ENDROOT
BRANCH   1  11
ATOM      5  C   UNL     1       7.368   6.315  17.822  0.00  0.00    +0.000 C 
ATOM      6  C   UNL     1       6.742   5.651  16.646  0.00  0.00    +0.000 A 
ATOM      7  N   UNL     1       7.502   5.533  15.491  0.00  0.00    +0.000 NA
ATOM      8  C   UNL     1       6.824   4.916  14.560  0.00  0.00    +0.000 A 
ATOM      9  N   UNL     1       7.322   4.659  13.341  0.00  0.00    +0.000 N 
ATOM     10  S   UNL     1       5.231   4.463  14.987  0.00  0.00    +0.000 S 
ATOM     11  C   UNL     1       5.464   5.112  16.561  0.00  0.00    +0.000 A 
ATOM     12  H   UNL     1       8.154   5.182  13.093  0.00  0.00    +0.000 HD
ATOM     13  H   UNL     1       6.675   4.512  12.577  0.00  0.00    +0.000 HD
ENDBRANCH   1  11
BRANCH   3  14
ATOM     14  C   UNL     1       3.196   3.472  19.072  0.00  0.00    +0.000 A 
ATOM     15  C   UNL     1       3.528   3.079  20.369  0.00  0.00    +0.000 A 
ATOM     16  C   UNL     1       2.530   2.733  21.285  0.00  0.00    +0.000 A 
ATOM     17  C   UNL     1       1.190   2.775  20.911  0.00  0.00    +0.000 A 
ATOM     18  C   UNL     1       0.845   3.186  19.627  0.00  0.00    +0.000 A 
ATOM     19  C   UNL     1       1.842   3.545  18.714  0.00  0.00    +0.000 A 
ENDBRANCH   3  14
TORSDOF 2
ENDMDL
MODEL 6
REMARK VINA RESULT:      -6.8      1.248      1.398
REMARK  Name = 
REMARK  3 active torsions:
REMARK  status: ('A' for Active; 'I' for Inactive)
REMARK    1  A    between atoms: C_1  and  C_2
REMARK    2  A    between atoms: C_7  and  C_8
REMARK    3  A    between atoms: N_10  and  C_11
REMARK                            x       y       z     vdW  Elec       q    Type
REMARK                         _______ _______ _______ _____ _____    ______ ____
ROOT
ATOM      1  C   UNL     1       4.577   3.627  17.372  0.00  0.00    +0.000 C 
ATOM      2  O   UNL     1       4.133   2.532  17.036  0.00  0.00    +0.000 OA
ATOM      3  N   UNL     1       4.113   4.349  18.464  0.00  0.00    +0.000 N 
ATOM      4  H   UNL     1       4.472   5.291  18.555  0.00  0.00    +0.000 HD
ENDROOT
BRANCH   1  11
ATOM      5  C   UNL     1       7.036   5.344  18.481  0.00  0.00    +0.000 C 
ATOM      6  C   UNL     1       6.693   5.037  17.065  0.00  0.00    +0.000 A 
ATOM      7  N   UNL     1       7.526   5.540  16.075  0.00  0.00    +0.000 NA
ATOM      8  C   UNL     1       7.105   5.172  14.894  0.00  0.00    +0.000 A 
ATOM      9  N   UNL     1       7.729   5.512  13.757  0.00  0.00    +0.000 N 
ATOM     10  S   UNL     1       5.676   4.232  14.882  0.00  0.00    +0.000 S 
ATOM     11  C   UNL     1       5.622   4.285  16.599  0.00  0.00    +0.000 A 
ATOM     12  H   UNL     1       8.397   6.271  13.837  0.00  0.00    +0.000 HD
ATOM     13  H   UNL     1       7.197   5.512  12.896  0.00  0.00    +0.000 HD
ENDBRANCH   1  11
BRANCH   3  14
ATOM     14  C   UNL     1       3.127   3.959  19.392  0.00  0.00    +0.000 A 
ATOM     15  C   UNL     1       1.810   4.421  19.359  0.00  0.00    +0.000 A 
ATOM     16  C   UNL     1       0.886   4.012  20.325  0.00  0.00    +0.000 A 
ATOM     17  C   UNL     1       1.272   3.137  21.337  0.00  0.00    +0.000 A 
ATOM     18  C   UNL     1       2.577   2.652  21.369  0.00  0.00    +0.000 A 
ATOM     19  C   UNL     1       3.497   3.052  20.394  0.00  0.00    +0.000 A 
ENDBRANCH   3  14
TORSDOF 2
ENDMDL
MODEL 7
REMARK VINA RESULT:      -6.7      1.256      1.383
REMARK  Name = 
REMARK  3 active torsions:
REMARK  status: ('A' for Active; 'I' for Inactive)
REMARK    1  A    between atoms: C_1  and  C_2
REMARK    2  A    between atoms: C_7  and  C_8
REMARK    3  A    between atoms: N_10  and  C_11
REMARK                            x       y       z     vdW  Elec       q    Type
REMARK                         _______ _______ _______ _____ _____    ______ ____
ROOT
ATOM      1  C   UNL     1       4.572   3.637  17.432  0.00  0.00    +0.000 C 
ATOM      2  O   UNL     1       4.066   2.584  17.054  0.00  0.00    +0.000 OA
ATOM      3  N   UNL     1       4.189   4.310  18.586  0.00  0.00    +0.000 N 
ATOM      4  H   UNL     1       4.593   5.229  18.715  0.00  0.00    +0.000 HD
ENDROOT
BRANCH   1  11
ATOM      5  C   UNL     1       6.976   5.446  18.515  0.00  0.00    +0.000 C 
ATOM      6  C   UNL     1       6.656   5.090  17.105  0.00  0.00    +0.000 A 
ATOM      7  N   UNL     1       7.487   5.584  16.109  0.00  0.00    +0.000 NA
ATOM      8  C   UNL     1       7.088   5.173  14.936  0.00  0.00    +0.000 A 
ATOM      9  N   UNL     1       7.716   5.495  13.795  0.00  0.00    +0.000 N 
ATOM     10  S   UNL     1       5.683   4.197  14.937  0.00  0.00    +0.000 S 
ATOM     11  C   UNL     1       5.609   4.298  16.651  0.00  0.00    +0.000 A 
ATOM     12  H   UNL     1       8.364   6.271  13.860  0.00  0.00    +0.000 HD
ATOM     13  H   UNL     1       7.193   5.457  12.930  0.00  0.00    +0.000 HD
ENDBRANCH   1  11
BRANCH   3  14
ATOM     14  C   UNL     1       3.230   3.905  19.535  0.00  0.00    +0.000 A 
ATOM     15  C   UNL     1       3.496   3.000  20.564  0.00  0.00    +0.000 A 
ATOM     16  C   UNL     1       2.490   2.623  21.459  0.00  0.00    +0.000 A 
ATOM     17  C   UNL     1       1.206   3.146  21.331  0.00  0.00    +0.000 A 
ATOM     18  C   UNL     1       0.933   4.065  20.322  0.00  0.00    +0.000 A 
ATOM     19  C   UNL     1       1.943   4.453  19.435  0.00  0.00    +0.000 A 
ENDBRANCH   3  14
TORSDOF 2
ENDMDL
MODEL 8
REMARK VINA RESULT:      -6.6      1.733      1.894
REMARK  Name = 
REMARK  3 active torsions:
REMARK  status: ('A' for Active; 'I' for Inactive)
REMARK    1  A    between atoms: C_1  and  C_2
REMARK    2  A    between atoms: C_7  and  C_8
REMARK    3  A    between atoms: N_10  and  C_11
REMARK                            x       y       z     vdW  Elec       q    Type
REMARK                         _______ _______ _______ _____ _____    ______ ____
ROOT
ATOM      1  C   UNL     1       3.806   3.989  17.327  0.00  0.00    +0.000 C 
ATOM      2  O   UNL     1       2.919   3.319  16.806  0.00  0.00    +0.000 OA
ATOM      3  N   UNL     1       3.904   4.214  18.695  0.00  0.00    +0.000 N 
ATOM      4  H   UNL     1       4.603   4.887  18.982  0.00  0.00    +0.000 HD
ENDROOT
BRANCH   1  11
ATOM      5  C   UNL     1       4.388   7.126  17.111  0.00  0.00    +0.000 C 
ATOM      6  C   UNL     1       5.085   6.011  16.413  0.00  0.00    +0.000 A 
ATOM      7  N   UNL     1       6.127   6.337  15.556  0.00  0.00    +0.000 NA
ATOM      8  C   UNL     1       6.646   5.257  15.037  0.00  0.00    +0.000 A 
ATOM      9  N   UNL     1       7.676   5.279  14.178  0.00  0.00    +0.000 N 
ATOM     10  S   UNL     1       5.910   3.787  15.509  0.00  0.00    +0.000 S 
ATOM     11  C   UNL     1       4.823   4.651  16.521  0.00  0.00    +0.000 A 
ATOM     12  H   UNL     1       7.873   6.182  13.759  0.00  0.00    +0.000 HD
ATOM     13  H   UNL     1       7.803   4.492  13.556  0.00  0.00    +0.000 HD
ENDBRANCH   1  11
BRANCH   3  14
ATOM     14  C   UNL     1       3.076   3.694  19.710  0.00  0.00    +0.000 A 
ATOM     15  C   UNL     1       3.492   2.728  20.627  0.00  0.00    +0.000 A 
ATOM     16  C   UNL     1       2.611   2.238  21.595  0.00  0.00    +0.000 A 
ATOM     17  C   UNL     1       1.303   2.710  21.654  0.00  0.00    +0.000 A 
ATOM     18  C   UNL     1       0.881   3.689  20.759  0.00  0.00    +0.000 A 
ATOM     19  C   UNL     1       1.767   4.189  19.799  0.00  0.00    +0.000 A 
ENDBRANCH   3  14
TORSDOF 2
ENDMDL
MODEL 9
REMARK VINA RESULT:      -6.6      1.733      1.916
REMARK  Name = 
REMARK  3 active torsions:
REMARK  status: ('A' for Active; 'I' for Inactive)
REMARK    1  A    between atoms: C_1  and  C_2
REMARK    2  A    between atoms: C_7  and  C_8
REMARK    3  A    between atoms: N_10  and  C_11
REMARK                            x       y       z     vdW  Elec       q    Type
REMARK                         _______ _______ _______ _____ _____    ______ ____
ROOT
ATOM      1  C   UNL     1       3.771   3.954  17.268  0.00  0.00    +0.000 C 
ATOM      2  O   UNL     1       2.925   3.254  16.719  0.00  0.00    +0.000 OA
ATOM      3  N   UNL     1       3.799   4.208  18.634  0.00  0.00    +0.000 N 
ATOM      4  H   UNL     1       4.469   4.903  18.939  0.00  0.00    +0.000 HD
ENDROOT
BRANCH   1  11
ATOM      5  C   UNL     1       4.380   7.091  17.122  0.00  0.00    +0.000 C 
ATOM      6  C   UNL     1       5.085   5.983  16.419  0.00  0.00    +0.000 A 
ATOM      7  N   UNL     1       6.148   6.317  15.593  0.00  0.00    +0.000 NA
ATOM      8  C   UNL     1       6.671   5.242  15.065  0.00  0.00    +0.000 A 
ATOM      9  N   UNL     1       7.721   5.273  14.230  0.00  0.00    +0.000 N 
ATOM     10  S   UNL     1       5.914   3.769  15.494  0.00  0.00    +0.000 S 
ATOM     11  C   UNL     1       4.811   4.624  16.497  0.00  0.00    +0.000 A 
ATOM     12  H   UNL     1       7.933   6.181  13.832  0.00  0.00    +0.000 HD
ATOM     13  H   UNL     1       7.856   4.496  13.597  0.00  0.00    +0.000 HD
ENDBRANCH   1  11
BRANCH   3  14
ATOM     14  C   UNL     1       2.935   3.690  19.619  0.00  0.00    +0.000 A 
ATOM     15  C   UNL     1       1.574   3.989  19.685  0.00  0.00    +0.000 A 
ATOM     16  C   UNL     1       0.777   3.458  20.705  0.00  0.00    +0.000 A 
ATOM     17  C   UNL     1       1.336   2.625  21.669  0.00  0.00    +0.000 A 
ATOM     18  C   UNL     1       2.689   2.303  21.602  0.00  0.00    +0.000 A 
ATOM     19  C   UNL     1       3.483   2.823  20.574  0.00  0.00    +0.000 A 
ENDBRANCH   3  14
TORSDOF 2
ENDMDL
