MODEL 1
REMARK VINA RESULT:      -7.8      0.000      0.000
REMARK  Name = 
REMARK  3 active torsions:
REMARK  status: ('A' for Active; 'I' for Inactive)
REMARK    1  A    between atoms: C_4  and  C_5
REMARK    2  A    between atoms: N_9  and  C_10
REMARK    3  A    between atoms: C_10  and  C_11
REMARK                            x       y       z     vdW  Elec       q    Type
REMARK                         _______ _______ _______ _____ _____    ______ ____
ROOT
ATOM      1  C   UNL     1       6.924   4.672  16.287  0.00  0.00    +0.000 A 
ATOM      2  N   UNL     1       7.961   4.334  17.037  0.00  0.00    +0.000 NA
ATOM      3  N   UNL     1       7.610   4.566  18.340  0.00  0.00    +0.000 NA
ATOM      4  N   UNL     1       6.373   5.019  18.419  0.00  0.00    +0.000 NA
ATOM      5  N   UNL     1       5.939   5.107  17.144  0.00  0.00    +0.000 N 
ENDROOT
BRANCH   1   9
ATOM      6  C   UNL     1       6.850   4.224  12.029  0.00  0.00    +0.000 A 
ATOM      7  C   UNL     1       7.720   5.126  12.634  0.00  0.00    +0.000 A 
ATOM      8  C   UNL     1       7.719   5.270  14.023  0.00  0.00    +0.000 A 
ATOM      9  C   UNL     1       6.854   4.514  14.831  0.00  0.00    +0.000 A 
ATOM     10  C   UNL     1       5.947   3.651  14.199  0.00  0.00    +0.000 A 
ATOM     11  C   UNL     1       5.957   3.494  12.810  0.00  0.00    +0.000 A 
ENDBRANCH   1   9
BRANCH   5  12
ATOM     12  C   UNL     1       4.556   5.473  16.901  0.00  0.00    +0.000 C 
BRANCH  12  13
ATOM     13  C   UNL     1       3.554   4.437  17.348  0.00  0.00    +0.000 A 
ATOM     14  C   UNL     1       2.279   4.742  17.838  0.00  0.00    +0.000 A 
ATOM     15  C   UNL     1       1.459   3.731  18.332  0.00  0.00    +0.000 A 
ATOM     16  C   UNL     1       1.939   2.435  18.326  0.00  0.00    +0.000 A 
ATOM     17  N   UNL     1       3.155   2.092  17.852  0.00  0.00    +0.000 NA
ATOM     18  C   UNL     1       3.932   3.096  17.384  0.00  0.00    +0.000 A 
ENDBRANCH  12  13
ENDBRANCH   5  12
TORSDOF 3
ENDMDL
MODEL 2
REMARK VINA RESULT:      -7.8      0.692      1.136
REMARK  Name = 
REMARK  3 active torsions:
REMARK  status: ('A' for Active; 'I' for Inactive)
REMARK    1  A    between atoms: C_4  and  C_5
REMARK    2  A    between atoms: N_9  and  C_10
REMARK    3  A    between atoms: C_10  and  C_11
REMARK                            x       y       z     vdW  Elec       q    Type
REMARK                         _______ _______ _______ _____ _____    ______ ____
ROOT
ATOM      1  C   UNL     1       6.920   4.715  16.292  0.00  0.00    +0.000 A 
ATOM      2  N   UNL     1       7.970   4.429  17.045  0.00  0.00    +0.000 NA
ATOM      3  N   UNL     1       7.612   4.663  18.345  0.00  0.00    +0.000 NA
ATOM      4  N   UNL     1       6.357   5.067  18.421  0.00  0.00    +0.000 NA
ATOM      5  N   UNL     1       5.919   5.121  17.145  0.00  0.00    +0.000 N 
ENDROOT
BRANCH   1   9
ATOM      6  C   UNL     1       6.860   4.208  12.040  0.00  0.00    +0.000 A 
ATOM      7  C   UNL     1       7.721   5.124  12.635  0.00  0.00    +0.000 A 
ATOM      8  C   UNL     1       7.716   5.288  14.022  0.00  0.00    +0.000 A 
ATOM      9  C   UNL     1       6.855   4.536  14.838  0.00  0.00    +0.000 A 
ATOM     10  C   UNL     1       5.957   3.657  14.216  0.00  0.00    +0.000 A 
ATOM     11  C   UNL     1       5.972   3.481  12.829  0.00  0.00    +0.000 A 
ENDBRANCH   1   9
BRANCH   5  12
ATOM     12  C   UNL     1       4.523   5.428  16.900  0.00  0.00    +0.000 C 
BRANCH  12  13
ATOM     13  C   UNL     1       3.558   4.409  17.455  0.00  0.00    +0.000 A 
ATOM     14  C   UNL     1       3.788   3.029  17.448  0.00  0.00    +0.000 A 
ATOM     15  C   UNL     1       2.796   2.152  17.880  0.00  0.00    +0.000 A 
ATOM     16  C   UNL     1       1.593   2.681  18.308  0.00  0.00    +0.000 A 
ATOM     17  N   UNL     1       1.332   4.004  18.346  0.00  0.00    +0.000 NA
ATOM     18  C   UNL     1       2.311   4.832  17.913  0.00  0.00    +0.000 A 
ENDBRANCH  12  13
ENDBRANCH   5  12
TORSDOF 3
ENDMDL
MODEL 3
REMARK VINA RESULT:      -7.7      2.169      6.237
REMARK  Name = 
REMARK  3 active torsions:
REMARK  status: ('A' for Active; 'I' for Inactive)
REMARK    1  A    between atoms: C_4  and  C_5
REMARK    2  A    between atoms: N_9  and  C_10
REMARK    3  A    between atoms: C_10  and  C_11
REMARK                            x       y       z     vdW  Elec       q    Type
REMARK                         _______ _______ _______ _____ _____    ______ ____
ROOT
ATOM      1  C   UNL     1       2.750   6.085  18.472  0.00  0.00    +0.000 A 
ATOM      2  N   UNL     1       2.147   7.238  18.225  0.00  0.00    +0.000 NA
ATOM      3  N   UNL     1       3.077   8.067  17.658  0.00  0.00    +0.000 NA
ATOM      4  N   UNL     1       4.237   7.452  17.528  0.00  0.00    +0.000 NA
ATOM      5  N   UNL     1       4.052   6.220  18.048  0.00  0.00    +0.000 N 
ENDROOT
BRANCH   1   9
ATOM      6  C   UNL     1       0.889   2.530  19.967  0.00  0.00    +0.000 A 
ATOM      7  C   UNL     1       1.095   2.705  18.602  0.00  0.00    +0.000 A 
ATOM      8  C   UNL     1       1.689   3.878  18.131  0.00  0.00    +0.000 A 
ATOM      9  C   UNL     1       2.092   4.893  19.015  0.00  0.00    +0.000 A 
ATOM     10  C   UNL     1       1.827   4.722  20.380  0.00  0.00    +0.000 A 
ATOM     11  C   UNL     1       1.247   3.542  20.855  0.00  0.00    +0.000 A 
ENDBRANCH   1   9
BRANCH   5  12
ATOM     12  C   UNL     1       5.128   5.252  17.948  0.00  0.00    +0.000 C 
BRANCH  12  13
ATOM     13  C   UNL     1       5.687   5.089  16.556  0.00  0.00    +0.000 A 
ATOM     14  C   UNL     1       5.030   4.411  15.523  0.00  0.00    +0.000 A 
ATOM     15  C   UNL     1       5.667   4.212  14.301  0.00  0.00    +0.000 A 
ATOM     16  C   UNL     1       6.952   4.696  14.144  0.00  0.00    +0.000 A 
ATOM     17  N   UNL     1       7.619   5.367  15.106  0.00  0.00    +0.000 NA
ATOM     18  C   UNL     1       6.978   5.539  16.285  0.00  0.00    +0.000 A 
ENDBRANCH  12  13
ENDBRANCH   5  12
TORSDOF 3
ENDMDL
MODEL 4
REMARK VINA RESULT:      -7.7      2.310      6.339
REMARK  Name = 
REMARK  3 active torsions:
REMARK  status: ('A' for Active; 'I' for Inactive)
REMARK    1  A    between atoms: C_4  and  C_5
REMARK    2  A    between atoms: N_9  and  C_10
REMARK    3  A    between atoms: C_10  and  C_11
REMARK                            x       y       z     vdW  Elec       q    Type
REMARK                         _______ _______ _______ _____ _____    ______ ____
ROOT
ATOM      1  C   UNL     1       2.829   6.038  18.671  0.00  0.00    +0.000 A 
ATOM      2  N   UNL     1       2.170   7.151  18.388  0.00  0.00    +0.000 NA
ATOM      3  N   UNL     1       3.019   7.952  17.672  0.00  0.00    +0.000 NA
ATOM      4  N   UNL     1       4.182   7.356  17.486  0.00  0.00    +0.000 NA
ATOM      5  N   UNL     1       4.083   6.168  18.119  0.00  0.00    +0.000 N 
ENDROOT
BRANCH   1   9
ATOM      6  C   UNL     1       1.153   2.731  20.813  0.00  0.00    +0.000 A 
ATOM      7  C   UNL     1       1.979   3.649  21.455  0.00  0.00    +0.000 A 
ATOM      8  C   UNL     1       2.529   4.712  20.737  0.00  0.00    +0.000 A 
ATOM      9  C   UNL     1       2.261   4.880  19.368  0.00  0.00    +0.000 A 
ATOM     10  C   UNL     1       1.472   3.915  18.728  0.00  0.00    +0.000 A 
ATOM     11  C   UNL     1       0.907   2.858  19.448  0.00  0.00    +0.000 A 
ENDBRANCH   1   9
BRANCH   5  12
ATOM     12  C   UNL     1       5.176   5.221  18.000  0.00  0.00    +0.000 C 
BRANCH  12  13
ATOM     13  C   UNL     1       5.714   5.070  16.599  0.00  0.00    +0.000 A 
ATOM     14  C   UNL     1       5.055   4.374  15.578  0.00  0.00    +0.000 A 
ATOM     15  C   UNL     1       5.674   4.189  14.345  0.00  0.00    +0.000 A 
ATOM     16  C   UNL     1       6.944   4.704  14.164  0.00  0.00    +0.000 A 
ATOM     17  N   UNL     1       7.611   5.393  15.113  0.00  0.00    +0.000 NA
ATOM     18  C   UNL     1       6.988   5.551  16.303  0.00  0.00    +0.000 A 
ENDBRANCH  12  13
ENDBRANCH   5  12
TORSDOF 3
ENDMDL
MODEL 5
REMARK VINA RESULT:      -7.5      2.052      6.129
REMARK  Name = 
REMARK  3 active torsions:
REMARK  status: ('A' for Active; 'I' for Inactive)
REMARK    1  A    between atoms: C_4  and  C_5
REMARK    2  A    between atoms: N_9  and  C_10
REMARK    3  A    between atoms: C_10  and  C_11
REMARK                            x       y       z     vdW  Elec       q    Type
REMARK                         _______ _______ _______ _____ _____    ______ ____
ROOT
ATOM      1  C   UNL     1       2.553   4.133  18.774  0.00  0.00    +0.000 A 
ATOM      2  N   UNL     1       1.614   3.200  18.795  0.00  0.00    +0.000 NA
ATOM      3  N   UNL     1       2.239   1.993  18.631  0.00  0.00    +0.000 NA
ATOM      4  N   UNL     1       3.546   2.152  18.528  0.00  0.00    +0.000 NA
ATOM      5  N   UNL     1       3.753   3.484  18.598  0.00  0.00    +0.000 N 
ENDROOT
BRANCH   1   9
ATOM      6  C   UNL     1       1.917   8.302  19.519  0.00  0.00    +0.000 A 
ATOM      7  C   UNL     1       1.713   7.361  20.523  0.00  0.00    +0.000 A 
ATOM      8  C   UNL     1       1.910   6.004  20.258  0.00  0.00    +0.000 A 
ATOM      9  C   UNL     1       2.318   5.565  18.987  0.00  0.00    +0.000 A 
ATOM     10  C   UNL     1       2.466   6.522  17.975  0.00  0.00    +0.000 A 
ATOM     11  C   UNL     1       2.285   7.882  18.243  0.00  0.00    +0.000 A 
ENDBRANCH   1   9
BRANCH   5  12
ATOM     12  C   UNL     1       5.117   3.977  18.629  0.00  0.00    +0.000 C 
BRANCH  12  13
ATOM     13  C   UNL     1       5.673   4.344  17.275  0.00  0.00    +0.000 A 
ATOM     14  C   UNL     1       4.918   4.355  16.096  0.00  0.00    +0.000 A 
ATOM     15  C   UNL     1       5.536   4.598  14.872  0.00  0.00    +0.000 A 
ATOM     16  C   UNL     1       6.900   4.821  14.858  0.00  0.00    +0.000 A 
ATOM     17  N   UNL     1       7.665   4.833  15.969  0.00  0.00    +0.000 NA
ATOM     18  C   UNL     1       7.039   4.587  17.143  0.00  0.00    +0.000 A 
ENDBRANCH  12  13
ENDBRANCH   5  12
TORSDOF 3
ENDMDL
MODEL 6
REMARK VINA RESULT:      -7.4      2.644      6.165
REMARK  Name = 
REMARK  3 active torsions:
REMARK  status: ('A' for Active; 'I' for Inactive)
REMARK    1  A    between atoms: C_4  and  C_5
REMARK    2  A    between atoms: N_9  and  C_10
REMARK    3  A    between atoms: C_10  and  C_11
REMARK                            x       y       z     vdW  Elec       q    Type
REMARK                         _______ _______ _______ _____ _____    ______ ____
ROOT
ATOM      1  C   UNL     1       2.872   5.197  19.496  0.00  0.00    +0.000 A 
ATOM      2  N   UNL     1       2.122   4.174  19.877  0.00  0.00    +0.000 NA
ATOM      3  N   UNL     1       2.941   3.080  19.955  0.00  0.00    +0.000 NA
ATOM      4  N   UNL     1       4.185   3.402  19.652  0.00  0.00    +0.000 NA
ATOM      5  N   UNL     1       4.152   4.716  19.347  0.00  0.00    +0.000 N 
ENDROOT
BRANCH   1   9
ATOM      6  C   UNL     1       1.449   9.202  18.971  0.00  0.00    +0.000 A 
ATOM      7  C   UNL     1       2.016   8.503  17.909  0.00  0.00    +0.000 A 
ATOM      8  C   UNL     1       2.489   7.204  18.103  0.00  0.00    +0.000 A 
ATOM      9  C   UNL     1       2.400   6.578  19.358  0.00  0.00    +0.000 A 
ATOM     10  C   UNL     1       1.876   7.317  20.427  0.00  0.00    +0.000 A 
ATOM     11  C   UNL     1       1.388   8.613  20.232  0.00  0.00    +0.000 A 
ENDBRANCH   1   9
BRANCH   5  12
ATOM     12  C   UNL     1       5.402   5.400  19.076  0.00  0.00    +0.000 C 
BRANCH  12  13
ATOM     13  C   UNL     1       5.911   5.226  17.667  0.00  0.00    +0.000 A 
ATOM     14  C   UNL     1       5.114   5.364  16.524  0.00  0.00    +0.000 A 
ATOM     15  C   UNL     1       5.638   5.077  15.266  0.00  0.00    +0.000 A 
ATOM     16  C   UNL     1       6.952   4.654  15.183  0.00  0.00    +0.000 A 
ATOM     17  N   UNL     1       7.761   4.520  16.255  0.00  0.00    +0.000 NA
ATOM     18  C   UNL     1       7.223   4.799  17.464  0.00  0.00    +0.000 A 
ENDBRANCH  12  13
ENDBRANCH   5  12
TORSDOF 3
ENDMDL
MODEL 7
REMARK VINA RESULT:      -7.4      0.945      1.660
REMARK  Name = 
REMARK  3 active torsions:
REMARK  status: ('A' for Active; 'I' for Inactive)
REMARK    1  A    between atoms: C_4  and  C_5
REMARK    2  A    between atoms: N_9  and  C_10
REMARK    3  A    between atoms: C_10  and  C_11
REMARK                            x       y       z     vdW  Elec       q    Type
REMARK                         _______ _______ _______ _____ _____    ______ ____
ROOT
ATOM      1  C   UNL     1       6.987   4.738  16.234  0.00  0.00    +0.000 A 
ATOM      2  N   UNL     1       7.983   4.343  17.011  0.00  0.00    +0.000 NA
ATOM      3  N   UNL     1       7.624   4.622  18.302  0.00  0.00    +0.000 NA
ATOM      4  N   UNL     1       6.420   5.162  18.348  0.00  0.00    +0.000 NA
ATOM      5  N   UNL     1       6.019   5.256  17.063  0.00  0.00    +0.000 N 
ENDROOT
BRANCH   1   9
ATOM      6  C   UNL     1       6.704   4.192  11.996  0.00  0.00    +0.000 A 
ATOM      7  C   UNL     1       5.928   3.430  12.864  0.00  0.00    +0.000 A 
ATOM      8  C   UNL     1       6.045   3.611  14.244  0.00  0.00    +0.000 A 
ATOM      9  C   UNL     1       6.935   4.558  14.780  0.00  0.00    +0.000 A 
ATOM     10  C   UNL     1       7.746   5.276  13.891  0.00  0.00    +0.000 A 
ATOM     11  C   UNL     1       7.619   5.108  12.509  0.00  0.00    +0.000 A 
ENDBRANCH   1   9
BRANCH   5  12
ATOM     12  C   UNL     1       4.670   5.713  16.785  0.00  0.00    +0.000 C 
BRANCH  12  13
ATOM     13  C   UNL     1       3.594   4.940  17.507  0.00  0.00    +0.000 A 
ATOM     14  C   UNL     1       3.128   3.683  17.103  0.00  0.00    +0.000 A 
ATOM     15  C   UNL     1       2.055   3.090  17.763  0.00  0.00    +0.000 A 
ATOM     16  C   UNL     1       1.470   3.773  18.812  0.00  0.00    +0.000 A 
ATOM     17  N   UNL     1       1.893   4.979  19.244  0.00  0.00    +0.000 NA
ATOM     18  C   UNL     1       2.933   5.535  18.580  0.00  0.00    +0.000 A 
ENDBRANCH  12  13
ENDBRANCH   5  12
TORSDOF 3
ENDMDL
MODEL 8
REMARK VINA RESULT:      -7.4      3.907      5.675
REMARK  Name = 
REMARK  3 active torsions:
REMARK  status: ('A' for Active; 'I' for Inactive)
REMARK    1  A    between atoms: C_4  and  C_5
REMARK    2  A    between atoms: N_9  and  C_10
REMARK    3  A    between atoms: C_10  and  C_11
REMARK                            x       y       z     vdW  Elec       q    Type
REMARK                         _______ _______ _______ _____ _____    ______ ____
ROOT
ATOM      1  C   UNL     1       3.601   6.483  17.731  0.00  0.00    +0.000 A 
ATOM      2  N   UNL     1       4.764   6.814  17.194  0.00  0.00    +0.000 NA
ATOM      3  N   UNL     1       5.266   5.692  16.591  0.00  0.00    +0.000 NA
ATOM      4  N   UNL     1       4.433   4.676  16.723  0.00  0.00    +0.000 NA
ATOM      5  N   UNL     1       3.398   5.152  17.448  0.00  0.00    +0.000 N 
ENDROOT
BRANCH   1   9
ATOM      6  C   UNL     1       1.029   9.182  19.837  0.00  0.00    +0.000 A 
ATOM      7  C   UNL     1       1.541   8.052  20.466  0.00  0.00    +0.000 A 
ATOM      8  C   UNL     1       2.366   7.174  19.759  0.00  0.00    +0.000 A 
ATOM      9  C   UNL     1       2.696   7.413  18.414  0.00  0.00    +0.000 A 
ATOM     10  C   UNL     1       2.127   8.527  17.783  0.00  0.00    +0.000 A 
ATOM     11  C   UNL     1       1.313   9.415  18.493  0.00  0.00    +0.000 A 
ENDBRANCH   1   9
BRANCH   5  12
ATOM     12  C   UNL     1       2.249   4.294  17.669  0.00  0.00    +0.000 C 
BRANCH  12  13
ATOM     13  C   UNL     1       2.208   3.654  19.034  0.00  0.00    +0.000 A 
ATOM     14  C   UNL     1       1.103   3.710  19.892  0.00  0.00    +0.000 A 
ATOM     15  C   UNL     1       1.190   3.186  21.180  0.00  0.00    +0.000 A 
ATOM     16  C   UNL     1       2.386   2.621  21.579  0.00  0.00    +0.000 A 
ATOM     17  N   UNL     1       3.471   2.533  20.783  0.00  0.00    +0.000 NA
ATOM     18  C   UNL     1       3.361   3.055  19.540  0.00  0.00    +0.000 A 
ENDBRANCH  12  13
ENDBRANCH   5  12
TORSDOF 3
ENDMDL
MODEL 9
REMARK VINA RESULT:      -7.4      2.603      6.186
REMARK  Name = 
REMARK  3 active torsions:
REMARK  status: ('A' for Active; 'I' for Inactive)
REMARK    1  A    between atoms: C_4  and  C_5
REMARK    2  A    between atoms: N_9  and  C_10
REMARK    3  A    between atoms: C_10  and  C_11
REMARK                            x       y       z     vdW  Elec       q    Type
REMARK                         _______ _______ _______ _____ _____    ______ ____
ROOT
ATOM      1  C   UNL     1       2.857   5.062  19.498  0.00  0.00    +0.000 A 
ATOM      2  N   UNL     1       2.098   4.048  19.884  0.00  0.00    +0.000 NA
ATOM      3  N   UNL     1       2.912   2.954  19.995  0.00  0.00    +0.000 NA
ATOM      4  N   UNL     1       4.162   3.266  19.707  0.00  0.00    +0.000 NA
ATOM      5  N   UNL     1       4.138   4.575  19.378  0.00  0.00    +0.000 N 
ENDROOT
BRANCH   1   9
ATOM      6  C   UNL     1       1.540   9.119  19.121  0.00  0.00    +0.000 A 
ATOM      7  C   UNL     1       1.427   8.445  20.333  0.00  0.00    +0.000 A 
ATOM      8  C   UNL     1       1.847   7.117  20.433  0.00  0.00    +0.000 A 
ATOM      9  C   UNL     1       2.391   6.442  19.327  0.00  0.00    +0.000 A 
ATOM     10  C   UNL     1       2.446   7.121  18.102  0.00  0.00    +0.000 A 
ATOM     11  C   UNL     1       2.041   8.455  18.004  0.00  0.00    +0.000 A 
ENDBRANCH   1   9
BRANCH   5  12
ATOM     12  C   UNL     1       5.395   5.252  19.117  0.00  0.00    +0.000 C 
BRANCH  12  13
ATOM     13  C   UNL     1       5.895   5.103  17.701  0.00  0.00    +0.000 A 
ATOM     14  C   UNL     1       5.070   5.148  16.571  0.00  0.00    +0.000 A 
ATOM     15  C   UNL     1       5.599   4.890  15.308  0.00  0.00    +0.000 A 
ATOM     16  C   UNL     1       6.944   4.590  15.209  0.00  0.00    +0.000 A 
ATOM     17  N   UNL     1       7.779   4.550  16.267  0.00  0.00    +0.000 NA
ATOM     18  C   UNL     1       7.237   4.797  17.482  0.00  0.00    +0.000 A 
ENDBRANCH  12  13
ENDBRANCH   5  12
TORSDOF 3
ENDMDL
