MODEL 1
REMARK VINA RESULT:      -7.5      0.000      0.000
REMARK  Name = 
REMARK  8 active torsions:
REMARK  status: ('A' for Active; 'I' for Inactive)
REMARK    1  A    between atoms: N_13  and  C_14
REMARK    2  A    between atoms: C_14  and  C_15
REMARK    3  A    between atoms: C_15  and  C_16
REMARK    4  A    between atoms: C_15  and  O_18
REMARK    5  A    between atoms: O_18  and  C_19
REMARK    6  A    between atoms: C_19  and  P_20
REMARK    7  A    between atoms: P_20  and  O_22
REMARK    8  A    between atoms: P_20  and  O_23
REMARK                            x       y       z     vdW  Elec       q    Type
REMARK                         _______ _______ _______ _____ _____    ______ ____
ROOT
ATOM      1  N   UNL     1       8.061   7.847  17.545  0.00  0.00    +0.000 N 
ATOM      2  C   UNL     1       7.206   6.810  17.217  0.00  0.00    +0.000 A 
ATOM      3  N   UNL     1       7.373   6.284  15.992  0.00  0.00    +0.000 NA
ATOM      4  C   UNL     1       6.616   5.223  15.583  0.00  0.00    +0.000 A 
ATOM      5  N   UNL     1       6.735   4.791  14.285  0.00  0.00    +0.000 N 
ATOM      6  C   UNL     1       7.893   5.101  13.473  0.00  0.00    +0.000 C 
ATOM      7  C   UNL     1       7.406   4.769  12.069  0.00  0.00    +0.000 C 
ATOM      8  C   UNL     1       6.462   3.589  12.274  0.00  0.00    +0.000 C 
ATOM      9  C   UNL     1       5.922   3.740  13.702  0.00  0.00    +0.000 C 
ATOM     10  C   UNL     1       5.730   4.678  16.541  0.00  0.00    +0.000 A 
ATOM     11  N   UNL     1       4.884   3.583  16.526  0.00  0.00    +0.000 NA
ATOM     12  C   UNL     1       4.283   3.594  17.697  0.00  0.00    +0.000 A 
ATOM     13  N   UNL     1       4.639   4.685  18.442  0.00  0.00    +0.000 N 
ATOM     14  C   UNL     1       5.642   5.334  17.764  0.00  0.00    +0.000 A 
ATOM     15  N   UNL     1       6.345   6.403  18.163  0.00  0.00    +0.000 NA
ATOM     16  H   UNL     1       8.877   7.789  16.948  0.00  0.00    +0.000 HD
ATOM     17  H   UNL     1       8.223   7.859  18.542  0.00  0.00    +0.000 HD
ENDROOT
BRANCH  13  18
ATOM     18  C   UNL     1       3.899   5.203  19.577  0.00  0.00    +0.000 C 
BRANCH  18  19
ATOM     19  C   UNL     1       2.490   5.752  19.301  0.00  0.00    +0.000 C 
BRANCH  19  20
ATOM     20  C   UNL     1       2.545   7.239  18.941  0.00  0.00    +0.000 C 
ATOM     21  F   UNL     1       1.611   7.902  19.683  0.00  0.00    +0.000 F 
ENDBRANCH  19  20
BRANCH  19  22
ATOM     22  O   UNL     1       1.631   5.451  20.426  0.00  0.00    +0.000 OA
BRANCH  22  23
ATOM     23  C   UNL     1       2.230   4.517  21.352  0.00  0.00    +0.000 C 
BRANCH  23  24
ATOM     24  P   UNL     1       1.479   2.896  21.137  0.00  0.00    +0.000 P 
ATOM     25  O   UNL     1       1.197   2.117  22.378  0.00  0.00    +0.000 OA
BRANCH  24  26
ATOM     26  O   UNL     1       0.187   3.143  20.210  0.00  0.00    +0.000 OA
ATOM     27  H   UNL     1      -0.067   4.084  20.173  0.00  0.00    +0.000 HD
ENDBRANCH  24  26
BRANCH  24  28
ATOM     28  O   UNL     1       2.412   2.103  20.101  0.00  0.00    +0.000 OA
ATOM     29  H   UNL     1       1.868   1.663  19.418  0.00  0.00    +0.000 HD
ENDBRANCH  24  28
ENDBRANCH  23  24
ENDBRANCH  22  23
ENDBRANCH  19  22
ENDBRANCH  18  19
ENDBRANCH  13  18
TORSDOF 8
ENDMDL
MODEL 2
REMARK VINA RESULT:      -7.4      0.501      1.072
REMARK  Name = 
REMARK  8 active torsions:
REMARK  status: ('A' for Active; 'I' for Inactive)
REMARK    1  A    between atoms: N_13  and  C_14
REMARK    2  A    between atoms: C_14  and  C_15
REMARK    3  A    between atoms: C_15  and  C_16
REMARK    4  A    between atoms: C_15  and  O_18
REMARK    5  A    between atoms: O_18  and  C_19
REMARK    6  A    between atoms: C_19  and  P_20
REMARK    7  A    between atoms: P_20  and  O_22
REMARK    8  A    between atoms: P_20  and  O_23
REMARK                            x       y       z     vdW  Elec       q    Type
REMARK                         _______ _______ _______ _____ _____    ______ ____
ROOT
ATOM      1  N   UNL     1       7.940   7.970  17.390  0.00  0.00    +0.000 N 
ATOM      2  C   UNL     1       7.106   6.903  17.102  0.00  0.00    +0.000 A 
ATOM      3  N   UNL     1       7.283   6.336  15.897  0.00  0.00    +0.000 NA
ATOM      4  C   UNL     1       6.548   5.244  15.530  0.00  0.00    +0.000 A 
ATOM      5  N   UNL     1       6.674   4.766  14.249  0.00  0.00    +0.000 N 
ATOM      6  C   UNL     1       7.824   5.070  13.423  0.00  0.00    +0.000 C 
ATOM      7  C   UNL     1       7.342   4.676  12.034  0.00  0.00    +0.000 C 
ATOM      8  C   UNL     1       6.423   3.485  12.284  0.00  0.00    +0.000 C 
ATOM      9  C   UNL     1       5.882   3.677  13.706  0.00  0.00    +0.000 C 
ATOM     10  C   UNL     1       5.674   4.717  16.510  0.00  0.00    +0.000 A 
ATOM     11  N   UNL     1       4.852   3.605  16.537  0.00  0.00    +0.000 NA
ATOM     12  C   UNL     1       4.252   3.648  17.708  0.00  0.00    +0.000 A 
ATOM     13  N   UNL     1       4.586   4.773  18.411  0.00  0.00    +0.000 N 
ATOM     14  C   UNL     1       5.574   5.416  17.707  0.00  0.00    +0.000 A 
ATOM     15  N   UNL     1       6.256   6.514  18.065  0.00  0.00    +0.000 NA
ATOM     16  H   UNL     1       8.757   7.905  16.794  0.00  0.00    +0.000 HD
ATOM     17  H   UNL     1       8.103   8.022  18.385  0.00  0.00    +0.000 HD
ENDROOT
BRANCH  13  18
ATOM     18  C   UNL     1       3.836   5.317  19.527  0.00  0.00    +0.000 C 
BRANCH  18  19
ATOM     19  C   UNL     1       2.422   5.839  19.231  0.00  0.00    +0.000 C 
BRANCH  19  20
ATOM     20  C   UNL     1       2.358   7.361  19.387  0.00  0.00    +0.000 C 
ATOM     21  F   UNL     1       1.752   7.652  20.575  0.00  0.00    +0.000 F 
ENDBRANCH  19  20
BRANCH  19  22
ATOM     22  O   UNL     1       1.467   5.123  20.051  0.00  0.00    +0.000 OA
BRANCH  22  23
ATOM     23  C   UNL     1       2.062   4.567  21.244  0.00  0.00    +0.000 C 
BRANCH  23  24
ATOM     24  P   UNL     1       1.993   2.771  21.166  0.00  0.00    +0.000 P 
ATOM     25  O   UNL     1       1.484   2.172  19.897  0.00  0.00    +0.000 OA
BRANCH  24  26
ATOM     26  O   UNL     1       3.463   2.269  21.583  0.00  0.00    +0.000 OA
ATOM     27  H   UNL     1       4.134   2.970  21.491  0.00  0.00    +0.000 HD
ENDBRANCH  24  26
BRANCH  24  28
ATOM     28  O   UNL     1       1.164   2.297  22.455  0.00  0.00    +0.000 OA
ATOM     29  H   UNL     1       0.620   1.514  22.243  0.00  0.00    +0.000 HD
ENDBRANCH  24  28
ENDBRANCH  23  24
ENDBRANCH  22  23
ENDBRANCH  19  22
ENDBRANCH  18  19
ENDBRANCH  13  18
TORSDOF 8
ENDMDL
MODEL 3
REMARK VINA RESULT:      -7.1      4.041      7.317
REMARK  Name = 
REMARK  8 active torsions:
REMARK  status: ('A' for Active; 'I' for Inactive)
REMARK    1  A    between atoms: N_13  and  C_14
REMARK    2  A    between atoms: C_14  and  C_15
REMARK    3  A    between atoms: C_15  and  C_16
REMARK    4  A    between atoms: C_15  and  O_18
REMARK    5  A    between atoms: O_18  and  C_19
REMARK    6  A    between atoms: C_19  and  P_20
REMARK    7  A    between atoms: P_20  and  O_22
REMARK    8  A    between atoms: P_20  and  O_23
REMARK                            x       y       z     vdW  Elec       q    Type
REMARK                         _______ _______ _______ _____ _____    ______ ____
ROOT
ATOM      1  N   UNL     1       2.176   3.981  21.444  0.00  0.00    +0.000 N 
ATOM      2  C   UNL     1       2.341   4.993  20.514  0.00  0.00    +0.000 A 
ATOM      3  N   UNL     1       1.751   6.161  20.816  0.00  0.00    +0.000 NA
ATOM      4  C   UNL     1       1.891   7.243  19.994  0.00  0.00    +0.000 A 
ATOM      5  N   UNL     1       1.178   8.382  20.277  0.00  0.00    +0.000 N 
ATOM      6  C   UNL     1       0.641   8.647  21.594  0.00  0.00    +0.000 C 
ATOM      7  C   UNL     1      -0.356   9.766  21.322  0.00  0.00    +0.000 C 
ATOM      8  C   UNL     1       0.283  10.562  20.189  0.00  0.00    +0.000 C 
ATOM      9  C   UNL     1       1.165   9.562  19.431  0.00  0.00    +0.000 C 
ATOM     10  C   UNL     1       2.745   7.076  18.878  0.00  0.00    +0.000 A 
ATOM     11  N   UNL     1       3.187   7.942  17.893  0.00  0.00    +0.000 NA
ATOM     12  C   UNL     1       3.940   7.208  17.101  0.00  0.00    +0.000 A 
ATOM     13  N   UNL     1       3.947   5.893  17.479  0.00  0.00    +0.000 N 
ATOM     14  C   UNL     1       3.274   5.807  18.673  0.00  0.00    +0.000 A 
ATOM     15  N   UNL     1       3.109   4.725  19.447  0.00  0.00    +0.000 NA
ATOM     16  H   UNL     1       1.943   4.402  22.335  0.00  0.00    +0.000 HD
ATOM     17  H   UNL     1       2.974   3.361  21.424  0.00  0.00    +0.000 HD
ENDROOT
BRANCH  13  18
ATOM     18  C   UNL     1       4.338   4.781  16.634  0.00  0.00    +0.000 C 
BRANCH  18  19
ATOM     19  C   UNL     1       5.838   4.618  16.343  0.00  0.00    +0.000 C 
BRANCH  19  20
ATOM     20  C   UNL     1       6.060   3.922  14.998  0.00  0.00    +0.000 C 
ATOM     21  F   UNL     1       5.151   4.404  14.102  0.00  0.00    +0.000 F 
ENDBRANCH  19  20
BRANCH  19  22
ATOM     22  O   UNL     1       6.472   3.952  17.461  0.00  0.00    +0.000 OA
BRANCH  22  23
ATOM     23  C   UNL     1       7.802   4.449  17.725  0.00  0.00    +0.000 C 
BRANCH  23  24
ATOM     24  P   UNL     1       7.732   5.688  19.028  0.00  0.00    +0.000 P 
ATOM     25  O   UNL     1       7.945   7.107  18.619  0.00  0.00    +0.000 OA
BRANCH  24  26
ATOM     26  O   UNL     1       6.339   5.428  19.789  0.00  0.00    +0.000 OA
ATOM     27  H   UNL     1       6.117   6.145  20.411  0.00  0.00    +0.000 HD
ENDBRANCH  24  26
BRANCH  24  28
ATOM     28  O   UNL     1       8.759   5.204  20.162  0.00  0.00    +0.000 OA
ATOM     29  H   UNL     1       9.679   5.260  19.836  0.00  0.00    +0.000 HD
ENDBRANCH  24  28
ENDBRANCH  23  24
ENDBRANCH  22  23
ENDBRANCH  19  22
ENDBRANCH  18  19
ENDBRANCH  13  18
TORSDOF 8
ENDMDL
MODEL 4
REMARK VINA RESULT:      -6.7      4.543      6.270
REMARK  Name = 
REMARK  8 active torsions:
REMARK  status: ('A' for Active; 'I' for Inactive)
REMARK    1  A    between atoms: N_13  and  C_14
REMARK    2  A    between atoms: C_14  and  C_15
REMARK    3  A    between atoms: C_15  and  C_16
REMARK    4  A    between atoms: C_15  and  O_18
REMARK    5  A    between atoms: O_18  and  C_19
REMARK    6  A    between atoms: C_19  and  P_20
REMARK    7  A    between atoms: P_20  and  O_22
REMARK    8  A    between atoms: P_20  and  O_23
REMARK                            x       y       z     vdW  Elec       q    Type
REMARK                         _______ _______ _______ _____ _____    ______ ____
ROOT
ATOM      1  N   UNL     1       2.314   4.105  20.993  0.00  0.00    +0.000 N 
ATOM      2  C   UNL     1       2.578   5.108  20.076  0.00  0.00    +0.000 A 
ATOM      3  N   UNL     1       3.407   4.775  19.073  0.00  0.00    +0.000 NA
ATOM      4  C   UNL     1       3.696   5.673  18.085  0.00  0.00    +0.000 A 
ATOM      5  N   UNL     1       4.637   5.335  17.143  0.00  0.00    +0.000 N 
ATOM      6  C   UNL     1       5.012   3.961  16.887  0.00  0.00    +0.000 C 
ATOM      7  C   UNL     1       6.304   4.117  16.096  0.00  0.00    +0.000 C 
ATOM      8  C   UNL     1       6.091   5.392  15.287  0.00  0.00    +0.000 C 
ATOM      9  C   UNL     1       5.102   6.234  16.102  0.00  0.00    +0.000 C 
ATOM     10  C   UNL     1       3.015   6.911  18.143  0.00  0.00    +0.000 A 
ATOM     11  N   UNL     1       2.984   8.010  17.303  0.00  0.00    +0.000 NA
ATOM     12  C   UNL     1       2.195   8.879  17.898  0.00  0.00    +0.000 A 
ATOM     13  N   UNL     1       1.773   8.430  19.120  0.00  0.00    +0.000 N 
ATOM     14  C   UNL     1       2.201   7.132  19.249  0.00  0.00    +0.000 A 
ATOM     15  N   UNL     1       1.943   6.277  20.249  0.00  0.00    +0.000 NA
ATOM     16  H   UNL     1       2.509   3.212  20.554  0.00  0.00    +0.000 HD
ATOM     17  H   UNL     1       1.392   4.229  21.385  0.00  0.00    +0.000 HD
ENDROOT
BRANCH  13  18
ATOM     18  C   UNL     1       1.233   9.263  20.177  0.00  0.00    +0.000 C 
BRANCH  18  19
ATOM     19  C   UNL     1       0.472  10.528  19.751  0.00  0.00    +0.000 C 
BRANCH  19  20
ATOM     20  C   UNL     1       0.621  11.634  20.799  0.00  0.00    +0.000 C 
ATOM     21  F   UNL     1      -0.600  12.207  21.005  0.00  0.00    +0.000 F 
ENDBRANCH  19  20
BRANCH  19  22
ATOM     22  O   UNL     1      -0.901  10.182  19.452  0.00  0.00    +0.000 OA
BRANCH  22  23
ATOM     23  C   UNL     1      -1.166  10.124  18.033  0.00  0.00    +0.000 C 
BRANCH  23  24
ATOM     24  P   UNL     1      -2.452  11.311  17.615  0.00  0.00    +0.000 P 
ATOM     25  O   UNL     1      -3.846  10.960  18.012  0.00  0.00    +0.000 OA
BRANCH  24  26
ATOM     26  O   UNL     1      -1.939  12.720  18.199  0.00  0.00    +0.000 OA
ATOM     27  H   UNL     1      -2.139  12.822  19.148  0.00  0.00    +0.000 HD
ENDBRANCH  24  26
BRANCH  24  28
ATOM     28  O   UNL     1      -2.305  11.596  16.043  0.00  0.00    +0.000 OA
ATOM     29  H   UNL     1      -3.122  12.000  15.690  0.00  0.00    +0.000 HD
ENDBRANCH  24  28
ENDBRANCH  23  24
ENDBRANCH  22  23
ENDBRANCH  19  22
ENDBRANCH  18  19
ENDBRANCH  13  18
TORSDOF 8
ENDMDL
MODEL 5
REMARK VINA RESULT:      -6.7      2.060      2.868
REMARK  Name = 
REMARK  8 active torsions:
REMARK  status: ('A' for Active; 'I' for Inactive)
REMARK    1  A    between atoms: N_13  and  C_14
REMARK    2  A    between atoms: C_14  and  C_15
REMARK    3  A    between atoms: C_15  and  C_16
REMARK    4  A    between atoms: C_15  and  O_18
REMARK    5  A    between atoms: O_18  and  C_19
REMARK    6  A    between atoms: C_19  and  P_20
REMARK    7  A    between atoms: P_20  and  O_22
REMARK    8  A    between atoms: P_20  and  O_23
REMARK                            x       y       z     vdW  Elec       q    Type
REMARK                         _______ _______ _______ _____ _____    ______ ____
ROOT
ATOM      1  N   UNL     1       7.835   7.802  17.469  0.00  0.00    +0.000 N 
ATOM      2  C   UNL     1       7.022   6.725  17.162  0.00  0.00    +0.000 A 
ATOM      3  N   UNL     1       7.195   6.195  15.940  0.00  0.00    +0.000 NA
ATOM      4  C   UNL     1       6.481   5.098  15.551  0.00  0.00    +0.000 A 
ATOM      5  N   UNL     1       6.601   4.659  14.255  0.00  0.00    +0.000 N 
ATOM      6  C   UNL     1       7.732   5.013  13.424  0.00  0.00    +0.000 C 
ATOM      7  C   UNL     1       7.240   4.647  12.030  0.00  0.00    +0.000 C 
ATOM      8  C   UNL     1       6.352   3.428  12.259  0.00  0.00    +0.000 C 
ATOM      9  C   UNL     1       5.826   3.568  13.693  0.00  0.00    +0.000 C 
ATOM     10  C   UNL     1       5.633   4.523  16.527  0.00  0.00    +0.000 A 
ATOM     11  N   UNL     1       4.836   3.392  16.533  0.00  0.00    +0.000 NA
ATOM     12  C   UNL     1       4.252   3.388  17.713  0.00  0.00    +0.000 A 
ATOM     13  N   UNL     1       4.570   4.500  18.442  0.00  0.00    +0.000 N 
ATOM     14  C   UNL     1       5.533   5.186  17.745  0.00  0.00    +0.000 A 
ATOM     15  N   UNL     1       6.194   6.289  18.125  0.00  0.00    +0.000 NA
ATOM     16  H   UNL     1       8.645   7.774  16.861  0.00  0.00    +0.000 HD
ATOM     17  H   UNL     1       8.010   7.829  18.464  0.00  0.00    +0.000 HD
ENDROOT
BRANCH  13  18
ATOM     18  C   UNL     1       3.823   4.995  19.583  0.00  0.00    +0.000 C 
BRANCH  18  19
ATOM     19  C   UNL     1       2.311   5.193  19.396  0.00  0.00    +0.000 C 
BRANCH  19  20
ATOM     20  C   UNL     1       1.982   5.544  17.943  0.00  0.00    +0.000 C 
ATOM     21  F   UNL     1       1.114   4.611  17.454  0.00  0.00    +0.000 F 
ENDBRANCH  19  20
BRANCH  19  22
ATOM     22  O   UNL     1       1.833   6.164  20.358  0.00  0.00    +0.000 OA
BRANCH  22  23
ATOM     23  C   UNL     1       2.117   7.525  19.965  0.00  0.00    +0.000 C 
BRANCH  23  24
ATOM     24  P   UNL     1       1.120   8.653  20.951  0.00  0.00    +0.000 P 
ATOM     25  O   UNL     1       0.759   9.957  20.322  0.00  0.00    +0.000 OA
BRANCH  24  26
ATOM     26  O   UNL     1      -0.145   7.788  21.440  0.00  0.00    +0.000 OA
ATOM     27  H   UNL     1       0.074   7.201  22.187  0.00  0.00    +0.000 HD
ENDBRANCH  24  26
BRANCH  24  28
ATOM     28  O   UNL     1       1.890   8.827  22.348  0.00  0.00    +0.000 OA
ATOM     29  H   UNL     1       1.742   9.722  22.711  0.00  0.00    +0.000 HD
ENDBRANCH  24  28
ENDBRANCH  23  24
ENDBRANCH  22  23
ENDBRANCH  19  22
ENDBRANCH  18  19
ENDBRANCH  13  18
TORSDOF 8
ENDMDL
MODEL 6
REMARK VINA RESULT:      -6.7      1.628      1.999
REMARK  Name = 
REMARK  8 active torsions:
REMARK  status: ('A' for Active; 'I' for Inactive)
REMARK    1  A    between atoms: N_13  and  C_14
REMARK    2  A    between atoms: C_14  and  C_15
REMARK    3  A    between atoms: C_15  and  C_16
REMARK    4  A    between atoms: C_15  and  O_18
REMARK    5  A    between atoms: O_18  and  C_19
REMARK    6  A    between atoms: C_19  and  P_20
REMARK    7  A    between atoms: P_20  and  O_22
REMARK    8  A    between atoms: P_20  and  O_23
REMARK                            x       y       z     vdW  Elec       q    Type
REMARK                         _______ _______ _______ _____ _____    ______ ____
ROOT
ATOM      1  N   UNL     1       7.212   7.941  17.343  0.00  0.00    +0.000 N 
ATOM      2  C   UNL     1       6.330   6.955  16.936  0.00  0.00    +0.000 A 
ATOM      3  N   UNL     1       6.681   6.283  15.827  0.00  0.00    +0.000 NA
ATOM      4  C   UNL     1       5.908   5.256  15.364  0.00  0.00    +0.000 A 
ATOM      5  N   UNL     1       6.237   4.672  14.165  0.00  0.00    +0.000 N 
ATOM      6  C   UNL     1       7.562   4.784  13.593  0.00  0.00    +0.000 C 
ATOM      7  C   UNL     1       7.334   4.343  12.153  0.00  0.00    +0.000 C 
ATOM      8  C   UNL     1       6.242   3.284  12.259  0.00  0.00    +0.000 C 
ATOM      9  C   UNL     1       5.446   3.640  13.520  0.00  0.00    +0.000 C 
ATOM     10  C   UNL     1       4.792   4.903  16.159  0.00  0.00    +0.000 A 
ATOM     11  N   UNL     1       3.850   3.894  16.064  0.00  0.00    +0.000 NA
ATOM     12  C   UNL     1       3.030   4.091  17.075  0.00  0.00    +0.000 A 
ATOM     13  N   UNL     1       3.349   5.221  17.776  0.00  0.00    +0.000 N 
ATOM     14  C   UNL     1       4.534   5.696  17.271  0.00  0.00    +0.000 A 
ATOM     15  N   UNL     1       5.257   6.736  17.711  0.00  0.00    +0.000 NA
ATOM     16  H   UNL     1       8.121   7.742  16.940  0.00  0.00    +0.000 HD
ATOM     17  H   UNL     1       7.171   8.048  18.346  0.00  0.00    +0.000 HD
ENDROOT
BRANCH  13  18
ATOM     18  C   UNL     1       2.457   5.927  18.677  0.00  0.00    +0.000 C 
BRANCH  18  19
ATOM     19  C   UNL     1       2.091   5.222  19.992  0.00  0.00    +0.000 C 
BRANCH  19  20
ATOM     20  C   UNL     1       1.471   6.208  20.986  0.00  0.00    +0.000 C 
ATOM     21  F   UNL     1       1.838   7.474  20.631  0.00  0.00    +0.000 F 
ENDBRANCH  19  20
BRANCH  19  22
ATOM     22  O   UNL     1       3.253   4.526  20.502  0.00  0.00    +0.000 OA
BRANCH  22  23
ATOM     23  C   UNL     1       3.013   3.117  20.713  0.00  0.00    +0.000 C 
BRANCH  23  24
ATOM     24  P   UNL     1       4.341   2.164  19.960  0.00  0.00    +0.000 P 
ATOM     25  O   UNL     1       3.950   1.182  18.908  0.00  0.00    +0.000 OA
BRANCH  24  26
ATOM     26  O   UNL     1       5.423   3.251  19.473  0.00  0.00    +0.000 OA
ATOM     27  H   UNL     1       5.666   3.875  20.181  0.00  0.00    +0.000 HD
ENDBRANCH  24  26
BRANCH  24  28
ATOM     28  O   UNL     1       5.152   1.493  21.170  0.00  0.00    +0.000 OA
ATOM     29  H   UNL     1       4.672   1.616  22.013  0.00  0.00    +0.000 HD
ENDBRANCH  24  28
ENDBRANCH  23  24
ENDBRANCH  22  23
ENDBRANCH  19  22
ENDBRANCH  18  19
ENDBRANCH  13  18
TORSDOF 8
ENDMDL
MODEL 7
REMARK VINA RESULT:      -6.7      5.452      8.330
REMARK  Name = 
REMARK  8 active torsions:
REMARK  status: ('A' for Active; 'I' for Inactive)
REMARK    1  A    between atoms: N_13  and  C_14
REMARK    2  A    between atoms: C_14  and  C_15
REMARK    3  A    between atoms: C_15  and  C_16
REMARK    4  A    between atoms: C_15  and  O_18
REMARK    5  A    between atoms: O_18  and  C_19
REMARK    6  A    between atoms: C_19  and  P_20
REMARK    7  A    between atoms: P_20  and  O_22
REMARK    8  A    between atoms: P_20  and  O_23
REMARK                            x       y       z     vdW  Elec       q    Type
REMARK                         _______ _______ _______ _____ _____    ______ ____
ROOT
ATOM      1  N   UNL     1       0.434   9.474  23.252  0.00  0.00    +0.000 N 
ATOM      2  C   UNL     1       0.463   9.380  21.871  0.00  0.00    +0.000 A 
ATOM      3  N   UNL     1      -0.446  10.124  21.219  0.00  0.00    +0.000 NA
ATOM      4  C   UNL     1      -0.473  10.146  19.854  0.00  0.00    +0.000 A 
ATOM      5  N   UNL     1      -1.489  10.824  19.226  0.00  0.00    +0.000 N 
ATOM      6  C   UNL     1      -2.261  11.848  19.897  0.00  0.00    +0.000 C 
ATOM      7  C   UNL     1      -3.463  12.008  18.976  0.00  0.00    +0.000 C 
ATOM      8  C   UNL     1      -2.896  11.763  17.582  0.00  0.00    +0.000 C 
ATOM      9  C   UNL     1      -1.686  10.843  17.788  0.00  0.00    +0.000 C 
ATOM     10  C   UNL     1       0.546   9.420  19.193  0.00  0.00    +0.000 A 
ATOM     11  N   UNL     1       0.887   9.275  17.860  0.00  0.00    +0.000 NA
ATOM     12  C   UNL     1       1.909   8.447  17.853  0.00  0.00    +0.000 A 
ATOM     13  N   UNL     1       2.201   7.987  19.108  0.00  0.00    +0.000 N 
ATOM     14  C   UNL     1       1.410   8.678  19.991  0.00  0.00    +0.000 A 
ATOM     15  N   UNL     1       1.420   8.611  21.330  0.00  0.00    +0.000 NA
ATOM     16  H   UNL     1      -0.026  10.341  23.503  0.00  0.00    +0.000 HD
ATOM     17  H   UNL     1       1.359   9.321  23.628  0.00  0.00    +0.000 HD
ENDROOT
BRANCH  13  18
ATOM     18  C   UNL     1       2.985   6.802  19.404  0.00  0.00    +0.000 C 
BRANCH  18  19
ATOM     19  C   UNL     1       3.406   5.927  18.214  0.00  0.00    +0.000 C 
BRANCH  19  20
ATOM     20  C   UNL     1       2.891   4.495  18.380  0.00  0.00    +0.000 C 
ATOM     21  F   UNL     1       2.242   4.130  17.236  0.00  0.00    +0.000 F 
ENDBRANCH  19  20
BRANCH  19  22
ATOM     22  O   UNL     1       4.840   6.019  18.038  0.00  0.00    +0.000 OA
BRANCH  22  23
ATOM     23  C   UNL     1       5.571   5.196  18.974  0.00  0.00    +0.000 C 
BRANCH  23  24
ATOM     24  P   UNL     1       7.328   5.566  18.850  0.00  0.00    +0.000 P 
ATOM     25  O   UNL     1       7.702   6.826  18.145  0.00  0.00    +0.000 OA
BRANCH  24  26
ATOM     26  O   UNL     1       7.892   5.464  20.354  0.00  0.00    +0.000 OA
ATOM     27  H   UNL     1       8.426   6.242  20.602  0.00  0.00    +0.000 HD
ENDBRANCH  24  26
BRANCH  24  28
ATOM     28  O   UNL     1       8.016   4.265  18.211  0.00  0.00    +0.000 OA
ATOM     29  H   UNL     1       8.990   4.347  18.235  0.00  0.00    +0.000 HD
ENDBRANCH  24  28
ENDBRANCH  23  24
ENDBRANCH  22  23
ENDBRANCH  19  22
ENDBRANCH  18  19
ENDBRANCH  13  18
TORSDOF 8
ENDMDL
MODEL 8
REMARK VINA RESULT:      -6.6      4.500      6.280
REMARK  Name = 
REMARK  8 active torsions:
REMARK  status: ('A' for Active; 'I' for Inactive)
REMARK    1  A    between atoms: N_13  and  C_14
REMARK    2  A    between atoms: C_14  and  C_15
REMARK    3  A    between atoms: C_15  and  C_16
REMARK    4  A    between atoms: C_15  and  O_18
REMARK    5  A    between atoms: O_18  and  C_19
REMARK    6  A    between atoms: C_19  and  P_20
REMARK    7  A    between atoms: P_20  and  O_22
REMARK    8  A    between atoms: P_20  and  O_23
REMARK                            x       y       z     vdW  Elec       q    Type
REMARK                         _______ _______ _______ _____ _____    ______ ____
ROOT
ATOM      1  N   UNL     1       2.125   4.362  21.114  0.00  0.00    +0.000 N 
ATOM      2  C   UNL     1       2.407   5.361  20.198  0.00  0.00    +0.000 A 
ATOM      3  N   UNL     1       3.153   4.989  19.145  0.00  0.00    +0.000 NA
ATOM      4  C   UNL     1       3.450   5.883  18.155  0.00  0.00    +0.000 A 
ATOM      5  N   UNL     1       4.311   5.498  17.157  0.00  0.00    +0.000 N 
ATOM      6  C   UNL     1       4.573   4.106  16.861  0.00  0.00    +0.000 C 
ATOM      7  C   UNL     1       5.827   4.185  16.000  0.00  0.00    +0.000 C 
ATOM      8  C   UNL     1       5.660   5.487  15.222  0.00  0.00    +0.000 C 
ATOM      9  C   UNL     1       4.780   6.381  16.104  0.00  0.00    +0.000 C 
ATOM     10  C   UNL     1       2.863   7.165  18.270  0.00  0.00    +0.000 A 
ATOM     11  N   UNL     1       2.863   8.278  17.448  0.00  0.00    +0.000 NA
ATOM     12  C   UNL     1       2.171   9.189  18.100  0.00  0.00    +0.000 A 
ATOM     13  N   UNL     1       1.788   8.748  19.337  0.00  0.00    +0.000 N 
ATOM     14  C   UNL     1       2.129   7.421  19.423  0.00  0.00    +0.000 A 
ATOM     15  N   UNL     1       1.867   6.568  20.424  0.00  0.00    +0.000 NA
ATOM     16  H   UNL     1       2.232   3.466  20.652  0.00  0.00    +0.000 HD
ATOM     17  H   UNL     1       1.237   4.543  21.560  0.00  0.00    +0.000 HD
ENDROOT
BRANCH  13  18
ATOM     18  C   UNL     1       1.367   9.598  20.435  0.00  0.00    +0.000 C 
BRANCH  18  19
ATOM     19  C   UNL     1      -0.145   9.753  20.660  0.00  0.00    +0.000 C 
BRANCH  19  20
ATOM     20  C   UNL     1      -0.686   8.620  21.535  0.00  0.00    +0.000 C 
ATOM     21  F   UNL     1      -0.824   9.084  22.812  0.00  0.00    +0.000 F 
ENDBRANCH  19  20
BRANCH  19  22
ATOM     22  O   UNL     1      -0.808   9.875  19.379  0.00  0.00    +0.000 OA
BRANCH  22  23
ATOM     23  C   UNL     1      -1.653  11.043  19.297  0.00  0.00    +0.000 C 
BRANCH  23  24
ATOM     24  P   UNL     1      -2.130  11.318  17.583  0.00  0.00    +0.000 P 
ATOM     25  O   UNL     1      -2.084  10.136  16.675  0.00  0.00    +0.000 OA
BRANCH  24  26
ATOM     26  O   UNL     1      -3.567  12.039  17.650  0.00  0.00    +0.000 OA
ATOM     27  H   UNL     1      -4.299  11.422  17.467  0.00  0.00    +0.000 HD
ENDBRANCH  24  26
BRANCH  24  28
ATOM     28  O   UNL     1      -1.233  12.542  17.060  0.00  0.00    +0.000 OA
ATOM     29  H   UNL     1      -1.028  12.433  16.110  0.00  0.00    +0.000 HD
ENDBRANCH  24  28
ENDBRANCH  23  24
ENDBRANCH  22  23
ENDBRANCH  19  22
ENDBRANCH  18  19
ENDBRANCH  13  18
TORSDOF 8
ENDMDL
MODEL 9
REMARK VINA RESULT:      -6.6      2.209      3.025
REMARK  Name = 
REMARK  8 active torsions:
REMARK  status: ('A' for Active; 'I' for Inactive)
REMARK    1  A    between atoms: N_13  and  C_14
REMARK    2  A    between atoms: C_14  and  C_15
REMARK    3  A    between atoms: C_15  and  C_16
REMARK    4  A    between atoms: C_15  and  O_18
REMARK    5  A    between atoms: O_18  and  C_19
REMARK    6  A    between atoms: C_19  and  P_20
REMARK    7  A    between atoms: P_20  and  O_22
REMARK    8  A    between atoms: P_20  and  O_23
REMARK                            x       y       z     vdW  Elec       q    Type
REMARK                         _______ _______ _______ _____ _____    ______ ____
ROOT
ATOM      1  N   UNL     1       7.986   7.814  17.458  0.00  0.00    +0.000 N 
ATOM      2  C   UNL     1       7.029   6.860  17.156  0.00  0.00    +0.000 A 
ATOM      3  N   UNL     1       7.179   6.240  15.974  0.00  0.00    +0.000 NA
ATOM      4  C   UNL     1       6.321   5.246  15.598  0.00  0.00    +0.000 A 
ATOM      5  N   UNL     1       6.437   4.719  14.335  0.00  0.00    +0.000 N 
ATOM      6  C   UNL     1       7.651   4.843  13.557  0.00  0.00    +0.000 C 
ATOM      7  C   UNL     1       7.181   4.477  12.156  0.00  0.00    +0.000 C 
ATOM      8  C   UNL     1       6.100   3.427  12.391  0.00  0.00    +0.000 C 
ATOM      9  C   UNL     1       5.530   3.730  13.782  0.00  0.00    +0.000 C 
ATOM     10  C   UNL     1       5.344   4.868  16.548  0.00  0.00    +0.000 A 
ATOM     11  N   UNL     1       4.379   3.876  16.563  0.00  0.00    +0.000 NA
ATOM     12  C   UNL     1       3.741   4.031  17.704  0.00  0.00    +0.000 A 
ATOM     13  N   UNL     1       4.193   5.122  18.395  0.00  0.00    +0.000 N 
ATOM     14  C   UNL     1       5.288   5.607  17.724  0.00  0.00    +0.000 A 
ATOM     15  N   UNL     1       6.094   6.615  18.087  0.00  0.00    +0.000 NA
ATOM     16  H   UNL     1       8.811   7.625  16.902  0.00  0.00    +0.000 HD
ATOM     17  H   UNL     1       8.112   7.872  18.458  0.00  0.00    +0.000 HD
ENDROOT
BRANCH  13  18
ATOM     18  C   UNL     1       3.476   5.792  19.464  0.00  0.00    +0.000 C 
BRANCH  18  19
ATOM     19  C   UNL     1       2.216   6.580  19.073  0.00  0.00    +0.000 C 
BRANCH  19  20
ATOM     20  C   UNL     1       2.583   7.844  18.291  0.00  0.00    +0.000 C 
ATOM     21  F   UNL     1       1.460   8.320  17.680  0.00  0.00    +0.000 F 
ENDBRANCH  19  20
BRANCH  19  22
ATOM     22  O   UNL     1       1.423   6.831  20.257  0.00  0.00    +0.000 OA
BRANCH  22  23
ATOM     23  C   UNL     1       1.822   8.033  20.952  0.00  0.00    +0.000 C 
BRANCH  23  24
ATOM     24  P   UNL     1       0.379   9.071  21.230  0.00  0.00    +0.000 P 
ATOM     25  O   UNL     1      -0.102   9.879  20.072  0.00  0.00    +0.000 OA
BRANCH  24  26
ATOM     26  O   UNL     1      -0.736   8.093  21.855  0.00  0.00    +0.000 OA
ATOM     27  H   UNL     1      -0.427   7.650  22.667  0.00  0.00    +0.000 HD
ENDBRANCH  24  26
BRANCH  24  28
ATOM     28  O   UNL     1       0.712   9.966  22.519  0.00  0.00    +0.000 OA
ATOM     29  H   UNL     1       0.183   9.672  23.286  0.00  0.00    +0.000 HD
ENDBRANCH  24  28
ENDBRANCH  23  24
ENDBRANCH  22  23
ENDBRANCH  19  22
ENDBRANCH  18  19
ENDBRANCH  13  18
TORSDOF 8
ENDMDL
