MODEL 1
REMARK VINA RESULT:      -9.4      0.000      0.000
REMARK  Name = 
REMARK  5 active torsions:
REMARK  status: ('A' for Active; 'I' for Inactive)
REMARK    1  A    between atoms: S_2  and  C_4
REMARK    2  A    between atoms: S_2  and  N_29
REMARK    3  A    between atoms: C_7  and  C_8
REMARK    4  A    between atoms: C_15  and  N_16
REMARK    5  A    between atoms: C_20  and  C_21
REMARK                            x       y       z     vdW  Elec       q    Type
REMARK                         _______ _______ _______ _____ _____    ______ ____
ROOT
ATOM      1  C   UNL     1       0.933   8.919  20.929  0.00  0.00    +0.000 A 
ATOM      2  C   UNL     1       0.116   8.555  22.005  0.00  0.00    +0.000 A 
ATOM      3  C   UNL     1      -0.588   9.513  22.738  0.00  0.00    +0.000 A 
ATOM      4  C   UNL     1      -0.517  10.858  22.434  0.00  0.00    +0.000 A 
ATOM      5  N   UNL     1      -1.191  11.702  23.222  0.00  0.00    +0.000 NA
ATOM      6  C   UNL     1      -1.134  13.010  22.932  0.00  0.00    +0.000 A 
ATOM      7  C   UNL     1      -0.469  13.522  21.839  0.00  0.00    +0.000 A 
ATOM      8  C   UNL     1       0.215  12.651  20.976  0.00  0.00    +0.000 A 
ATOM      9  C   UNL     1       0.250  11.271  21.321  0.00  0.00    +0.000 A 
ATOM     10  C   UNL     1       0.996  10.286  20.615  0.00  0.00    +0.000 A 
ENDROOT
BRANCH   8  11
ATOM     11  N   UNL     1       0.906  13.121  19.827  0.00  0.00    +0.000 N 
ATOM     12  C   UNL     1       2.103  13.757  19.769  0.00  0.00    +0.000 A 
ATOM     13  N   UNL     1       2.917  14.032  20.765  0.00  0.00    +0.000 NA
ATOM     14  N   UNL     1       4.084  14.634  20.373  0.00  0.00    +0.000 NA
ATOM     15  C   UNL     1       4.133  14.788  19.072  0.00  0.00    +0.000 A 
ATOM     16  S   UNL     1       2.729  14.283  18.239  0.00  0.00    +0.000 S 
ATOM     17  H   UNL     1       0.365  13.116  18.977  0.00  0.00    +0.000 HD
BRANCH  15  18
ATOM     18  C   UNL     1       5.372  15.350  18.383  0.00  0.00    +0.000 C 
ATOM     19  C   UNL     1       6.725  15.087  19.014  0.00  0.00    +0.000 C 
ATOM     20  C   UNL     1       6.338  14.347  17.780  0.00  0.00    +0.000 C 
ENDBRANCH  15  18
ENDBRANCH   8  11
BRANCH   1  24
ATOM     21  C   UNL     1       3.079   5.939  18.693  0.00  0.00    +0.000 A 
ATOM     22  C   UNL     1       2.530   5.629  19.936  0.00  0.00    +0.000 A 
ATOM     23  C   UNL     1       1.825   6.605  20.642  0.00  0.00    +0.000 A 
ATOM     24  C   UNL     1       1.655   7.906  20.132  0.00  0.00    +0.000 A 
ATOM     25  C   UNL     1       2.191   8.181  18.857  0.00  0.00    +0.000 A 
ATOM     26  C   UNL     1       2.900   7.208  18.138  0.00  0.00    +0.000 A 
BRANCH  21  28
ATOM     27  O   UNL     1       4.796   4.005  18.900  0.00  0.00    +0.000 OA
ATOM     28  S   UNL     1       4.085   4.729  17.869  0.00  0.00    +0.000 S 
ATOM     29  O   UNL     1       3.250   4.035  16.913  0.00  0.00    +0.000 OA
BRANCH  28  30
ATOM     30  N   UNL     1       5.220   5.639  16.989  0.00  0.00    +0.000 NA
ATOM     31  C   UNL     1       5.498   5.223  15.579  0.00  0.00    +0.000 C 
ATOM     32  C   UNL     1       6.515   4.081  15.501  0.00  0.00    +0.000 C 
ATOM     33  O   UNL     1       7.738   4.443  16.155  0.00  0.00    +0.000 OA
ATOM     34  C   UNL     1       7.497   4.714  17.543  0.00  0.00    +0.000 C 
ATOM     35  C   UNL     1       6.512   5.876  17.722  0.00  0.00    +0.000 C 
ENDBRANCH  28  30
ENDBRANCH  21  28
ENDBRANCH   1  24
TORSDOF 5
ENDMDL
MODEL 2
REMARK VINA RESULT:      -8.7      1.570      1.926
REMARK  Name = 
REMARK  5 active torsions:
REMARK  status: ('A' for Active; 'I' for Inactive)
REMARK    1  A    between atoms: S_2  and  C_4
REMARK    2  A    between atoms: S_2  and  N_29
REMARK    3  A    between atoms: C_7  and  C_8
REMARK    4  A    between atoms: C_15  and  N_16
REMARK    5  A    between atoms: C_20  and  C_21
REMARK                            x       y       z     vdW  Elec       q    Type
REMARK                         _______ _______ _______ _____ _____    ______ ____
ROOT
ATOM      1  C   UNL     1       0.788  10.315  19.361  0.00  0.00    +0.000 A 
ATOM      2  C   UNL     1      -0.493  10.205  19.914  0.00  0.00    +0.000 A 
ATOM      3  C   UNL     1      -1.250  11.339  20.219  0.00  0.00    +0.000 A 
ATOM      4  C   UNL     1      -0.776  12.615  19.985  0.00  0.00    +0.000 A 
ATOM      5  N   UNL     1      -1.557  13.636  20.353  0.00  0.00    +0.000 NA
ATOM      6  C   UNL     1      -1.108  14.879  20.125  0.00  0.00    +0.000 A 
ATOM      7  C   UNL     1       0.079  15.158  19.484  0.00  0.00    +0.000 A 
ATOM      8  C   UNL     1       0.898  14.101  19.056  0.00  0.00    +0.000 A 
ATOM      9  C   UNL     1       0.489  12.776  19.376  0.00  0.00    +0.000 A 
ATOM     10  C   UNL     1       1.264  11.612  19.114  0.00  0.00    +0.000 A 
ENDROOT
BRANCH   8  11
ATOM     11  N   UNL     1       2.126  14.329  18.379  0.00  0.00    +0.000 N 
ATOM     12  C   UNL     1       3.330  14.654  18.911  0.00  0.00    +0.000 A 
ATOM     13  N   UNL     1       3.641  14.778  20.184  0.00  0.00    +0.000 NA
ATOM     14  N   UNL     1       4.964  15.058  20.404  0.00  0.00    +0.000 NA
ATOM     15  C   UNL     1       5.635  15.127  19.280  0.00  0.00    +0.000 A 
ATOM     16  S   UNL     1       4.690  14.931  17.870  0.00  0.00    +0.000 S 
ATOM     17  H   UNL     1       2.048  14.410  17.377  0.00  0.00    +0.000 HD
BRANCH  15  18
ATOM     18  C   UNL     1       7.145  15.337  19.266  0.00  0.00    +0.000 C 
ATOM     19  C   UNL     1       7.828  15.541  17.927  0.00  0.00    +0.000 C 
ATOM     20  C   UNL     1       7.647  16.704  18.841  0.00  0.00    +0.000 C 
ENDBRANCH  15  18
ENDBRANCH   8  11
BRANCH   1  24
ATOM     21  C   UNL     1       3.129   6.831  18.428  0.00  0.00    +0.000 A 
ATOM     22  C   UNL     1       2.459   6.926  19.646  0.00  0.00    +0.000 A 
ATOM     23  C   UNL     1       1.693   8.058  19.926  0.00  0.00    +0.000 A 
ATOM     24  C   UNL     1       1.580   9.118  19.008  0.00  0.00    +0.000 A 
ATOM     25  C   UNL     1       2.240   8.980  17.769  0.00  0.00    +0.000 A 
ATOM     26  C   UNL     1       3.011   7.846  17.476  0.00  0.00    +0.000 A 
BRANCH  21  28
ATOM     27  O   UNL     1       4.737   5.057  19.428  0.00  0.00    +0.000 OA
ATOM     28  S   UNL     1       4.205   5.448  18.140  0.00  0.00    +0.000 S 
ATOM     29  O   UNL     1       3.496   4.498  17.309  0.00  0.00    +0.000 OA
BRANCH  28  30
ATOM     30  N   UNL     1       5.483   6.080  17.214  0.00  0.00    +0.000 NA
ATOM     31  C   UNL     1       5.704   5.503  15.852  0.00  0.00    +0.000 C 
ATOM     32  C   UNL     1       6.519   4.208  15.895  0.00  0.00    +0.000 C 
ATOM     33  O   UNL     1       7.778   4.421  16.546  0.00  0.00    +0.000 OA
ATOM     34  C   UNL     1       7.571   4.847  17.900  0.00  0.00    +0.000 C 
ATOM     35  C   UNL     1       6.789   6.165  17.956  0.00  0.00    +0.000 C 
ENDBRANCH  28  30
ENDBRANCH  21  28
ENDBRANCH   1  24
TORSDOF 5
ENDMDL
MODEL 3
REMARK VINA RESULT:      -8.6      2.588      3.769
REMARK  Name = 
REMARK  5 active torsions:
REMARK  status: ('A' for Active; 'I' for Inactive)
REMARK    1  A    between atoms: S_2  and  C_4
REMARK    2  A    between atoms: S_2  and  N_29
REMARK    3  A    between atoms: C_7  and  C_8
REMARK    4  A    between atoms: C_15  and  N_16
REMARK    5  A    between atoms: C_20  and  C_21
REMARK                            x       y       z     vdW  Elec       q    Type
REMARK                         _______ _______ _______ _____ _____    ______ ____
ROOT
ATOM      1  C   UNL     1       1.055  11.342  19.035  0.00  0.00    +0.000 A 
ATOM      2  C   UNL     1      -0.271  11.726  19.263  0.00  0.00    +0.000 A 
ATOM      3  C   UNL     1      -0.660  13.066  19.193  0.00  0.00    +0.000 A 
ATOM      4  C   UNL     1       0.239  14.069  18.889  0.00  0.00    +0.000 A 
ATOM      5  N   UNL     1      -0.220  15.325  18.891  0.00  0.00    +0.000 NA
ATOM      6  C   UNL     1       0.644  16.306  18.592  0.00  0.00    +0.000 A 
ATOM      7  C   UNL     1       1.955  16.087  18.230  0.00  0.00    +0.000 A 
ATOM      8  C   UNL     1       2.449  14.774  18.186  0.00  0.00    +0.000 A 
ATOM      9  C   UNL     1       1.578  13.726  18.596  0.00  0.00    +0.000 A 
ATOM     10  C   UNL     1       1.965  12.361  18.717  0.00  0.00    +0.000 A 
ENDROOT
BRANCH   8  11
ATOM     11  N   UNL     1       3.788  14.487  17.808  0.00  0.00    +0.000 N 
ATOM     12  C   UNL     1       4.928  14.744  18.495  0.00  0.00    +0.000 A 
ATOM     13  N   UNL     1       5.043  15.270  19.696  0.00  0.00    +0.000 NA
ATOM     14  N   UNL     1       6.336  15.348  20.143  0.00  0.00    +0.000 NA
ATOM     15  C   UNL     1       7.179  14.859  19.266  0.00  0.00    +0.000 A 
ATOM     16  S   UNL     1       6.466  14.340  17.802  0.00  0.00    +0.000 S 
ATOM     17  H   UNL     1       3.904  14.201  16.847  0.00  0.00    +0.000 HD
BRANCH  15  18
ATOM     18  C   UNL     1       8.669  14.747  19.570  0.00  0.00    +0.000 C 
ATOM     19  C   UNL     1       9.637  14.698  18.403  0.00  0.00    +0.000 C 
ATOM     20  C   UNL     1       9.535  15.942  19.218  0.00  0.00    +0.000 C 
ENDBRANCH  15  18
ENDBRANCH   8  11
BRANCH   1  24
ATOM     21  C   UNL     1       2.281   7.227  19.254  0.00  0.00    +0.000 A 
ATOM     22  C   UNL     1       1.677   7.842  20.349  0.00  0.00    +0.000 A 
ATOM     23  C   UNL     1       1.273   9.175  20.255  0.00  0.00    +0.000 A 
ATOM     24  C   UNL     1       1.464   9.922  19.078  0.00  0.00    +0.000 A 
ATOM     25  C   UNL     1       2.047   9.264  17.975  0.00  0.00    +0.000 A 
ATOM     26  C   UNL     1       2.454   7.925  18.058  0.00  0.00    +0.000 A 
BRANCH  21  28
ATOM     27  O   UNL     1       4.351   5.677  19.467  0.00  0.00    +0.000 OA
ATOM     28  S   UNL     1       2.909   5.575  19.432  0.00  0.00    +0.000 S 
ATOM     29  O   UNL     1       2.182   4.937  20.509  0.00  0.00    +0.000 OA
BRANCH  28  30
ATOM     30  N   UNL     1       2.472   4.789  17.989  0.00  0.00    +0.000 NA
ATOM     31  C   UNL     1       1.321   3.835  18.039  0.00  0.00    +0.000 C 
ATOM     32  C   UNL     1       1.737   2.450  18.540  0.00  0.00    +0.000 C 
ATOM     33  O   UNL     1       2.787   1.909  17.727  0.00  0.00    +0.000 OA
ATOM     34  C   UNL     1       3.944   2.754  17.782  0.00  0.00    +0.000 C 
ATOM     35  C   UNL     1       3.631   4.163  17.262  0.00  0.00    +0.000 C 
ENDBRANCH  28  30
ENDBRANCH  21  28
ENDBRANCH   1  24
TORSDOF 5
ENDMDL
MODEL 4
REMARK VINA RESULT:      -8.6      2.052      2.423
REMARK  Name = 
REMARK  5 active torsions:
REMARK  status: ('A' for Active; 'I' for Inactive)
REMARK    1  A    between atoms: S_2  and  C_4
REMARK    2  A    between atoms: S_2  and  N_29
REMARK    3  A    between atoms: C_7  and  C_8
REMARK    4  A    between atoms: C_15  and  N_16
REMARK    5  A    between atoms: C_20  and  C_21
REMARK                            x       y       z     vdW  Elec       q    Type
REMARK                         _______ _______ _______ _____ _____    ______ ____
ROOT
ATOM      1  C   UNL     1       0.574  10.339  19.325  0.00  0.00    +0.000 A 
ATOM      2  C   UNL     1      -0.822  10.245  19.345  0.00  0.00    +0.000 A 
ATOM      3  C   UNL     1      -1.619  11.359  19.617  0.00  0.00    +0.000 A 
ATOM      4  C   UNL     1      -1.072  12.601  19.872  0.00  0.00    +0.000 A 
ATOM      5  N   UNL     1      -1.917  13.594  20.167  0.00  0.00    +0.000 NA
ATOM      6  C   UNL     1      -1.396  14.806  20.410  0.00  0.00    +0.000 A 
ATOM      7  C   UNL     1      -0.051  15.093  20.317  0.00  0.00    +0.000 A 
ATOM      8  C   UNL     1       0.851  14.074  19.973  0.00  0.00    +0.000 A 
ATOM      9  C   UNL     1       0.330  12.759  19.808  0.00  0.00    +0.000 A 
ATOM     10  C   UNL     1       1.129  11.604  19.574  0.00  0.00    +0.000 A 
ENDROOT
BRANCH   8  11
ATOM     11  N   UNL     1       2.245  14.314  19.850  0.00  0.00    +0.000 N 
ATOM     12  C   UNL     1       3.164  14.447  20.838  0.00  0.00    +0.000 A 
ATOM     13  N   UNL     1       2.976  14.329  22.134  0.00  0.00    +0.000 NA
ATOM     14  N   UNL     1       4.122  14.462  22.874  0.00  0.00    +0.000 NA
ATOM     15  C   UNL     1       5.166  14.666  22.109  0.00  0.00    +0.000 A 
ATOM     16  S   UNL     1       4.818  14.788  20.440  0.00  0.00    +0.000 S 
ATOM     17  H   UNL     1       2.550  14.569  18.923  0.00  0.00    +0.000 HD
BRANCH  15  18
ATOM     18  C   UNL     1       6.574  14.754  22.690  0.00  0.00    +0.000 C 
ATOM     19  C   UNL     1       6.909  13.891  23.891  0.00  0.00    +0.000 C 
ATOM     20  C   UNL     1       7.453  13.525  22.553  0.00  0.00    +0.000 C 
ENDBRANCH  15  18
ENDBRANCH   8  11
BRANCH   1  24
ATOM     21  C   UNL     1       3.072   6.939  18.496  0.00  0.00    +0.000 A 
ATOM     22  C   UNL     1       2.363   7.019  19.693  0.00  0.00    +0.000 A 
ATOM     23  C   UNL     1       1.547   8.123  19.940  0.00  0.00    +0.000 A 
ATOM     24  C   UNL     1       1.421   9.170  19.008  0.00  0.00    +0.000 A 
ATOM     25  C   UNL     1       2.123   9.047  17.790  0.00  0.00    +0.000 A 
ATOM     26  C   UNL     1       2.944   7.940  17.531  0.00  0.00    +0.000 A 
BRANCH  21  28
ATOM     27  O   UNL     1       4.762   5.277  19.552  0.00  0.00    +0.000 OA
ATOM     28  S   UNL     1       4.207   5.595  18.254  0.00  0.00    +0.000 S 
ATOM     29  O   UNL     1       3.538   4.584  17.464  0.00  0.00    +0.000 OA
BRANCH  28  30
ATOM     30  N   UNL     1       5.452   6.248  17.297  0.00  0.00    +0.000 NA
ATOM     31  C   UNL     1       5.540   5.798  15.873  0.00  0.00    +0.000 C 
ATOM     32  C   UNL     1       6.278   4.464  15.731  0.00  0.00    +0.000 C 
ATOM     33  O   UNL     1       7.590   4.545  16.301  0.00  0.00    +0.000 OA
ATOM     34  C   UNL     1       7.506   4.845  17.701  0.00  0.00    +0.000 C 
ATOM     35  C   UNL     1       6.809   6.191  17.942  0.00  0.00    +0.000 C 
ENDBRANCH  28  30
ENDBRANCH  21  28
ENDBRANCH   1  24
TORSDOF 5
ENDMDL
MODEL 5
REMARK VINA RESULT:      -8.4      1.622      1.987
REMARK  Name = 
REMARK  5 active torsions:
REMARK  status: ('A' for Active; 'I' for Inactive)
REMARK    1  A    between atoms: S_2  and  C_4
REMARK    2  A    between atoms: S_2  and  N_29
REMARK    3  A    between atoms: C_7  and  C_8
REMARK    4  A    between atoms: C_15  and  N_16
REMARK    5  A    between atoms: C_20  and  C_21
REMARK                            x       y       z     vdW  Elec       q    Type
REMARK                         _______ _______ _______ _____ _____    ______ ____
ROOT
ATOM      1  C   UNL     1       0.516  10.160  19.376  0.00  0.00    +0.000 A 
ATOM      2  C   UNL     1      -0.844  10.069  19.063  0.00  0.00    +0.000 A 
ATOM      3  C   UNL     1      -1.710  11.144  19.275  0.00  0.00    +0.000 A 
ATOM      4  C   UNL     1      -1.267  12.343  19.795  0.00  0.00    +0.000 A 
ATOM      5  N   UNL     1      -2.181  13.297  20.004  0.00  0.00    +0.000 NA
ATOM      6  C   UNL     1      -1.760  14.468  20.504  0.00  0.00    +0.000 A 
ATOM      7  C   UNL     1      -0.438  14.759  20.759  0.00  0.00    +0.000 A 
ATOM      8  C   UNL     1       0.544  13.786  20.512  0.00  0.00    +0.000 A 
ATOM      9  C   UNL     1       0.108  12.503  20.076  0.00  0.00    +0.000 A 
ATOM     10  C   UNL     1       0.968  11.383  19.896  0.00  0.00    +0.000 A 
ENDROOT
BRANCH   8  11
ATOM     11  N   UNL     1       1.923  14.035  20.744  0.00  0.00    +0.000 N 
ATOM     12  C   UNL     1       2.872  14.402  19.846  0.00  0.00    +0.000 A 
ATOM     13  N   UNL     1       2.712  14.661  18.567  0.00  0.00    +0.000 NA
ATOM     14  N   UNL     1       3.860  15.066  17.938  0.00  0.00    +0.000 NA
ATOM     15  C   UNL     1       4.872  15.118  18.770  0.00  0.00    +0.000 A 
ATOM     16  S   UNL     1       4.516  14.604  20.360  0.00  0.00    +0.000 S 
ATOM     17  H   UNL     1       2.257  13.753  21.652  0.00  0.00    +0.000 HD
BRANCH  15  18
ATOM     18  C   UNL     1       6.240  15.630  18.331  0.00  0.00    +0.000 C 
ATOM     19  C   UNL     1       7.447  15.264  19.173  0.00  0.00    +0.000 C 
ATOM     20  C   UNL     1       7.243  14.594  17.857  0.00  0.00    +0.000 C 
ENDBRANCH  15  18
ENDBRANCH   8  11
BRANCH   1  24
ATOM     21  C   UNL     1       3.178   6.886  18.550  0.00  0.00    +0.000 A 
ATOM     22  C   UNL     1       3.020   7.918  17.626  0.00  0.00    +0.000 A 
ATOM     23  C   UNL     1       2.162   8.979  17.917  0.00  0.00    +0.000 A 
ATOM     24  C   UNL     1       1.442   9.036  19.125  0.00  0.00    +0.000 A 
ATOM     25  C   UNL     1       1.648   7.996  20.056  0.00  0.00    +0.000 A 
ATOM     26  C   UNL     1       2.510   6.926  19.775  0.00  0.00    +0.000 A 
BRANCH  21  28
ATOM     27  O   UNL     1       4.726   4.959  19.339  0.00  0.00    +0.000 OA
ATOM     28  S   UNL     1       4.169   5.479  18.110  0.00  0.00    +0.000 S 
ATOM     29  O   UNL     1       3.382   4.638  17.234  0.00  0.00    +0.000 OA
BRANCH  28  30
ATOM     30  N   UNL     1       5.445   6.122  17.187  0.00  0.00    +0.000 NA
ATOM     31  C   UNL     1       5.657   5.564  15.815  0.00  0.00    +0.000 C 
ATOM     32  C   UNL     1       6.468   4.266  15.834  0.00  0.00    +0.000 C 
ATOM     33  O   UNL     1       7.731   4.466  16.482  0.00  0.00    +0.000 OA
ATOM     34  C   UNL     1       7.533   4.872  17.843  0.00  0.00    +0.000 C 
ATOM     35  C   UNL     1       6.754   6.192  17.923  0.00  0.00    +0.000 C 
ENDBRANCH  28  30
ENDBRANCH  21  28
ENDBRANCH   1  24
TORSDOF 5
ENDMDL
MODEL 6
REMARK VINA RESULT:      -8.4      2.254      3.065
REMARK  Name = 
REMARK  5 active torsions:
REMARK  status: ('A' for Active; 'I' for Inactive)
REMARK    1  A    between atoms: S_2  and  C_4
REMARK    2  A    between atoms: S_2  and  N_29
REMARK    3  A    between atoms: C_7  and  C_8
REMARK    4  A    between atoms: C_15  and  N_16
REMARK    5  A    between atoms: C_20  and  C_21
REMARK                            x       y       z     vdW  Elec       q    Type
REMARK                         _______ _______ _______ _____ _____    ______ ____
ROOT
ATOM      1  C   UNL     1       0.686  10.532  19.448  0.00  0.00    +0.000 A 
ATOM      2  C   UNL     1      -0.622  10.532  19.944  0.00  0.00    +0.000 A 
ATOM      3  C   UNL     1      -1.318  11.726  20.150  0.00  0.00    +0.000 A 
ATOM      4  C   UNL     1      -0.755  12.955  19.869  0.00  0.00    +0.000 A 
ATOM      5  N   UNL     1      -1.484  14.041  20.143  0.00  0.00    +0.000 NA
ATOM      6  C   UNL     1      -0.948  15.240  19.869  0.00  0.00    +0.000 A 
ATOM      7  C   UNL     1       0.282  15.408  19.271  0.00  0.00    +0.000 A 
ATOM      8  C   UNL     1       1.050  14.280  18.941  0.00  0.00    +0.000 A 
ATOM      9  C   UNL     1       0.544  13.003  19.314  0.00  0.00    +0.000 A 
ATOM     10  C   UNL     1       1.255  11.781  19.153  0.00  0.00    +0.000 A 
ENDROOT
BRANCH   8  11
ATOM     11  N   UNL     1       2.319  14.393  18.312  0.00  0.00    +0.000 N 
ATOM     12  C   UNL     1       3.491  14.808  18.854  0.00  0.00    +0.000 A 
ATOM     13  N   UNL     1       3.724  15.148  20.104  0.00  0.00    +0.000 NA
ATOM     14  N   UNL     1       5.033  15.467  20.354  0.00  0.00    +0.000 NA
ATOM     15  C   UNL     1       5.772  15.345  19.278  0.00  0.00    +0.000 A 
ATOM     16  S   UNL     1       4.913  14.908  17.867  0.00  0.00    +0.000 S 
ATOM     17  H   UNL     1       2.303  14.301  17.308  0.00  0.00    +0.000 HD
BRANCH  15  18
ATOM     18  C   UNL     1       7.282  15.554  19.321  0.00  0.00    +0.000 C 
ATOM     19  C   UNL     1       8.035  15.611  18.007  0.00  0.00    +0.000 C 
ATOM     20  C   UNL     1       7.811  16.867  18.776  0.00  0.00    +0.000 C 
ENDBRANCH  15  18
ENDBRANCH   8  11
BRANCH   1  24
ATOM     21  C   UNL     1       2.846   6.867  18.818  0.00  0.00    +0.000 A 
ATOM     22  C   UNL     1       2.195   7.104  20.028  0.00  0.00    +0.000 A 
ATOM     23  C   UNL     1       1.488   8.293  20.209  0.00  0.00    +0.000 A 
ATOM     24  C   UNL     1       1.416   9.270  19.199  0.00  0.00    +0.000 A 
ATOM     25  C   UNL     1       2.055   8.989  17.974  0.00  0.00    +0.000 A 
ATOM     26  C   UNL     1       2.766   7.796  17.779  0.00  0.00    +0.000 A 
BRANCH  21  28
ATOM     27  O   UNL     1       5.082   5.825  18.014  0.00  0.00    +0.000 OA
ATOM     28  S   UNL     1       3.850   5.412  18.650  0.00  0.00    +0.000 S 
ATOM     29  O   UNL     1       3.864   4.732  19.928  0.00  0.00    +0.000 OA
BRANCH  28  30
ATOM     30  N   UNL     1       3.001   4.425  17.557  0.00  0.00    +0.000 NA
ATOM     31  C   UNL     1       1.526   4.276  17.760  0.00  0.00    +0.000 C 
ATOM     32  C   UNL     1       1.189   3.216  18.812  0.00  0.00    +0.000 C 
ATOM     33  O   UNL     1       1.766   1.951  18.462  0.00  0.00    +0.000 OA
ATOM     34  C   UNL     1       3.194   2.057  18.398  0.00  0.00    +0.000 C 
ATOM     35  C   UNL     1       3.631   3.077  17.338  0.00  0.00    +0.000 C 
ENDBRANCH  28  30
ENDBRANCH  21  28
ENDBRANCH   1  24
TORSDOF 5
ENDMDL
MODEL 7
REMARK VINA RESULT:      -8.4      2.950      4.158
REMARK  Name = 
REMARK  5 active torsions:
REMARK  status: ('A' for Active; 'I' for Inactive)
REMARK    1  A    between atoms: S_2  and  C_4
REMARK    2  A    between atoms: S_2  and  N_29
REMARK    3  A    between atoms: C_7  and  C_8
REMARK    4  A    between atoms: C_15  and  N_16
REMARK    5  A    between atoms: C_20  and  C_21
REMARK                            x       y       z     vdW  Elec       q    Type
REMARK                         _______ _______ _______ _____ _____    ______ ____
ROOT
ATOM      1  C   UNL     1       0.882  11.349  19.050  0.00  0.00    +0.000 A 
ATOM      2  C   UNL     1      -0.374  11.694  18.540  0.00  0.00    +0.000 A 
ATOM      3  C   UNL     1      -0.769  13.029  18.427  0.00  0.00    +0.000 A 
ATOM      4  C   UNL     1       0.059  14.067  18.805  0.00  0.00    +0.000 A 
ATOM      5  N   UNL     1      -0.427  15.308  18.702  0.00  0.00    +0.000 NA
ATOM      6  C   UNL     1       0.372  16.324  19.062  0.00  0.00    +0.000 A 
ATOM      7  C   UNL     1       1.677  16.162  19.474  0.00  0.00    +0.000 A 
ATOM      8  C   UNL     1       2.220  14.870  19.555  0.00  0.00    +0.000 A 
ATOM      9  C   UNL     1       1.359  13.772  19.274  0.00  0.00    +0.000 A 
ATOM     10  C   UNL     1       1.727  12.405  19.424  0.00  0.00    +0.000 A 
ENDROOT
BRANCH   8  11
ATOM     11  N   UNL     1       3.562  14.644  19.962  0.00  0.00    +0.000 N 
ATOM     12  C   UNL     1       4.060  14.591  21.222  0.00  0.00    +0.000 A 
ATOM     13  N   UNL     1       3.397  14.685  22.354  0.00  0.00    +0.000 NA
ATOM     14  N   UNL     1       4.181  14.533  23.467  0.00  0.00    +0.000 NA
ATOM     15  C   UNL     1       5.433  14.311  23.148  0.00  0.00    +0.000 A 
ATOM     16  S   UNL     1       5.759  14.347  21.471  0.00  0.00    +0.000 S 
ATOM     17  H   UNL     1       4.242  14.683  19.217  0.00  0.00    +0.000 HD
BRANCH  15  18
ATOM     18  C   UNL     1       6.486  14.016  24.211  0.00  0.00    +0.000 C 
ATOM     19  C   UNL     1       6.059  13.255  25.451  0.00  0.00    +0.000 C 
ATOM     20  C   UNL     1       6.873  12.563  24.412  0.00  0.00    +0.000 C 
ENDBRANCH  15  18
ENDBRANCH   8  11
BRANCH   1  24
ATOM     21  C   UNL     1       2.178   7.265  19.412  0.00  0.00    +0.000 A 
ATOM     22  C   UNL     1       1.544   7.901  20.477  0.00  0.00    +0.000 A 
ATOM     23  C   UNL     1       1.118   9.223  20.337  0.00  0.00    +0.000 A 
ATOM     24  C   UNL     1       1.317   9.939  19.142  0.00  0.00    +0.000 A 
ATOM     25  C   UNL     1       1.930   9.259  18.069  0.00  0.00    +0.000 A 
ATOM     26  C   UNL     1       2.360   7.931  18.198  0.00  0.00    +0.000 A 
BRANCH  21  28
ATOM     27  O   UNL     1       4.266   5.726  19.482  0.00  0.00    +0.000 OA
ATOM     28  S   UNL     1       2.832   5.631  19.649  0.00  0.00    +0.000 S 
ATOM     29  O   UNL     1       2.259   5.096  20.866  0.00  0.00    +0.000 OA
BRANCH  28  30
ATOM     30  N   UNL     1       2.210   4.725  18.352  0.00  0.00    +0.000 NA
ATOM     31  C   UNL     1       1.216   3.652  18.669  0.00  0.00    +0.000 C 
ATOM     32  C   UNL     1       1.889   2.351  19.114  0.00  0.00    +0.000 C 
ATOM     33  O   UNL     1       2.809   1.887  18.118  0.00  0.00    +0.000 OA
ATOM     34  C   UNL     1       3.844   2.858  17.907  0.00  0.00    +0.000 C 
ATOM     35  C   UNL     1       3.265   4.193  17.420  0.00  0.00    +0.000 C 
ENDBRANCH  28  30
ENDBRANCH  21  28
ENDBRANCH   1  24
TORSDOF 5
ENDMDL
MODEL 8
REMARK VINA RESULT:      -8.3      2.558      3.340
REMARK  Name = 
REMARK  5 active torsions:
REMARK  status: ('A' for Active; 'I' for Inactive)
REMARK    1  A    between atoms: S_2  and  C_4
REMARK    2  A    between atoms: S_2  and  N_29
REMARK    3  A    between atoms: C_7  and  C_8
REMARK    4  A    between atoms: C_15  and  N_16
REMARK    5  A    between atoms: C_20  and  C_21
REMARK                            x       y       z     vdW  Elec       q    Type
REMARK                         _______ _______ _______ _____ _____    ______ ____
ROOT
ATOM      1  C   UNL     1       0.486  10.547  19.429  0.00  0.00    +0.000 A 
ATOM      2  C   UNL     1      -0.912  10.514  19.432  0.00  0.00    +0.000 A 
ATOM      3  C   UNL     1      -1.663  11.667  19.675  0.00  0.00    +0.000 A 
ATOM      4  C   UNL     1      -1.065  12.888  19.916  0.00  0.00    +0.000 A 
ATOM      5  N   UNL     1      -1.868  13.922  20.183  0.00  0.00    +0.000 NA
ATOM      6  C   UNL     1      -1.297  15.114  20.413  0.00  0.00    +0.000 A 
ATOM      7  C   UNL     1       0.060  15.340  20.334  0.00  0.00    +0.000 A 
ATOM      8  C   UNL     1       0.920  14.276  20.019  0.00  0.00    +0.000 A 
ATOM      9  C   UNL     1       0.344  12.983  19.869  0.00  0.00    +0.000 A 
ATOM     10  C   UNL     1       1.093  11.790  19.665  0.00  0.00    +0.000 A 
ENDROOT
BRANCH   8  11
ATOM     11  N   UNL     1       2.325  14.452  19.910  0.00  0.00    +0.000 N 
ATOM     12  C   UNL     1       3.240  14.538  20.908  0.00  0.00    +0.000 A 
ATOM     13  N   UNL     1       3.033  14.420  22.202  0.00  0.00    +0.000 NA
ATOM     14  N   UNL     1       4.177  14.496  22.953  0.00  0.00    +0.000 NA
ATOM     15  C   UNL     1       5.237  14.657  22.199  0.00  0.00    +0.000 A 
ATOM     16  S   UNL     1       4.912  14.803  20.528  0.00  0.00    +0.000 S 
ATOM     17  H   UNL     1       2.650  14.698  18.988  0.00  0.00    +0.000 HD
BRANCH  15  18
ATOM     18  C   UNL     1       6.642  14.676  22.794  0.00  0.00    +0.000 C 
ATOM     19  C   UNL     1       6.897  13.876  24.056  0.00  0.00    +0.000 C 
ATOM     20  C   UNL     1       7.424  13.376  22.755  0.00  0.00    +0.000 C 
ENDBRANCH  15  18
ENDBRANCH   8  11
BRANCH   1  24
ATOM     21  C   UNL     1       2.848   7.031  18.688  0.00  0.00    +0.000 A 
ATOM     22  C   UNL     1       2.218   7.211  19.917  0.00  0.00    +0.000 A 
ATOM     23  C   UNL     1       1.444   8.352  20.136  0.00  0.00    +0.000 A 
ATOM     24  C   UNL     1       1.285   9.336  19.143  0.00  0.00    +0.000 A 
ATOM     25  C   UNL     1       1.906   9.111  17.896  0.00  0.00    +0.000 A 
ATOM     26  C   UNL     1       2.683   7.967  17.665  0.00  0.00    +0.000 A 
BRANCH  21  28
ATOM     27  O   UNL     1       5.064   6.112  17.697  0.00  0.00    +0.000 OA
ATOM     28  S   UNL     1       3.935   5.643  18.471  0.00  0.00    +0.000 S 
ATOM     29  O   UNL     1       4.127   5.022  19.765  0.00  0.00    +0.000 OA
BRANCH  28  30
ATOM     30  N   UNL     1       3.055   4.552  17.508  0.00  0.00    +0.000 NA
ATOM     31  C   UNL     1       1.599   4.383  17.806  0.00  0.00    +0.000 C 
ATOM     32  C   UNL     1       1.352   3.401  18.954  0.00  0.00    +0.000 C 
ATOM     33  O   UNL     1       1.945   2.127  18.671  0.00  0.00    +0.000 OA
ATOM     34  C   UNL     1       3.364   2.263  18.517  0.00  0.00    +0.000 C 
ATOM     35  C   UNL     1       3.711   3.207  17.358  0.00  0.00    +0.000 C 
ENDBRANCH  28  30
ENDBRANCH  21  28
ENDBRANCH   1  24
TORSDOF 5
ENDMDL
MODEL 9
REMARK VINA RESULT:      -8.3      2.890      4.101
REMARK  Name = 
REMARK  5 active torsions:
REMARK  status: ('A' for Active; 'I' for Inactive)
REMARK    1  A    between atoms: S_2  and  C_4
REMARK    2  A    between atoms: S_2  and  N_29
REMARK    3  A    between atoms: C_7  and  C_8
REMARK    4  A    between atoms: C_15  and  N_16
REMARK    5  A    between atoms: C_20  and  C_21
REMARK                            x       y       z     vdW  Elec       q    Type
REMARK                         _______ _______ _______ _____ _____    ______ ____
ROOT
ATOM      1  C   UNL     1       1.036  11.255  19.024  0.00  0.00    +0.000 A 
ATOM      2  C   UNL     1      -0.313  11.531  19.266  0.00  0.00    +0.000 A 
ATOM      3  C   UNL     1      -0.801  12.840  19.239  0.00  0.00    +0.000 A 
ATOM      4  C   UNL     1       0.020  13.917  18.966  0.00  0.00    +0.000 A 
ATOM      5  N   UNL     1      -0.531  15.134  19.007  0.00  0.00    +0.000 NA
ATOM      6  C   UNL     1       0.257  16.186  18.738  0.00  0.00    +0.000 A 
ATOM      7  C   UNL     1       1.579  16.076  18.368  0.00  0.00    +0.000 A 
ATOM      8  C   UNL     1       2.169  14.805  18.282  0.00  0.00    +0.000 A 
ATOM      9  C   UNL     1       1.380  13.683  18.660  0.00  0.00    +0.000 A 
ATOM     10  C   UNL     1       1.868  12.348  18.737  0.00  0.00    +0.000 A 
ENDROOT
BRANCH   8  11
ATOM     11  N   UNL     1       3.524  14.631  17.893  0.00  0.00    +0.000 N 
ATOM     12  C   UNL     1       4.642  14.812  18.639  0.00  0.00    +0.000 A 
ATOM     13  N   UNL     1       4.716  15.140  19.911  0.00  0.00    +0.000 NA
ATOM     14  N   UNL     1       5.997  15.189  20.395  0.00  0.00    +0.000 NA
ATOM     15  C   UNL     1       6.873  14.879  19.470  0.00  0.00    +0.000 A 
ATOM     16  S   UNL     1       6.206  14.581  17.925  0.00  0.00    +0.000 S 
ATOM     17  H   UNL     1       3.667  14.509  16.902  0.00  0.00    +0.000 HD
BRANCH  15  18
ATOM     18  C   UNL     1       8.361  14.771  19.786  0.00  0.00    +0.000 C 
ATOM     19  C   UNL     1       8.776  14.024  21.038  0.00  0.00    +0.000 C 
ATOM     20  C   UNL     1       8.984  13.390  19.706  0.00  0.00    +0.000 C 
ENDBRANCH  15  18
ENDBRANCH   8  11
BRANCH   1  24
ATOM     21  C   UNL     1       2.500   7.213  18.924  0.00  0.00    +0.000 A 
ATOM     22  C   UNL     1       2.669   8.052  17.824  0.00  0.00    +0.000 A 
ATOM     23  C   UNL     1       2.199   9.365  17.880  0.00  0.00    +0.000 A 
ATOM     24  C   UNL     1       1.550   9.869  19.022  0.00  0.00    +0.000 A 
ATOM     25  C   UNL     1       1.424   9.008  20.133  0.00  0.00    +0.000 A 
ATOM     26  C   UNL     1       1.895   7.688  20.089  0.00  0.00    +0.000 A 
BRANCH  21  28
ATOM     27  O   UNL     1       3.408   5.300  17.424  0.00  0.00    +0.000 OA
ATOM     28  S   UNL     1       2.982   5.508  18.790  0.00  0.00    +0.000 S 
ATOM     29  O   UNL     1       3.864   5.208  19.898  0.00  0.00    +0.000 OA
BRANCH  28  30
ATOM     30  N   UNL     1       1.545   4.633  19.032  0.00  0.00    +0.000 NA
ATOM     31  C   UNL     1       1.252   4.149  20.417  0.00  0.00    +0.000 C 
ATOM     32  C   UNL     1       1.977   2.839  20.739  0.00  0.00    +0.000 C 
ATOM     33  O   UNL     1       1.641   1.824  19.784  0.00  0.00    +0.000 OA
ATOM     34  C   UNL     1       2.043   2.227  18.468  0.00  0.00    +0.000 C 
ATOM     35  C   UNL     1       1.336   3.520  18.041  0.00  0.00    +0.000 C 
ENDBRANCH  28  30
ENDBRANCH  21  28
ENDBRANCH   1  24
TORSDOF 5
ENDMDL
