MODEL 1
REMARK VINA RESULT:      -7.9      0.000      0.000
REMARK  Name = 
REMARK  14 active torsions:
REMARK  status: ('A' for Active; 'I' for Inactive)
REMARK    1  A    between atoms: C_1  and  C_2
REMARK    2  A    between atoms: C_2  and  C_3
REMARK    3  A    between atoms: C_3  and  C_4
REMARK    4  A    between atoms: C_4  and  C_5
REMARK    5  A    between atoms: C_5  and  C_6
REMARK    6  A    between atoms: C_6  and  N_7
REMARK    7  A    between atoms: N_7  and  C_8
REMARK    8  A    between atoms: N_7  and  C_14
REMARK    9  A    between atoms: C_8  and  C_9
REMARK   10  A    between atoms: C_9  and  C_10
REMARK   11  A    between atoms: C_10  and  C_11
REMARK   12  A    between atoms: C_11  and  C_12
REMARK   13  A    between atoms: C_12  and  C_13
REMARK   14  A    between atoms: C_22  and  N_23
REMARK                            x       y       z     vdW  Elec       q    Type
REMARK                         _______ _______ _______ _____ _____    ______ ____
ROOT
ATOM      1  C   UNL     1       2.425   7.002  19.219  0.00  0.00    +0.000 A 
ATOM      2  C   UNL     1       2.543   7.726  18.018  0.00  0.00    +0.000 A 
ATOM      3  C   UNL     1       2.022   9.021  17.848  0.00  0.00    +0.000 A 
ATOM      4  C   UNL     1       1.349   9.653  18.868  0.00  0.00    +0.000 A 
ATOM      5  N   UNL     1       0.859  10.889  18.706  0.00  0.00    +0.000 NA
ATOM      6  C   UNL     1       0.217  11.377  19.771  0.00  0.00    +0.000 A 
ATOM      7  C   UNL     1      -0.353  12.633  19.732  0.00  0.00    +0.000 A 
ATOM      8  C   UNL     1      -1.039  13.142  20.843  0.00  0.00    +0.000 A 
ATOM      9  C   UNL     1      -1.185  12.418  22.040  0.00  0.00    +0.000 A 
ATOM     10  C   UNL     1      -0.588  11.150  22.076  0.00  0.00    +0.000 A 
ATOM     11  C   UNL     1       0.092  10.625  20.970  0.00  0.00    +0.000 A 
ATOM     12  O   UNL     1       0.578   9.456  21.087  0.00  0.00    +0.000 OA
ATOM     13  C   UNL     1       1.189   8.947  20.084  0.00  0.00    +0.000 A 
ATOM     14  C   UNL     1       1.711   7.662  20.239  0.00  0.00    +0.000 A 
ENDROOT
BRANCH   9  15
ATOM     15  N   UNL     1      -1.875  12.935  23.116  0.00  0.00    +0.000 N 
ATOM     16  C   UNL     1      -3.114  12.323  23.631  0.00  0.00    +0.000 C 
ATOM     17  C   UNL     1      -4.255  13.332  23.562  0.00  0.00    +0.000 C 
ATOM     18  C   UNL     1      -3.890  14.628  24.285  0.00  0.00    +0.000 C 
ATOM     19  C   UNL     1      -2.556  15.185  23.791  0.00  0.00    +0.000 C 
ATOM     20  C   UNL     1      -1.446  14.133  23.847  0.00  0.00    +0.000 C 
ENDBRANCH   9  15
BRANCH   1  21
ATOM     21  N   UNL     1       3.014   5.737  19.405  0.00  0.00    +0.000 N 
BRANCH  21  22
ATOM     22  C   UNL     1       2.699   4.903  20.604  0.00  0.00    +0.000 C 
BRANCH  22  23
ATOM     23  C   UNL     1       1.372   4.147  20.475  0.00  0.00    +0.000 C 
BRANCH  23  24
ATOM     24  C   UNL     1       1.511   2.635  20.198  0.00  0.00    +0.000 C 
BRANCH  24  25
ATOM     25  C   UNL     1       1.114   2.362  18.739  0.00  0.00    +0.000 C 
BRANCH  25  27
ATOM     26  C   UNL     1       3.500   1.681  18.363  0.00  0.00    +0.000 C 
ATOM     27  C   UNL     1       2.277   2.356  17.746  0.00  0.00    +0.000 C 
ENDBRANCH  25  27
ENDBRANCH  24  25
ENDBRANCH  23  24
ENDBRANCH  22  23
ENDBRANCH  21  22
BRANCH  21  28
ATOM     28  C   UNL     1       4.206   5.421  18.579  0.00  0.00    +0.000 C 
BRANCH  28  29
ATOM     29  C   UNL     1       5.393   4.696  19.205  0.00  0.00    +0.000 C 
BRANCH  29  30
ATOM     30  C   UNL     1       6.674   5.510  19.408  0.00  0.00    +0.000 C 
BRANCH  30  31
ATOM     31  C   UNL     1       7.432   5.537  18.074  0.00  0.00    +0.000 C 
BRANCH  31  32
ATOM     32  C   UNL     1       7.081   6.735  17.200  0.00  0.00    +0.000 C 
ATOM     33  C   UNL     1       7.836   7.973  17.669  0.00  0.00    +0.000 C 
ENDBRANCH  31  32
ENDBRANCH  30  31
ENDBRANCH  29  30
ENDBRANCH  28  29
ENDBRANCH  21  28
ENDBRANCH   1  21
TORSDOF 12
ENDMDL
MODEL 2
REMARK VINA RESULT:      -7.8      0.354      3.590
REMARK  Name = 
REMARK  14 active torsions:
REMARK  status: ('A' for Active; 'I' for Inactive)
REMARK    1  A    between atoms: C_1  and  C_2
REMARK    2  A    between atoms: C_2  and  C_3
REMARK    3  A    between atoms: C_3  and  C_4
REMARK    4  A    between atoms: C_4  and  C_5
REMARK    5  A    between atoms: C_5  and  C_6
REMARK    6  A    between atoms: C_6  and  N_7
REMARK    7  A    between atoms: N_7  and  C_8
REMARK    8  A    between atoms: N_7  and  C_14
REMARK    9  A    between atoms: C_8  and  C_9
REMARK   10  A    between atoms: C_9  and  C_10
REMARK   11  A    between atoms: C_10  and  C_11
REMARK   12  A    between atoms: C_11  and  C_12
REMARK   13  A    between atoms: C_12  and  C_13
REMARK   14  A    between atoms: C_22  and  N_23
REMARK                            x       y       z     vdW  Elec       q    Type
REMARK                         _______ _______ _______ _____ _____    ______ ____
ROOT
ATOM      1  C   UNL     1       2.443   7.235  19.276  0.00  0.00    +0.000 A 
ATOM      2  C   UNL     1       2.481   7.926  18.052  0.00  0.00    +0.000 A 
ATOM      3  C   UNL     1       1.895   9.191  17.865  0.00  0.00    +0.000 A 
ATOM      4  C   UNL     1       1.234   9.824  18.892  0.00  0.00    +0.000 A 
ATOM      5  N   UNL     1       0.682  11.031  18.714  0.00  0.00    +0.000 NA
ATOM      6  C   UNL     1       0.060  11.523  19.789  0.00  0.00    +0.000 A 
ATOM      7  C   UNL     1      -0.568  12.751  19.736  0.00  0.00    +0.000 A 
ATOM      8  C   UNL     1      -1.232  13.263  20.859  0.00  0.00    +0.000 A 
ATOM      9  C   UNL     1      -1.298  12.571  22.081  0.00  0.00    +0.000 A 
ATOM     10  C   UNL     1      -0.644  11.332  22.130  0.00  0.00    +0.000 A 
ATOM     11  C   UNL     1       0.016  10.804  21.014  0.00  0.00    +0.000 A 
ATOM     12  O   UNL     1       0.559   9.662  21.145  0.00  0.00    +0.000 OA
ATOM     13  C   UNL     1       1.154   9.149  20.134  0.00  0.00    +0.000 A 
ATOM     14  C   UNL     1       1.739   7.895  20.305  0.00  0.00    +0.000 A 
ENDROOT
BRANCH   9  15
ATOM     15  N   UNL     1      -1.969  13.089  23.169  0.00  0.00    +0.000 N 
ATOM     16  C   UNL     1      -3.238  12.522  23.662  0.00  0.00    +0.000 C 
ATOM     17  C   UNL     1      -4.330  13.585  23.617  0.00  0.00    +0.000 C 
ATOM     18  C   UNL     1      -3.909  14.843  24.377  0.00  0.00    +0.000 C 
ATOM     19  C   UNL     1      -2.548  15.349  23.903  0.00  0.00    +0.000 C 
ATOM     20  C   UNL     1      -1.488  14.245  23.934  0.00  0.00    +0.000 C 
ENDBRANCH   9  15
BRANCH   1  21
ATOM     21  N   UNL     1       3.096   6.004  19.476  0.00  0.00    +0.000 N 
BRANCH  21  22
ATOM     22  C   UNL     1       3.961   5.404  18.418  0.00  0.00    +0.000 C 
BRANCH  22  23
ATOM     23  C   UNL     1       5.139   4.607  18.988  0.00  0.00    +0.000 C 
BRANCH  23  24
ATOM     24  C   UNL     1       6.388   5.449  19.328  0.00  0.00    +0.000 C 
BRANCH  24  25
ATOM     25  C   UNL     1       7.369   5.375  18.148  0.00  0.00    +0.000 C 
BRANCH  25  27
ATOM     26  C   UNL     1       7.755   7.819  17.729  0.00  0.00    +0.000 C 
ATOM     27  C   UNL     1       7.241   6.511  17.133  0.00  0.00    +0.000 C 
ENDBRANCH  25  27
ENDBRANCH  24  25
ENDBRANCH  23  24
ENDBRANCH  22  23
ENDBRANCH  21  22
BRANCH  21  28
ATOM     28  C   UNL     1       2.619   5.165  20.604  0.00  0.00    +0.000 C 
BRANCH  28  29
ATOM     29  C   UNL     1       1.238   4.522  20.541  0.00  0.00    +0.000 C 
BRANCH  29  30
ATOM     30  C   UNL     1       1.173   3.000  20.693  0.00  0.00    +0.000 C 
BRANCH  30  31
ATOM     31  C   UNL     1       1.146   2.385  19.288  0.00  0.00    +0.000 C 
BRANCH  31  32
ATOM     32  C   UNL     1       2.498   1.853  18.831  0.00  0.00    +0.000 C 
ATOM     33  C   UNL     1       2.745   2.213  17.371  0.00  0.00    +0.000 C 
ENDBRANCH  31  32
ENDBRANCH  30  31
ENDBRANCH  29  30
ENDBRANCH  28  29
ENDBRANCH  21  28
ENDBRANCH   1  21
TORSDOF 12
ENDMDL
MODEL 3
REMARK VINA RESULT:      -7.7      1.107      1.316
REMARK  Name = 
REMARK  14 active torsions:
REMARK  status: ('A' for Active; 'I' for Inactive)
REMARK    1  A    between atoms: C_1  and  C_2
REMARK    2  A    between atoms: C_2  and  C_3
REMARK    3  A    between atoms: C_3  and  C_4
REMARK    4  A    between atoms: C_4  and  C_5
REMARK    5  A    between atoms: C_5  and  C_6
REMARK    6  A    between atoms: C_6  and  N_7
REMARK    7  A    between atoms: N_7  and  C_8
REMARK    8  A    between atoms: N_7  and  C_14
REMARK    9  A    between atoms: C_8  and  C_9
REMARK   10  A    between atoms: C_9  and  C_10
REMARK   11  A    between atoms: C_10  and  C_11
REMARK   12  A    between atoms: C_11  and  C_12
REMARK   13  A    between atoms: C_12  and  C_13
REMARK   14  A    between atoms: C_22  and  N_23
REMARK                            x       y       z     vdW  Elec       q    Type
REMARK                         _______ _______ _______ _____ _____    ______ ____
ROOT
ATOM      1  C   UNL     1       2.150   7.490  19.230  0.00  0.00    +0.000 A 
ATOM      2  C   UNL     1       2.242   8.230  18.037  0.00  0.00    +0.000 A 
ATOM      3  C   UNL     1       1.743   9.538  17.905  0.00  0.00    +0.000 A 
ATOM      4  C   UNL     1       1.120  10.169  18.957  0.00  0.00    +0.000 A 
ATOM      5  N   UNL     1       0.652  11.417  18.830  0.00  0.00    +0.000 NA
ATOM      6  C   UNL     1       0.058  11.902  19.925  0.00  0.00    +0.000 A 
ATOM      7  C   UNL     1      -0.485  13.170  19.924  0.00  0.00    +0.000 A 
ATOM      8  C   UNL     1      -1.120  13.676  21.067  0.00  0.00    +0.000 A 
ATOM      9  C   UNL     1      -1.240  12.937  22.257  0.00  0.00    +0.000 A 
ATOM     10  C   UNL     1      -0.671  11.656  22.253  0.00  0.00    +0.000 A 
ATOM     11  C   UNL     1      -0.041  11.134  21.117  0.00  0.00    +0.000 A 
ATOM     12  O   UNL     1       0.423   9.953  21.199  0.00  0.00    +0.000 OA
ATOM     13  C   UNL     1       0.988   9.447  20.167  0.00  0.00    +0.000 A 
ATOM     14  C   UNL     1       1.486   8.149  20.284  0.00  0.00    +0.000 A 
ENDROOT
BRANCH   9  15
ATOM     15  N   UNL     1      -1.881  13.451  23.365  0.00  0.00    +0.000 N 
ATOM     16  C   UNL     1      -3.178  12.936  23.841  0.00  0.00    +0.000 C 
ATOM     17  C   UNL     1      -4.211  14.057  23.837  0.00  0.00    +0.000 C 
ATOM     18  C   UNL     1      -3.722  15.261  24.641  0.00  0.00    +0.000 C 
ATOM     19  C   UNL     1      -2.336  15.711  24.182  0.00  0.00    +0.000 C 
ATOM     20  C   UNL     1      -1.338  14.551  24.170  0.00  0.00    +0.000 C 
ENDBRANCH   9  15
BRANCH   1  21
ATOM     21  N   UNL     1       2.718   6.210  19.377  0.00  0.00    +0.000 N 
BRANCH  21  22
ATOM     22  C   UNL     1       2.402   5.352  20.558  0.00  0.00    +0.000 C 
BRANCH  22  23
ATOM     23  C   UNL     1       1.115   4.538  20.379  0.00  0.00    +0.000 C 
BRANCH  23  24
ATOM     24  C   UNL     1       1.313   3.007  20.359  0.00  0.00    +0.000 C 
BRANCH  24  25
ATOM     25  C   UNL     1       1.013   2.490  18.943  0.00  0.00    +0.000 C 
BRANCH  25  27
ATOM     26  C   UNL     1       3.306   1.657  18.356  0.00  0.00    +0.000 C 
ATOM     27  C   UNL     1       2.177   2.604  17.957  0.00  0.00    +0.000 C 
ENDBRANCH  25  27
ENDBRANCH  24  25
ENDBRANCH  23  24
ENDBRANCH  22  23
ENDBRANCH  21  22
BRANCH  21  28
ATOM     28  C   UNL     1       3.893   5.893  18.528  0.00  0.00    +0.000 C 
BRANCH  28  29
ATOM     29  C   UNL     1       4.973   4.951  19.048  0.00  0.00    +0.000 C 
BRANCH  29  30
ATOM     30  C   UNL     1       6.015   4.465  18.037  0.00  0.00    +0.000 C 
BRANCH  30  31
ATOM     31  C   UNL     1       5.309   4.266  16.690  0.00  0.00    +0.000 C 
BRANCH  31  32
ATOM     32  C   UNL     1       6.021   4.942  15.525  0.00  0.00    +0.000 C 
ATOM     33  C   UNL     1       6.228   3.954  14.383  0.00  0.00    +0.000 C 
ENDBRANCH  31  32
ENDBRANCH  30  31
ENDBRANCH  29  30
ENDBRANCH  28  29
ENDBRANCH  21  28
ENDBRANCH   1  21
TORSDOF 12
ENDMDL
MODEL 4
REMARK VINA RESULT:      -7.6      0.848      3.276
REMARK  Name = 
REMARK  14 active torsions:
REMARK  status: ('A' for Active; 'I' for Inactive)
REMARK    1  A    between atoms: C_1  and  C_2
REMARK    2  A    between atoms: C_2  and  C_3
REMARK    3  A    between atoms: C_3  and  C_4
REMARK    4  A    between atoms: C_4  and  C_5
REMARK    5  A    between atoms: C_5  and  C_6
REMARK    6  A    between atoms: C_6  and  N_7
REMARK    7  A    between atoms: N_7  and  C_8
REMARK    8  A    between atoms: N_7  and  C_14
REMARK    9  A    between atoms: C_8  and  C_9
REMARK   10  A    between atoms: C_9  and  C_10
REMARK   11  A    between atoms: C_10  and  C_11
REMARK   12  A    between atoms: C_11  and  C_12
REMARK   13  A    between atoms: C_12  and  C_13
REMARK   14  A    between atoms: C_22  and  N_23
REMARK                            x       y       z     vdW  Elec       q    Type
REMARK                         _______ _______ _______ _____ _____    ______ ____
ROOT
ATOM      1  C   UNL     1       2.275   7.302  19.390  0.00  0.00    +0.000 A 
ATOM      2  C   UNL     1       2.190   7.915  18.127  0.00  0.00    +0.000 A 
ATOM      3  C   UNL     1       1.541   9.144  17.912  0.00  0.00    +0.000 A 
ATOM      4  C   UNL     1       0.937   9.818  18.948  0.00  0.00    +0.000 A 
ATOM      5  N   UNL     1       0.325  10.990  18.742  0.00  0.00    +0.000 NA
ATOM      6  C   UNL     1      -0.231  11.527  19.832  0.00  0.00    +0.000 A 
ATOM      7  C   UNL     1      -0.910  12.727  19.755  0.00  0.00    +0.000 A 
ATOM      8  C   UNL     1      -1.505  13.285  20.895  0.00  0.00    +0.000 A 
ATOM      9  C   UNL     1      -1.448  12.670  22.158  0.00  0.00    +0.000 A 
ATOM     10  C   UNL     1      -0.743  11.460  22.229  0.00  0.00    +0.000 A 
ATOM     11  C   UNL     1      -0.151  10.886  21.098  0.00  0.00    +0.000 A 
ATOM     12  O   UNL     1       0.446   9.775  21.254  0.00  0.00    +0.000 OA
ATOM     13  C   UNL     1       0.980   9.220  20.231  0.00  0.00    +0.000 A 
ATOM     14  C   UNL     1       1.627   8.000  20.430  0.00  0.00    +0.000 A 
ENDROOT
BRANCH   9  15
ATOM     15  N   UNL     1      -2.053  13.232  23.263  0.00  0.00    +0.000 N 
ATOM     16  C   UNL     1      -3.335  12.741  23.801  0.00  0.00    +0.000 C 
ATOM     17  C   UNL     1      -4.366  13.864  23.783  0.00  0.00    +0.000 C 
ATOM     18  C   UNL     1      -3.850  15.100  24.519  0.00  0.00    +0.000 C 
ATOM     19  C   UNL     1      -2.479  15.526  23.997  0.00  0.00    +0.000 C 
ATOM     20  C   UNL     1      -1.483  14.363  24.003  0.00  0.00    +0.000 C 
ENDBRANCH   9  15
BRANCH   1  21
ATOM     21  N   UNL     1       2.990   6.110  19.611  0.00  0.00    +0.000 N 
BRANCH  21  22
ATOM     22  C   UNL     1       4.049   5.653  18.663  0.00  0.00    +0.000 C 
BRANCH  22  23
ATOM     23  C   UNL     1       5.199   4.917  19.359  0.00  0.00    +0.000 C 
BRANCH  23  24
ATOM     24  C   UNL     1       6.611   5.327  18.889  0.00  0.00    +0.000 C 
BRANCH  24  25
ATOM     25  C   UNL     1       6.557   5.642  17.386  0.00  0.00    +0.000 C 
BRANCH  25  27
ATOM     26  C   UNL     1       5.851   3.936  15.687  0.00  0.00    +0.000 C 
ATOM     27  C   UNL     1       7.027   4.508  16.474  0.00  0.00    +0.000 C 
ENDBRANCH  25  27
ENDBRANCH  24  25
ENDBRANCH  23  24
ENDBRANCH  22  23
ENDBRANCH  21  22
BRANCH  21  28
ATOM     28  C   UNL     1       2.423   5.158  20.598  0.00  0.00    +0.000 C 
BRANCH  28  29
ATOM     29  C   UNL     1       1.288   4.226  20.188  0.00  0.00    +0.000 C 
BRANCH  29  30
ATOM     30  C   UNL     1       1.145   3.923  18.693  0.00  0.00    +0.000 C 
BRANCH  30  31
ATOM     31  C   UNL     1       1.466   2.438  18.480  0.00  0.00    +0.000 C 
BRANCH  31  32
ATOM     32  C   UNL     1       2.740   2.201  17.679  0.00  0.00    +0.000 C 
ATOM     33  C   UNL     1       3.771   1.466  18.528  0.00  0.00    +0.000 C 
ENDBRANCH  31  32
ENDBRANCH  30  31
ENDBRANCH  29  30
ENDBRANCH  28  29
ENDBRANCH  21  28
ENDBRANCH   1  21
TORSDOF 12
ENDMDL
MODEL 5
REMARK VINA RESULT:      -7.6      2.354      3.613
REMARK  Name = 
REMARK  14 active torsions:
REMARK  status: ('A' for Active; 'I' for Inactive)
REMARK    1  A    between atoms: C_1  and  C_2
REMARK    2  A    between atoms: C_2  and  C_3
REMARK    3  A    between atoms: C_3  and  C_4
REMARK    4  A    between atoms: C_4  and  C_5
REMARK    5  A    between atoms: C_5  and  C_6
REMARK    6  A    between atoms: C_6  and  N_7
REMARK    7  A    between atoms: N_7  and  C_8
REMARK    8  A    between atoms: N_7  and  C_14
REMARK    9  A    between atoms: C_8  and  C_9
REMARK   10  A    between atoms: C_9  and  C_10
REMARK   11  A    between atoms: C_10  and  C_11
REMARK   12  A    between atoms: C_11  and  C_12
REMARK   13  A    between atoms: C_12  and  C_13
REMARK   14  A    between atoms: C_22  and  N_23
REMARK                            x       y       z     vdW  Elec       q    Type
REMARK                         _______ _______ _______ _____ _____    ______ ____
ROOT
ATOM      1  C   UNL     1       3.191   6.349  18.481  0.00  0.00    +0.000 A 
ATOM      2  C   UNL     1       2.862   5.801  19.734  0.00  0.00    +0.000 A 
ATOM      3  C   UNL     1       2.063   6.470  20.679  0.00  0.00    +0.000 A 
ATOM      4  C   UNL     1       1.559   7.724  20.420  0.00  0.00    +0.000 A 
ATOM      5  N   UNL     1       0.794   8.356  21.318  0.00  0.00    +0.000 NA
ATOM      6  C   UNL     1       0.384   9.571  20.943  0.00  0.00    +0.000 A 
ATOM      7  C   UNL     1      -0.396  10.339  21.784  0.00  0.00    +0.000 A 
ATOM      8  C   UNL     1      -0.815  11.620  21.398  0.00  0.00    +0.000 A 
ATOM      9  C   UNL     1      -0.473  12.188  20.159  0.00  0.00    +0.000 A 
ATOM     10  C   UNL     1       0.307  11.394  19.305  0.00  0.00    +0.000 A 
ATOM     11  C   UNL     1       0.740  10.117  19.680  0.00  0.00    +0.000 A 
ATOM     12  O   UNL     1       1.464   9.481  18.851  0.00  0.00    +0.000 OA
ATOM     13  C   UNL     1       1.888   8.319  19.178  0.00  0.00    +0.000 A 
ATOM     14  C   UNL     1       2.683   7.644  18.251  0.00  0.00    +0.000 A 
ENDROOT
BRANCH   9  15
ATOM     15  N   UNL     1      -0.886  13.456  19.806  0.00  0.00    +0.000 N 
ATOM     16  C   UNL     1      -0.357  14.164  18.626  0.00  0.00    +0.000 C 
ATOM     17  C   UNL     1       0.297  15.471  19.060  0.00  0.00    +0.000 C 
ATOM     18  C   UNL     1      -0.669  16.327  19.879  0.00  0.00    +0.000 C 
ATOM     19  C   UNL     1      -1.268  15.534  21.039  0.00  0.00    +0.000 C 
ATOM     20  C   UNL     1      -1.886  14.215  20.566  0.00  0.00    +0.000 C 
ENDBRANCH   9  15
BRANCH   1  21
ATOM     21  N   UNL     1       3.929   5.643  17.512  0.00  0.00    +0.000 N 
BRANCH  21  22
ATOM     22  C   UNL     1       4.032   4.154  17.548  0.00  0.00    +0.000 C 
BRANCH  22  23
ATOM     23  C   UNL     1       2.788   3.453  16.992  0.00  0.00    +0.000 C 
BRANCH  23  24
ATOM     24  C   UNL     1       2.406   2.142  17.712  0.00  0.00    +0.000 C 
BRANCH  24  25
ATOM     25  C   UNL     1       1.483   2.479  18.893  0.00  0.00    +0.000 C 
BRANCH  25  27
ATOM     26  C   UNL     1       1.243   2.874  21.360  0.00  0.00    +0.000 C 
ATOM     27  C   UNL     1       2.079   2.202  20.274  0.00  0.00    +0.000 C 
ENDBRANCH  25  27
ENDBRANCH  24  25
ENDBRANCH  23  24
ENDBRANCH  22  23
ENDBRANCH  21  22
BRANCH  21  28
ATOM     28  C   UNL     1       4.877   6.429  16.683  0.00  0.00    +0.000 C 
BRANCH  28  29
ATOM     29  C   UNL     1       5.351   5.878  15.343  0.00  0.00    +0.000 C 
BRANCH  29  30
ATOM     30  C   UNL     1       6.683   5.124  15.335  0.00  0.00    +0.000 C 
BRANCH  30  31
ATOM     31  C   UNL     1       6.533   3.910  14.409  0.00  0.00    +0.000 C 
BRANCH  31  32
ATOM     32  C   UNL     1       5.380   4.037  13.422  0.00  0.00    +0.000 C 
ATOM     33  C   UNL     1       5.620   3.149  12.207  0.00  0.00    +0.000 C 
ENDBRANCH  31  32
ENDBRANCH  30  31
ENDBRANCH  29  30
ENDBRANCH  28  29
ENDBRANCH  21  28
ENDBRANCH   1  21
TORSDOF 12
ENDMDL
MODEL 6
REMARK VINA RESULT:      -7.6      1.961      3.240
REMARK  Name = 
REMARK  14 active torsions:
REMARK  status: ('A' for Active; 'I' for Inactive)
REMARK    1  A    between atoms: C_1  and  C_2
REMARK    2  A    between atoms: C_2  and  C_3
REMARK    3  A    between atoms: C_3  and  C_4
REMARK    4  A    between atoms: C_4  and  C_5
REMARK    5  A    between atoms: C_5  and  C_6
REMARK    6  A    between atoms: C_6  and  N_7
REMARK    7  A    between atoms: N_7  and  C_8
REMARK    8  A    between atoms: N_7  and  C_14
REMARK    9  A    between atoms: C_8  and  C_9
REMARK   10  A    between atoms: C_9  and  C_10
REMARK   11  A    between atoms: C_10  and  C_11
REMARK   12  A    between atoms: C_11  and  C_12
REMARK   13  A    between atoms: C_12  and  C_13
REMARK   14  A    between atoms: C_22  and  N_23
REMARK                            x       y       z     vdW  Elec       q    Type
REMARK                         _______ _______ _______ _____ _____    ______ ____
ROOT
ATOM      1  C   UNL     1       3.396   6.171  18.213  0.00  0.00    +0.000 A 
ATOM      2  C   UNL     1       3.225   5.659  19.512  0.00  0.00    +0.000 A 
ATOM      3  C   UNL     1       2.488   6.324  20.509  0.00  0.00    +0.000 A 
ATOM      4  C   UNL     1       1.891   7.538  20.257  0.00  0.00    +0.000 A 
ATOM      5  N   UNL     1       1.184   8.166  21.205  0.00  0.00    +0.000 NA
ATOM      6  C   UNL     1       0.671   9.341  20.830  0.00  0.00    +0.000 A 
ATOM      7  C   UNL     1      -0.064  10.101  21.717  0.00  0.00    +0.000 A 
ATOM      8  C   UNL     1      -0.591  11.341  21.329  0.00  0.00    +0.000 A 
ATOM      9  C   UNL     1      -0.407  11.874  20.042  0.00  0.00    +0.000 A 
ATOM     10  C   UNL     1       0.327  11.087  19.143  0.00  0.00    +0.000 A 
ATOM     11  C   UNL     1       0.868   9.851  19.518  0.00  0.00    +0.000 A 
ATOM     12  O   UNL     1       1.541   9.220  18.643  0.00  0.00    +0.000 OA
ATOM     13  C   UNL     1       2.060   8.096  18.967  0.00  0.00    +0.000 A 
ATOM     14  C   UNL     1       2.795   7.426  17.989  0.00  0.00    +0.000 A 
ENDROOT
BRANCH   9  15
ATOM     15  N   UNL     1      -0.924  13.102  19.688  0.00  0.00    +0.000 N 
ATOM     16  C   UNL     1      -0.426  13.869  18.531  0.00  0.00    +0.000 C 
ATOM     17  C   UNL     1       0.091  15.226  18.996  0.00  0.00    +0.000 C 
ATOM     18  C   UNL     1      -0.975  15.980  19.792  0.00  0.00    +0.000 C 
ATOM     19  C   UNL     1      -1.533  15.122  20.925  0.00  0.00    +0.000 C 
ATOM     20  C   UNL     1      -2.012  13.758  20.422  0.00  0.00    +0.000 C 
ENDBRANCH   9  15
BRANCH   1  21
ATOM     21  N   UNL     1       4.072   5.464  17.200  0.00  0.00    +0.000 N 
BRANCH  21  22
ATOM     22  C   UNL     1       4.063   3.972  17.156  0.00  0.00    +0.000 C 
BRANCH  22  23
ATOM     23  C   UNL     1       2.648   3.382  17.150  0.00  0.00    +0.000 C 
BRANCH  23  24
ATOM     24  C   UNL     1       2.393   2.296  18.217  0.00  0.00    +0.000 C 
BRANCH  24  25
ATOM     25  C   UNL     1       0.939   2.412  18.700  0.00  0.00    +0.000 C 
BRANCH  25  27
ATOM     26  C   UNL     1       1.639   2.579  21.104  0.00  0.00    +0.000 C 
ATOM     27  C   UNL     1       0.756   3.176  20.012  0.00  0.00    +0.000 C 
ENDBRANCH  25  27
ENDBRANCH  24  25
ENDBRANCH  23  24
ENDBRANCH  22  23
ENDBRANCH  21  22
BRANCH  21  28
ATOM     28  C   UNL     1       5.072   6.220  16.406  0.00  0.00    +0.000 C 
BRANCH  28  29
ATOM     29  C   UNL     1       5.907   7.307  17.073  0.00  0.00    +0.000 C 
BRANCH  29  30
ATOM     30  C   UNL     1       7.429   7.157  16.999  0.00  0.00    +0.000 C 
BRANCH  30  31
ATOM     31  C   UNL     1       7.958   6.991  18.431  0.00  0.00    +0.000 C 
BRANCH  31  32
ATOM     32  C   UNL     1       7.614   5.644  19.053  0.00  0.00    +0.000 C 
ATOM     33  C   UNL     1       7.847   4.520  18.050  0.00  0.00    +0.000 C 
ENDBRANCH  31  32
ENDBRANCH  30  31
ENDBRANCH  29  30
ENDBRANCH  28  29
ENDBRANCH  21  28
ENDBRANCH   1  21
TORSDOF 12
ENDMDL
MODEL 7
REMARK VINA RESULT:      -7.5      0.890      3.710
REMARK  Name = 
REMARK  14 active torsions:
REMARK  status: ('A' for Active; 'I' for Inactive)
REMARK    1  A    between atoms: C_1  and  C_2
REMARK    2  A    between atoms: C_2  and  C_3
REMARK    3  A    between atoms: C_3  and  C_4
REMARK    4  A    between atoms: C_4  and  C_5
REMARK    5  A    between atoms: C_5  and  C_6
REMARK    6  A    between atoms: C_6  and  N_7
REMARK    7  A    between atoms: N_7  and  C_8
REMARK    8  A    between atoms: N_7  and  C_14
REMARK    9  A    between atoms: C_8  and  C_9
REMARK   10  A    between atoms: C_9  and  C_10
REMARK   11  A    between atoms: C_10  and  C_11
REMARK   12  A    between atoms: C_11  and  C_12
REMARK   13  A    between atoms: C_12  and  C_13
REMARK   14  A    between atoms: C_22  and  N_23
REMARK                            x       y       z     vdW  Elec       q    Type
REMARK                         _______ _______ _______ _____ _____    ______ ____
ROOT
ATOM      1  C   UNL     1       2.263   7.400  19.438  0.00  0.00    +0.000 A 
ATOM      2  C   UNL     1       2.520   8.030  18.207  0.00  0.00    +0.000 A 
ATOM      3  C   UNL     1       1.986   9.284  17.860  0.00  0.00    +0.000 A 
ATOM      4  C   UNL     1       1.161   9.967  18.724  0.00  0.00    +0.000 A 
ATOM      5  N   UNL     1       0.659  11.163  18.394  0.00  0.00    +0.000 NA
ATOM      6  C   UNL     1      -0.137  11.707  19.320  0.00  0.00    +0.000 A 
ATOM      7  C   UNL     1      -0.736  12.930  19.099  0.00  0.00    +0.000 A 
ATOM      8  C   UNL     1      -1.581  13.496  20.063  0.00  0.00    +0.000 A 
ATOM      9  C   UNL     1      -1.865  12.866  21.287  0.00  0.00    +0.000 A 
ATOM     10  C   UNL     1      -1.239  11.631  21.509  0.00  0.00    +0.000 A 
ATOM     11  C   UNL     1      -0.399  11.048  20.552  0.00  0.00    +0.000 A 
ATOM     12  O   UNL     1       0.103   9.915  20.831  0.00  0.00    +0.000 OA
ATOM     13  C   UNL     1       0.860   9.353  19.964  0.00  0.00    +0.000 A 
ATOM     14  C   UNL     1       1.397   8.109  20.295  0.00  0.00    +0.000 A 
ENDROOT
BRANCH   9  15
ATOM     15  N   UNL     1      -2.711  13.436  22.215  0.00  0.00    +0.000 N 
ATOM     16  C   UNL     1      -2.442  14.748  22.832  0.00  0.00    +0.000 C 
ATOM     17  C   UNL     1      -2.344  14.595  24.346  0.00  0.00    +0.000 C 
ATOM     18  C   UNL     1      -3.591  13.918  24.914  0.00  0.00    +0.000 C 
ATOM     19  C   UNL     1      -3.892  12.607  24.189  0.00  0.00    +0.000 C 
ATOM     20  C   UNL     1      -3.950  12.798  22.672  0.00  0.00    +0.000 C 
ENDBRANCH   9  15
BRANCH   1  21
ATOM     21  N   UNL     1       2.861   6.180  19.808  0.00  0.00    +0.000 N 
BRANCH  21  22
ATOM     22  C   UNL     1       4.047   5.644  19.076  0.00  0.00    +0.000 C 
BRANCH  22  23
ATOM     23  C   UNL     1       3.765   5.378  17.593  0.00  0.00    +0.000 C 
BRANCH  23  24
ATOM     24  C   UNL     1       5.016   5.077  16.739  0.00  0.00    +0.000 C 
BRANCH  24  25
ATOM     25  C   UNL     1       5.807   6.380  16.547  0.00  0.00    +0.000 C 
BRANCH  25  27
ATOM     26  C   UNL     1       7.627   7.767  17.576  0.00  0.00    +0.000 C 
ATOM     27  C   UNL     1       7.221   6.365  17.129  0.00  0.00    +0.000 C 
ENDBRANCH  25  27
ENDBRANCH  24  25
ENDBRANCH  23  24
ENDBRANCH  22  23
ENDBRANCH  21  22
BRANCH  21  28
ATOM     28  C   UNL     1       2.075   5.286  20.694  0.00  0.00    +0.000 C 
BRANCH  28  29
ATOM     29  C   UNL     1       1.035   4.347  20.094  0.00  0.00    +0.000 C 
BRANCH  29  30
ATOM     30  C   UNL     1       1.181   2.856  20.411  0.00  0.00    +0.000 C 
BRANCH  30  31
ATOM     31  C   UNL     1       1.042   2.078  19.096  0.00  0.00    +0.000 C 
BRANCH  31  32
ATOM     32  C   UNL     1       2.072   2.472  18.045  0.00  0.00    +0.000 C 
ATOM     33  C   UNL     1       3.372   1.707  18.262  0.00  0.00    +0.000 C 
ENDBRANCH  31  32
ENDBRANCH  30  31
ENDBRANCH  29  30
ENDBRANCH  28  29
ENDBRANCH  21  28
ENDBRANCH   1  21
TORSDOF 12
ENDMDL
MODEL 8
REMARK VINA RESULT:      -7.5      1.148      1.449
REMARK  Name = 
REMARK  14 active torsions:
REMARK  status: ('A' for Active; 'I' for Inactive)
REMARK    1  A    between atoms: C_1  and  C_2
REMARK    2  A    between atoms: C_2  and  C_3
REMARK    3  A    between atoms: C_3  and  C_4
REMARK    4  A    between atoms: C_4  and  C_5
REMARK    5  A    between atoms: C_5  and  C_6
REMARK    6  A    between atoms: C_6  and  N_7
REMARK    7  A    between atoms: N_7  and  C_8
REMARK    8  A    between atoms: N_7  and  C_14
REMARK    9  A    between atoms: C_8  and  C_9
REMARK   10  A    between atoms: C_9  and  C_10
REMARK   11  A    between atoms: C_10  and  C_11
REMARK   12  A    between atoms: C_11  and  C_12
REMARK   13  A    between atoms: C_12  and  C_13
REMARK   14  A    between atoms: C_22  and  N_23
REMARK                            x       y       z     vdW  Elec       q    Type
REMARK                         _______ _______ _______ _____ _____    ______ ____
ROOT
ATOM      1  C   UNL     1       3.171   5.972  18.951  0.00  0.00    +0.000 A 
ATOM      2  C   UNL     1       3.291   6.595  17.696  0.00  0.00    +0.000 A 
ATOM      3  C   UNL     1       2.794   7.883  17.426  0.00  0.00    +0.000 A 
ATOM      4  C   UNL     1       2.145   8.609  18.398  0.00  0.00    +0.000 A 
ATOM      5  N   UNL     1       1.678   9.838  18.141  0.00  0.00    +0.000 NA
ATOM      6  C   UNL     1       1.058  10.423  19.169  0.00  0.00    +0.000 A 
ATOM      7  C   UNL     1       0.513  11.684  19.034  0.00  0.00    +0.000 A 
ATOM      8  C   UNL     1      -0.150  12.294  20.107  0.00  0.00    +0.000 A 
ATOM      9  C   UNL     1      -0.298  11.673  21.359  0.00  0.00    +0.000 A 
ATOM     10  C   UNL     1       0.273  10.399  21.492  0.00  0.00    +0.000 A 
ATOM     11  C   UNL     1       0.930   9.773  20.426  0.00  0.00    +0.000 A 
ATOM     12  O   UNL     1       1.394   8.607  20.633  0.00  0.00    +0.000 OA
ATOM     13  C   UNL     1       1.984   8.006  19.668  0.00  0.00    +0.000 A 
ATOM     14  C   UNL     1       2.481   6.728  19.921  0.00  0.00    +0.000 A 
ENDROOT
BRANCH   9  15
ATOM     15  N   UNL     1      -0.967  12.288  22.397  0.00  0.00    +0.000 N 
ATOM     16  C   UNL     1      -1.965  11.587  23.224  0.00  0.00    +0.000 C 
ATOM     17  C   UNL     1      -3.310  12.300  23.124  0.00  0.00    +0.000 C 
ATOM     18  C   UNL     1      -3.178  13.780  23.484  0.00  0.00    +0.000 C 
ATOM     19  C   UNL     1      -2.072  14.453  22.674  0.00  0.00    +0.000 C 
ATOM     20  C   UNL     1      -0.749  13.689  22.774  0.00  0.00    +0.000 C 
ENDBRANCH   9  15
BRANCH   1  21
ATOM     21  N   UNL     1       3.736   4.714  19.234  0.00  0.00    +0.000 N 
BRANCH  21  22
ATOM     22  C   UNL     1       3.728   4.153  20.618  0.00  0.00    +0.000 C 
BRANCH  22  23
ATOM     23  C   UNL     1       3.081   2.766  20.697  0.00  0.00    +0.000 C 
BRANCH  23  24
ATOM     24  C   UNL     1       1.652   2.750  21.281  0.00  0.00    +0.000 C 
BRANCH  24  25
ATOM     25  C   UNL     1       0.674   3.251  20.207  0.00  0.00    +0.000 C 
BRANCH  25  27
ATOM     26  C   UNL     1       1.029   3.574  17.744  0.00  0.00    +0.000 C 
ATOM     27  C   UNL     1       0.794   2.551  18.853  0.00  0.00    +0.000 C 
ENDBRANCH  25  27
ENDBRANCH  24  25
ENDBRANCH  23  24
ENDBRANCH  22  23
ENDBRANCH  21  22
BRANCH  21  28
ATOM     28  C   UNL     1       4.642   4.138  18.209  0.00  0.00    +0.000 C 
BRANCH  28  29
ATOM     29  C   UNL     1       6.083   4.625  18.110  0.00  0.00    +0.000 C 
BRANCH  29  30
ATOM     30  C   UNL     1       6.612   5.470  19.272  0.00  0.00    +0.000 C 
BRANCH  30  31
ATOM     31  C   UNL     1       7.805   6.286  18.758  0.00  0.00    +0.000 C 
BRANCH  31  32
ATOM     32  C   UNL     1       7.472   7.159  17.556  0.00  0.00    +0.000 C 
ATOM     33  C   UNL     1       7.958   8.585  17.784  0.00  0.00    +0.000 C 
ENDBRANCH  31  32
ENDBRANCH  30  31
ENDBRANCH  29  30
ENDBRANCH  28  29
ENDBRANCH  21  28
ENDBRANCH   1  21
TORSDOF 12
ENDMDL
MODEL 9
REMARK VINA RESULT:      -7.5      1.090      3.954
REMARK  Name = 
REMARK  14 active torsions:
REMARK  status: ('A' for Active; 'I' for Inactive)
REMARK    1  A    between atoms: C_1  and  C_2
REMARK    2  A    between atoms: C_2  and  C_3
REMARK    3  A    between atoms: C_3  and  C_4
REMARK    4  A    between atoms: C_4  and  C_5
REMARK    5  A    between atoms: C_5  and  C_6
REMARK    6  A    between atoms: C_6  and  N_7
REMARK    7  A    between atoms: N_7  and  C_8
REMARK    8  A    between atoms: N_7  and  C_14
REMARK    9  A    between atoms: C_8  and  C_9
REMARK   10  A    between atoms: C_9  and  C_10
REMARK   11  A    between atoms: C_10  and  C_11
REMARK   12  A    between atoms: C_11  and  C_12
REMARK   13  A    between atoms: C_12  and  C_13
REMARK   14  A    between atoms: C_22  and  N_23
REMARK                            x       y       z     vdW  Elec       q    Type
REMARK                         _______ _______ _______ _____ _____    ______ ____
ROOT
ATOM      1  C   UNL     1       3.020   6.523  18.590  0.00  0.00    +0.000 A 
ATOM      2  C   UNL     1       3.111   7.280  17.408  0.00  0.00    +0.000 A 
ATOM      3  C   UNL     1       2.581   8.577  17.283  0.00  0.00    +0.000 A 
ATOM      4  C   UNL     1       1.926   9.178  18.333  0.00  0.00    +0.000 A 
ATOM      5  N   UNL     1       1.427  10.415  18.214  0.00  0.00    +0.000 NA
ATOM      6  C   UNL     1       0.804  10.871  19.305  0.00  0.00    +0.000 A 
ATOM      7  C   UNL     1       0.228  12.125  19.311  0.00  0.00    +0.000 A 
ATOM      8  C   UNL     1      -0.437  12.600  20.449  0.00  0.00    +0.000 A 
ATOM      9  C   UNL     1      -0.556  11.844  21.628  0.00  0.00    +0.000 A 
ATOM     10  C   UNL     1       0.046  10.578  21.618  0.00  0.00    +0.000 A 
ATOM     11  C   UNL     1       0.706  10.086  20.485  0.00  0.00    +0.000 A 
ATOM     12  O   UNL     1       1.199   8.917  20.561  0.00  0.00    +0.000 OA
ATOM     13  C   UNL     1       1.793   8.438  19.533  0.00  0.00    +0.000 A 
ATOM     14  C   UNL     1       2.323   7.152  19.642  0.00  0.00    +0.000 A 
ENDROOT
BRANCH   9  15
ATOM     15  N   UNL     1      -1.228  12.328  22.732  0.00  0.00    +0.000 N 
ATOM     16  C   UNL     1      -2.303  11.572  23.400  0.00  0.00    +0.000 C 
ATOM     17  C   UNL     1      -3.594  12.382  23.378  0.00  0.00    +0.000 C 
ATOM     18  C   UNL     1      -3.384  13.771  23.981  0.00  0.00    +0.000 C 
ATOM     19  C   UNL     1      -2.205  14.489  23.327  0.00  0.00    +0.000 C 
ATOM     20  C   UNL     1      -0.938  13.630  23.342  0.00  0.00    +0.000 C 
ENDBRANCH   9  15
BRANCH   1  21
ATOM     21  N   UNL     1       3.618   5.256  18.731  0.00  0.00    +0.000 N 
BRANCH  21  22
ATOM     22  C   UNL     1       5.028   5.112  19.202  0.00  0.00    +0.000 C 
BRANCH  22  23
ATOM     23  C   UNL     1       5.965   4.556  18.125  0.00  0.00    +0.000 C 
BRANCH  23  24
ATOM     24  C   UNL     1       7.467   4.804  18.382  0.00  0.00    +0.000 C 
BRANCH  24  25
ATOM     25  C   UNL     1       7.626   6.135  19.131  0.00  0.00    +0.000 C 
BRANCH  25  27
ATOM     26  C   UNL     1       7.033   7.886  17.434  0.00  0.00    +0.000 C 
ATOM     27  C   UNL     1       8.155   7.292  18.283  0.00  0.00    +0.000 C 
ENDBRANCH  25  27
ENDBRANCH  24  25
ENDBRANCH  23  24
ENDBRANCH  22  23
ENDBRANCH  21  22
BRANCH  21  28
ATOM     28  C   UNL     1       2.942   4.115  18.066  0.00  0.00    +0.000 C 
BRANCH  28  29
ATOM     29  C   UNL     1       1.419   4.035  18.058  0.00  0.00    +0.000 C 
BRANCH  29  30
ATOM     30  C   UNL     1       0.769   3.098  19.079  0.00  0.00    +0.000 C 
BRANCH  30  31
ATOM     31  C   UNL     1       0.864   3.763  20.459  0.00  0.00    +0.000 C 
BRANCH  31  32
ATOM     32  C   UNL     1       1.301   2.810  21.564  0.00  0.00    +0.000 C 
ATOM     33  C   UNL     1       2.809   2.600  21.520  0.00  0.00    +0.000 C 
ENDBRANCH  31  32
ENDBRANCH  30  31
ENDBRANCH  29  30
ENDBRANCH  28  29
ENDBRANCH  21  28
ENDBRANCH   1  21
TORSDOF 12
ENDMDL
