MODEL 1
REMARK VINA RESULT:      -7.5      0.000      0.000
REMARK  Name = 
REMARK  4 active torsions:
REMARK  status: ('A' for Active; 'I' for Inactive)
REMARK    1  A    between atoms: C_2  and  O_3
REMARK    2  A    between atoms: C_2  and  C_4
REMARK    3  A    between atoms: C_4  and  C_5
REMARK    4  A    between atoms: C_11  and  O_12
REMARK                            x       y       z     vdW  Elec       q    Type
REMARK                         _______ _______ _______ _____ _____    ______ ____
ROOT
ATOM      1  C   UNL     1       2.107   4.502  18.606  0.00  0.00    +0.000 A 
ATOM      2  C   UNL     1       1.721   4.500  19.951  0.00  0.00    +0.000 A 
ATOM      3  C   UNL     1       1.690   5.694  20.674  0.00  0.00    +0.000 A 
ATOM      4  C   UNL     1       2.016   6.896  20.046  0.00  0.00    +0.000 A 
ATOM      5  C   UNL     1       2.442   6.918  18.714  0.00  0.00    +0.000 A 
ATOM      6  C   UNL     1       2.497   5.711  18.007  0.00  0.00    +0.000 A 
ATOM      7  C   UNL     1       2.752   8.253  18.090  0.00  0.00    +0.000 C 
ATOM      8  C   UNL     1       1.454   9.060  17.955  0.00  0.00    +0.000 C 
ATOM      9  C   UNL     1       0.779   9.497  19.234  0.00  0.00    +0.000 A 
ATOM     10  C   UNL     1      -0.220  10.484  19.113  0.00  0.00    +0.000 A 
ATOM     11  C   UNL     1      -0.872  10.996  20.235  0.00  0.00    +0.000 A 
ATOM     12  C   UNL     1      -0.535  10.524  21.499  0.00  0.00    +0.000 A 
ATOM     13 CL   UNL     1      -1.310  11.178  22.889  0.00  0.00    +0.000 Cl
ATOM     14  C   UNL     1       0.428   9.531  21.642  0.00  0.00    +0.000 A 
ATOM     15  C   UNL     1       1.067   8.995  20.515  0.00  0.00    +0.000 A 
ATOM     16  O   UNL     1       2.018   8.040  20.808  0.00  0.00    +0.000 OA
ENDROOT
BRANCH   7  17
ATOM     17  O   UNL     1       3.360   8.101  16.804  0.00  0.00    +0.000 OA
ATOM     18  H   UNL     1       3.550   7.157  16.672  0.00  0.00    +0.000 HD
ENDBRANCH   7  17
BRANCH   1  19
ATOM     19  C   UNL     1       2.092   3.226  17.792  0.00  0.00    +0.000 C 
BRANCH  19  21
ATOM     20  O   UNL     1       3.337   1.283  18.495  0.00  0.00    +0.000 OA
ATOM     21  C   UNL     1       3.336   2.370  17.934  0.00  0.00    +0.000 C 
BRANCH  21  22
ATOM     22  O   UNL     1       4.450   2.856  17.338  0.00  0.00    +0.000 OA
ATOM     23  H   UNL     1       4.334   3.737  16.931  0.00  0.00    +0.000 HD
ENDBRANCH  21  22
ENDBRANCH  19  21
ENDBRANCH   1  19
TORSDOF 4
ENDMDL
MODEL 2
REMARK VINA RESULT:      -7.5      0.832      1.085
REMARK  Name = 
REMARK  4 active torsions:
REMARK  status: ('A' for Active; 'I' for Inactive)
REMARK    1  A    between atoms: C_2  and  O_3
REMARK    2  A    between atoms: C_2  and  C_4
REMARK    3  A    between atoms: C_4  and  C_5
REMARK    4  A    between atoms: C_11  and  O_12
REMARK                            x       y       z     vdW  Elec       q    Type
REMARK                         _______ _______ _______ _____ _____    ______ ____
ROOT
ATOM      1  C   UNL     1       2.078   4.737  18.589  0.00  0.00    +0.000 A 
ATOM      2  C   UNL     1       1.740   4.704  19.946  0.00  0.00    +0.000 A 
ATOM      3  C   UNL     1       1.702   5.887  20.688  0.00  0.00    +0.000 A 
ATOM      4  C   UNL     1       1.975   7.106  20.068  0.00  0.00    +0.000 A 
ATOM      5  C   UNL     1       2.354   7.159  18.723  0.00  0.00    +0.000 A 
ATOM      6  C   UNL     1       2.415   5.963  17.996  0.00  0.00    +0.000 A 
ATOM      7  C   UNL     1       2.607   8.511  18.109  0.00  0.00    +0.000 C 
ATOM      8  C   UNL     1       1.284   9.284  18.031  0.00  0.00    +0.000 C 
ATOM      9  C   UNL     1       0.642   9.685  19.339  0.00  0.00    +0.000 A 
ATOM     10  C   UNL     1      -0.386  10.646  19.268  0.00  0.00    +0.000 A 
ATOM     11  C   UNL     1      -1.012  11.124  20.419  0.00  0.00    +0.000 A 
ATOM     12  C   UNL     1      -0.619  10.643  21.663  0.00  0.00    +0.000 A 
ATOM     13 CL   UNL     1      -1.362  11.256  23.088  0.00  0.00    +0.000 Cl
ATOM     14  C   UNL     1       0.375   9.674  21.758  0.00  0.00    +0.000 A 
ATOM     15  C   UNL     1       0.988   9.172  20.602  0.00  0.00    +0.000 A 
ATOM     16  O   UNL     1       1.973   8.239  20.847  0.00  0.00    +0.000 OA
ENDROOT
BRANCH   7  17
ATOM     17  O   UNL     1       3.173   8.393  16.801  0.00  0.00    +0.000 OA
ATOM     18  H   UNL     1       3.919   9.012  16.739  0.00  0.00    +0.000 HD
ENDBRANCH   7  17
BRANCH   1  19
ATOM     19  C   UNL     1       2.069   3.472  17.757  0.00  0.00    +0.000 C 
BRANCH  19  21
ATOM     20  O   UNL     1       0.224   2.118  18.518  0.00  0.00    +0.000 OA
ATOM     21  C   UNL     1       1.434   2.272  18.434  0.00  0.00    +0.000 C 
BRANCH  21  22
ATOM     22  O   UNL     1       2.298   1.335  18.890  0.00  0.00    +0.000 OA
ATOM     23  H   UNL     1       2.872   0.950  18.199  0.00  0.00    +0.000 HD
ENDBRANCH  21  22
ENDBRANCH  19  21
ENDBRANCH   1  19
TORSDOF 4
ENDMDL
MODEL 3
REMARK VINA RESULT:      -7.3      1.090      1.282
REMARK  Name = 
REMARK  4 active torsions:
REMARK  status: ('A' for Active; 'I' for Inactive)
REMARK    1  A    between atoms: C_2  and  O_3
REMARK    2  A    between atoms: C_2  and  C_4
REMARK    3  A    between atoms: C_4  and  C_5
REMARK    4  A    between atoms: C_11  and  O_12
REMARK                            x       y       z     vdW  Elec       q    Type
REMARK                         _______ _______ _______ _____ _____    ______ ____
ROOT
ATOM      1  C   UNL     1       2.388   3.892  19.273  0.00  0.00    +0.000 A 
ATOM      2  C   UNL     1       1.709   4.200  20.457  0.00  0.00    +0.000 A 
ATOM      3  C   UNL     1       1.609   5.527  20.883  0.00  0.00    +0.000 A 
ATOM      4  C   UNL     1       2.164   6.548  20.113  0.00  0.00    +0.000 A 
ATOM      5  C   UNL     1       2.881   6.261  18.947  0.00  0.00    +0.000 A 
ATOM      6  C   UNL     1       2.998   4.925  18.543  0.00  0.00    +0.000 A 
ATOM      7  C   UNL     1       3.429   7.413  18.147  0.00  0.00    +0.000 C 
ATOM      8  C   UNL     1       2.264   8.205  17.540  0.00  0.00    +0.000 C 
ATOM      9  C   UNL     1       1.353   8.936  18.499  0.00  0.00    +0.000 A 
ATOM     10  C   UNL     1       0.489   9.897  17.938  0.00  0.00    +0.000 A 
ATOM     11  C   UNL     1      -0.358  10.665  18.739  0.00  0.00    +0.000 A 
ATOM     12  C   UNL     1      -0.354  10.478  20.116  0.00  0.00    +0.000 A 
ATOM     13 CL   UNL     1      -1.369  11.447  21.112  0.00  0.00    +0.000 Cl
ATOM     14  C   UNL     1       0.470   9.516  20.691  0.00  0.00    +0.000 A 
ATOM     15  C   UNL     1       1.303   8.724  19.888  0.00  0.00    +0.000 A 
ATOM     16  O   UNL     1       2.083   7.834  20.594  0.00  0.00    +0.000 OA
ENDROOT
BRANCH   7  17
ATOM     17  O   UNL     1       4.298   6.960  17.105  0.00  0.00    +0.000 OA
ATOM     18  H   UNL     1       5.174   6.798  17.493  0.00  0.00    +0.000 HD
ENDBRANCH   7  17
BRANCH   1  19
ATOM     19  C   UNL     1       2.457   2.467  18.767  0.00  0.00    +0.000 C 
BRANCH  19  21
ATOM     20  O   UNL     1       4.539   2.102  19.930  0.00  0.00    +0.000 OA
ATOM     21  C   UNL     1       3.770   1.759  19.042  0.00  0.00    +0.000 C 
BRANCH  21  22
ATOM     22  O   UNL     1       4.016   0.669  18.278  0.00  0.00    +0.000 OA
ATOM     23  H   UNL     1       4.262  -0.129  18.787  0.00  0.00    +0.000 HD
ENDBRANCH  21  22
ENDBRANCH  19  21
ENDBRANCH   1  19
TORSDOF 4
ENDMDL
MODEL 4
REMARK VINA RESULT:      -7.2      2.899      3.906
REMARK  Name = 
REMARK  4 active torsions:
REMARK  status: ('A' for Active; 'I' for Inactive)
REMARK    1  A    between atoms: C_2  and  O_3
REMARK    2  A    between atoms: C_2  and  C_4
REMARK    3  A    between atoms: C_4  and  C_5
REMARK    4  A    between atoms: C_11  and  O_12
REMARK                            x       y       z     vdW  Elec       q    Type
REMARK                         _______ _______ _______ _____ _____    ______ ____
ROOT
ATOM      1  C   UNL     1       5.331   5.726  18.408  0.00  0.00    +0.000 A 
ATOM      2  C   UNL     1       5.195   6.674  17.388  0.00  0.00    +0.000 A 
ATOM      3  C   UNL     1       4.001   7.386  17.247  0.00  0.00    +0.000 A 
ATOM      4  C   UNL     1       2.953   7.170  18.140  0.00  0.00    +0.000 A 
ATOM      5  C   UNL     1       3.051   6.199  19.143  0.00  0.00    +0.000 A 
ATOM      6  C   UNL     1       4.243   5.472  19.258  0.00  0.00    +0.000 A 
ATOM      7  C   UNL     1       1.892   6.037  20.091  0.00  0.00    +0.000 C 
ATOM      8  C   UNL     1       1.777   7.293  20.964  0.00  0.00    +0.000 C 
ATOM      9  C   UNL     1       1.396   8.582  20.272  0.00  0.00    +0.000 A 
ATOM     10  C   UNL     1       0.992   9.646  21.102  0.00  0.00    +0.000 A 
ATOM     11  C   UNL     1       0.572  10.864  20.565  0.00  0.00    +0.000 A 
ATOM     12  C   UNL     1       0.553  11.034  19.185  0.00  0.00    +0.000 A 
ATOM     13 CL   UNL     1       0.001  12.520  18.517  0.00  0.00    +0.000 Cl
ATOM     14  C   UNL     1       0.973  10.007  18.346  0.00  0.00    +0.000 A 
ATOM     15  C   UNL     1       1.421   8.792  18.882  0.00  0.00    +0.000 A 
ATOM     16  O   UNL     1       1.780   7.857  17.935  0.00  0.00    +0.000 OA
ENDROOT
BRANCH   7  17
ATOM     17  O   UNL     1       2.055   4.885  20.923  0.00  0.00    +0.000 OA
ATOM     18  H   UNL     1       2.044   4.098  20.353  0.00  0.00    +0.000 HD
ENDBRANCH   7  17
BRANCH   1  19
ATOM     19  C   UNL     1       6.636   4.987  18.611  0.00  0.00    +0.000 C 
BRANCH  19  21
ATOM     20  O   UNL     1       8.245   6.775  18.796  0.00  0.00    +0.000 OA
ATOM     21  C   UNL     1       7.720   5.793  19.302  0.00  0.00    +0.000 C 
BRANCH  21  22
ATOM     22  O   UNL     1       8.032   5.395  20.557  0.00  0.00    +0.000 OA
ATOM     23  H   UNL     1       7.388   4.774  20.952  0.00  0.00    +0.000 HD
ENDBRANCH  21  22
ENDBRANCH  19  21
ENDBRANCH   1  19
TORSDOF 4
ENDMDL
MODEL 5
REMARK VINA RESULT:      -6.8      2.387      3.455
REMARK  Name = 
REMARK  4 active torsions:
REMARK  status: ('A' for Active; 'I' for Inactive)
REMARK    1  A    between atoms: C_2  and  O_3
REMARK    2  A    between atoms: C_2  and  C_4
REMARK    3  A    between atoms: C_4  and  C_5
REMARK    4  A    between atoms: C_11  and  O_12
REMARK                            x       y       z     vdW  Elec       q    Type
REMARK                         _______ _______ _______ _____ _____    ______ ____
ROOT
ATOM      1  C   UNL     1       5.116   5.752  18.413  0.00  0.00    +0.000 A 
ATOM      2  C   UNL     1       5.042   6.739  17.425  0.00  0.00    +0.000 A 
ATOM      3  C   UNL     1       3.889   7.517  17.296  0.00  0.00    +0.000 A 
ATOM      4  C   UNL     1       2.821   7.328  18.172  0.00  0.00    +0.000 A 
ATOM      5  C   UNL     1       2.857   6.321  19.142  0.00  0.00    +0.000 A 
ATOM      6  C   UNL     1       4.007   5.528  19.244  0.00  0.00    +0.000 A 
ATOM      7  C   UNL     1       1.681   6.190  20.073  0.00  0.00    +0.000 C 
ATOM      8  C   UNL     1       1.622   7.421  20.987  0.00  0.00    +0.000 C 
ATOM      9  C   UNL     1       1.318   8.750  20.335  0.00  0.00    +0.000 A 
ATOM     10  C   UNL     1       0.962   9.807  21.196  0.00  0.00    +0.000 A 
ATOM     11  C   UNL     1       0.612  11.062  20.696  0.00  0.00    +0.000 A 
ATOM     12  C   UNL     1       0.618  11.278  19.323  0.00  0.00    +0.000 A 
ATOM     13 CL   UNL     1       0.153  12.813  18.699  0.00  0.00    +0.000 Cl
ATOM     14  C   UNL     1       0.993  10.259  18.453  0.00  0.00    +0.000 A 
ATOM     15  C   UNL     1       1.370   9.004  18.953  0.00  0.00    +0.000 A 
ATOM     16  O   UNL     1       1.689   8.083  17.978  0.00  0.00    +0.000 OA
ENDROOT
BRANCH   7  17
ATOM     17  O   UNL     1       1.773   5.005  20.868  0.00  0.00    +0.000 OA
ATOM     18  H   UNL     1       1.834   5.272  21.801  0.00  0.00    +0.000 HD
ENDBRANCH   7  17
BRANCH   1  19
ATOM     19  C   UNL     1       6.378   4.938  18.604  0.00  0.00    +0.000 C 
BRANCH  19  21
ATOM     20  O   UNL     1       8.127   4.401  17.031  0.00  0.00    +0.000 OA
ATOM     21  C   UNL     1       6.943   4.336  17.331  0.00  0.00    +0.000 C 
BRANCH  21  22
ATOM     22  O   UNL     1       6.058   3.657  16.565  0.00  0.00    +0.000 OA
ATOM     23  H   UNL     1       5.125   3.903  16.717  0.00  0.00    +0.000 HD
ENDBRANCH  21  22
ENDBRANCH  19  21
ENDBRANCH   1  19
TORSDOF 4
ENDMDL
MODEL 6
REMARK VINA RESULT:      -6.8      2.386      3.546
REMARK  Name = 
REMARK  4 active torsions:
REMARK  status: ('A' for Active; 'I' for Inactive)
REMARK    1  A    between atoms: C_2  and  O_3
REMARK    2  A    between atoms: C_2  and  C_4
REMARK    3  A    between atoms: C_4  and  C_5
REMARK    4  A    between atoms: C_11  and  O_12
REMARK                            x       y       z     vdW  Elec       q    Type
REMARK                         _______ _______ _______ _____ _____    ______ ____
ROOT
ATOM      1  C   UNL     1       5.257   5.554  17.660  0.00  0.00    +0.000 A 
ATOM      2  C   UNL     1       5.159   6.794  17.021  0.00  0.00    +0.000 A 
ATOM      3  C   UNL     1       4.009   7.572  17.171  0.00  0.00    +0.000 A 
ATOM      4  C   UNL     1       2.967   7.124  17.982  0.00  0.00    +0.000 A 
ATOM      5  C   UNL     1       3.026   5.871  18.600  0.00  0.00    +0.000 A 
ATOM      6  C   UNL     1       4.173   5.087  18.420  0.00  0.00    +0.000 A 
ATOM      7  C   UNL     1       1.879   5.460  19.486  0.00  0.00    +0.000 C 
ATOM      8  C   UNL     1       1.859   6.356  20.731  0.00  0.00    +0.000 C 
ATOM      9  C   UNL     1       1.544   7.820  20.522  0.00  0.00    +0.000 A 
ATOM     10  C   UNL     1       1.223   8.565  21.674  0.00  0.00    +0.000 A 
ATOM     11  C   UNL     1       0.868   9.912  21.590  0.00  0.00    +0.000 A 
ATOM     12  C   UNL     1       0.831  10.534  20.347  0.00  0.00    +0.000 A 
ATOM     13 CL   UNL     1       0.359  12.184  20.233  0.00  0.00    +0.000 Cl
ATOM     14  C   UNL     1       1.171   9.827  19.198  0.00  0.00    +0.000 A 
ATOM     15  C   UNL     1       1.554   8.481  19.282  0.00  0.00    +0.000 A 
ATOM     16  O   UNL     1       1.835   7.900  18.064  0.00  0.00    +0.000 OA
ENDROOT
BRANCH   7  17
ATOM     17  O   UNL     1       1.988   4.090  19.881  0.00  0.00    +0.000 OA
ATOM     18  H   UNL     1       1.410   3.564  19.303  0.00  0.00    +0.000 HD
ENDBRANCH   7  17
BRANCH   1  19
ATOM     19  C   UNL     1       6.519   4.724  17.554  0.00  0.00    +0.000 C 
BRANCH  19  21
ATOM     20  O   UNL     1       7.747   4.840  15.481  0.00  0.00    +0.000 OA
ATOM     21  C   UNL     1       6.877   4.293  16.145  0.00  0.00    +0.000 C 
BRANCH  21  22
ATOM     22  O   UNL     1       6.213   3.208  15.680  0.00  0.00    +0.000 OA
ATOM     23  H   UNL     1       5.569   2.832  16.312  0.00  0.00    +0.000 HD
ENDBRANCH  21  22
ENDBRANCH  19  21
ENDBRANCH   1  19
TORSDOF 4
ENDMDL
MODEL 7
REMARK VINA RESULT:      -6.7      4.105      5.783
REMARK  Name = 
REMARK  4 active torsions:
REMARK  status: ('A' for Active; 'I' for Inactive)
REMARK    1  A    between atoms: C_2  and  O_3
REMARK    2  A    between atoms: C_2  and  C_4
REMARK    3  A    between atoms: C_4  and  C_5
REMARK    4  A    between atoms: C_11  and  O_12
REMARK                            x       y       z     vdW  Elec       q    Type
REMARK                         _______ _______ _______ _____ _____    ______ ____
ROOT
ATOM      1  C   UNL     1       6.187   4.315  14.413  0.00  0.00    +0.000 A 
ATOM      2  C   UNL     1       5.836   3.099  15.008  0.00  0.00    +0.000 A 
ATOM      3  C   UNL     1       5.543   3.045  16.373  0.00  0.00    +0.000 A 
ATOM      4  C   UNL     1       5.573   4.210  17.137  0.00  0.00    +0.000 A 
ATOM      5  C   UNL     1       5.958   5.430  16.573  0.00  0.00    +0.000 A 
ATOM      6  C   UNL     1       6.278   5.468  15.209  0.00  0.00    +0.000 A 
ATOM      7  C   UNL     1       5.942   6.656  17.449  0.00  0.00    +0.000 C 
ATOM      8  C   UNL     1       4.490   6.993  17.814  0.00  0.00    +0.000 C 
ATOM      9  C   UNL     1       3.754   6.008  18.693  0.00  0.00    +0.000 A 
ATOM     10  C   UNL     1       2.553   6.459  19.275  0.00  0.00    +0.000 A 
ATOM     11  C   UNL     1       1.820   5.650  20.144  0.00  0.00    +0.000 A 
ATOM     12  C   UNL     1       2.278   4.372  20.440  0.00  0.00    +0.000 A 
ATOM     13 CL   UNL     1       1.398   3.382  21.538  0.00  0.00    +0.000 Cl
ATOM     14  C   UNL     1       3.447   3.893  19.857  0.00  0.00    +0.000 A 
ATOM     15  C   UNL     1       4.173   4.694  18.964  0.00  0.00    +0.000 A 
ATOM     16  O   UNL     1       5.323   4.103  18.485  0.00  0.00    +0.000 OA
ENDROOT
BRANCH   7  17
ATOM     17  O   UNL     1       6.545   7.775  16.793  0.00  0.00    +0.000 OA
ATOM     18  H   UNL     1       7.240   7.439  16.203  0.00  0.00    +0.000 HD
ENDBRANCH   7  17
BRANCH   1  19
ATOM     19  C   UNL     1       6.453   4.403  12.925  0.00  0.00    +0.000 C 
BRANCH  19  21
ATOM     20  O   UNL     1       4.698   3.294  11.696  0.00  0.00    +0.000 OA
ATOM     21  C   UNL     1       5.851   3.277  12.106  0.00  0.00    +0.000 C 
BRANCH  21  22
ATOM     22  O   UNL     1       6.695   2.266  11.795  0.00  0.00    +0.000 OA
ATOM     23  H   UNL     1       6.248   1.445  11.509  0.00  0.00    +0.000 HD
ENDBRANCH  21  22
ENDBRANCH  19  21
ENDBRANCH   1  19
TORSDOF 4
ENDMDL
MODEL 8
REMARK VINA RESULT:      -6.5      1.288      1.483
REMARK  Name = 
REMARK  4 active torsions:
REMARK  status: ('A' for Active; 'I' for Inactive)
REMARK    1  A    between atoms: C_2  and  O_3
REMARK    2  A    between atoms: C_2  and  C_4
REMARK    3  A    between atoms: C_4  and  C_5
REMARK    4  A    between atoms: C_11  and  O_12
REMARK                            x       y       z     vdW  Elec       q    Type
REMARK                         _______ _______ _______ _____ _____    ______ ____
ROOT
ATOM      1  C   UNL     1       2.419   4.327  19.728  0.00  0.00    +0.000 A 
ATOM      2  C   UNL     1       1.767   4.731  20.898  0.00  0.00    +0.000 A 
ATOM      3  C   UNL     1       1.592   6.090  21.171  0.00  0.00    +0.000 A 
ATOM      4  C   UNL     1       2.044   7.045  20.262  0.00  0.00    +0.000 A 
ATOM      5  C   UNL     1       2.733   6.667  19.105  0.00  0.00    +0.000 A 
ATOM      6  C   UNL     1       2.927   5.302  18.855  0.00  0.00    +0.000 A 
ATOM      7  C   UNL     1       3.168   7.749  18.151  0.00  0.00    +0.000 C 
ATOM      8  C   UNL     1       1.928   8.385  17.511  0.00  0.00    +0.000 C 
ATOM      9  C   UNL     1       1.006   9.165  18.421  0.00  0.00    +0.000 A 
ATOM     10  C   UNL     1       0.056   9.995  17.792  0.00  0.00    +0.000 A 
ATOM     11  C   UNL     1      -0.810  10.797  18.537  0.00  0.00    +0.000 A 
ATOM     12  C   UNL     1      -0.739  10.777  19.925  0.00  0.00    +0.000 A 
ATOM     13 CL   UNL     1      -1.780  11.790  20.847  0.00  0.00    +0.000 Cl
ATOM     14  C   UNL     1       0.171   9.945  20.569  0.00  0.00    +0.000 A 
ATOM     15  C   UNL     1       1.026   9.119  19.826  0.00  0.00    +0.000 A 
ATOM     16  O   UNL     1       1.893   8.371  20.593  0.00  0.00    +0.000 OA
ENDROOT
BRANCH   7  17
ATOM     17  O   UNL     1       4.025   7.231  17.130  0.00  0.00    +0.000 OA
ATOM     18  H   UNL     1       3.789   7.663  16.292  0.00  0.00    +0.000 HD
ENDBRANCH   7  17
BRANCH   1  19
ATOM     19  C   UNL     1       2.567   2.859  19.389  0.00  0.00    +0.000 C 
BRANCH  19  21
ATOM     20  O   UNL     1       0.309   2.355  18.708  0.00  0.00    +0.000 OA
ATOM     21  C   UNL     1       1.504   2.315  18.454  0.00  0.00    +0.000 C 
BRANCH  21  22
ATOM     22  O   UNL     1       1.958   1.832  17.274  0.00  0.00    +0.000 OA
ATOM     23  H   UNL     1       1.323   1.915  16.536  0.00  0.00    +0.000 HD
ENDBRANCH  21  22
ENDBRANCH  19  21
ENDBRANCH   1  19
TORSDOF 4
ENDMDL
MODEL 9
REMARK VINA RESULT:      -6.5      2.500      3.638
REMARK  Name = 
REMARK  4 active torsions:
REMARK  status: ('A' for Active; 'I' for Inactive)
REMARK    1  A    between atoms: C_2  and  O_3
REMARK    2  A    between atoms: C_2  and  C_4
REMARK    3  A    between atoms: C_4  and  C_5
REMARK    4  A    between atoms: C_11  and  O_12
REMARK                            x       y       z     vdW  Elec       q    Type
REMARK                         _______ _______ _______ _____ _____    ______ ____
ROOT
ATOM      1  C   UNL     1       5.090   5.420  17.269  0.00  0.00    +0.000 A 
ATOM      2  C   UNL     1       5.019   6.707  16.726  0.00  0.00    +0.000 A 
ATOM      3  C   UNL     1       3.910   7.517  16.983  0.00  0.00    +0.000 A 
ATOM      4  C   UNL     1       2.885   7.052  17.805  0.00  0.00    +0.000 A 
ATOM      5  C   UNL     1       2.915   5.755  18.327  0.00  0.00    +0.000 A 
ATOM      6  C   UNL     1       4.019   4.941  18.040  0.00  0.00    +0.000 A 
ATOM      7  C   UNL     1       1.789   5.326  19.231  0.00  0.00    +0.000 C 
ATOM      8  C   UNL     1       1.859   6.128  20.537  0.00  0.00    +0.000 C 
ATOM      9  C   UNL     1       1.599   7.614  20.449  0.00  0.00    +0.000 A 
ATOM     10  C   UNL     1       1.358   8.284  21.665  0.00  0.00    +0.000 A 
ATOM     11  C   UNL     1       1.058   9.646  21.694  0.00  0.00    +0.000 A 
ATOM     12  C   UNL     1       0.997  10.360  20.503  0.00  0.00    +0.000 A 
ATOM     13 CL   UNL     1       0.592  12.032  20.529  0.00  0.00    +0.000 Cl
ATOM     14  C   UNL     1       1.259   9.727  19.292  0.00  0.00    +0.000 A 
ATOM     15  C   UNL     1       1.586   8.364  19.260  0.00  0.00    +0.000 A 
ATOM     16  O   UNL     1       1.792   7.864  17.992  0.00  0.00    +0.000 OA
ENDROOT
BRANCH   7  17
ATOM     17  O   UNL     1       1.855   3.927  19.521  0.00  0.00    +0.000 OA
ATOM     18  H   UNL     1       1.565   3.796  20.439  0.00  0.00    +0.000 HD
ENDBRANCH   7  17
BRANCH   1  19
ATOM     19  C   UNL     1       6.309   4.550  17.048  0.00  0.00    +0.000 C 
BRANCH  19  21
ATOM     20  O   UNL     1       7.425   5.686  18.860  0.00  0.00    +0.000 OA
ATOM     21  C   UNL     1       7.462   4.822  17.996  0.00  0.00    +0.000 C 
BRANCH  21  22
ATOM     22  O   UNL     1       8.527   3.996  17.870  0.00  0.00    +0.000 OA
ATOM     23  H   UNL     1       8.522   3.239  18.488  0.00  0.00    +0.000 HD
ENDBRANCH  21  22
ENDBRANCH  19  21
ENDBRANCH   1  19
TORSDOF 4
ENDMDL
