MODEL 1
REMARK VINA RESULT:      -8.5      0.000      0.000
REMARK  Name = 
REMARK  8 active torsions:
REMARK  status: ('A' for Active; 'I' for Inactive)
REMARK    1  A    between atoms: C_1  and  C_2
REMARK    2  A    between atoms: C_2  and  N_3
REMARK    3  A    between atoms: N_3  and  C_23
REMARK    4  A    between atoms: C_4  and  C_6
REMARK    5  A    between atoms: C_6  and  C_7
REMARK    6  A    between atoms: C_7  and  N_8
REMARK    7  A    between atoms: C_9  and  C_11
REMARK    8  A    between atoms: C_11  and  N_12
REMARK                            x       y       z     vdW  Elec       q    Type
REMARK                         _______ _______ _______ _____ _____    ______ ____
ROOT
ATOM      1  N   UNL     1       7.739   8.015  17.035  0.00  0.00    +0.000 N 
ATOM      2  C   UNL     1       7.318   6.721  17.093  0.00  0.00    +0.000 C 
ATOM      3  O   UNL     1       7.561   5.968  16.146  0.00  0.00    +0.000 OA
ATOM      4  H   UNL     1       8.274   8.164  16.186  0.00  0.00    +0.000 HD
ENDROOT
BRANCH   1   5
ATOM      5  C   UNL     1       7.717   9.163  17.953  0.00  0.00    +0.000 C 
BRANCH   5   6
ATOM      6  C   UNL     1       9.004   9.833  18.459  0.00  0.00    +0.000 C 
BRANCH   6   8
ATOM      7  N   UNL     1       9.743  12.145  19.171  0.00  0.00    +0.000 N 
ATOM      8  C   UNL     1       8.981  11.356  18.288  0.00  0.00    +0.000 C 
ATOM      9  O   UNL     1       8.243  11.852  17.432  0.00  0.00    +0.000 OA
BRANCH   7  10
ATOM     10  C   UNL     1       9.695  13.565  18.949  0.00  0.00    +0.000 A 
ATOM     11  C   UNL     1       9.003  14.409  19.831  0.00  0.00    +0.000 A 
ATOM     12  C   UNL     1       8.932  15.788  19.605  0.00  0.00    +0.000 A 
ATOM     13  C   UNL     1       9.522  16.337  18.468  0.00  0.00    +0.000 A 
ATOM     14  C   UNL     1      10.204  15.508  17.577  0.00  0.00    +0.000 A 
ATOM     15  C   UNL     1      10.301  14.140  17.825  0.00  0.00    +0.000 A 
ATOM     16  F   UNL     1      10.935  13.373  16.930  0.00  0.00    +0.000 F 
ENDBRANCH   7  10
BRANCH   7  18
ATOM     17  C   UNL     1      12.220  11.652  19.267  0.00  0.00    +0.000 C 
ATOM     18  C   UNL     1      10.870  11.643  19.988  0.00  0.00    +0.000 C 
ENDBRANCH   7  18
ENDBRANCH   6   8
ENDBRANCH   5   6
ENDBRANCH   1   5
BRANCH   2  19
ATOM     19  C   UNL     1       6.517   6.231  18.275  0.00  0.00    +0.000 C 
BRANCH  19  20
ATOM     20  N   UNL     1       5.273   5.574  18.010  0.00  0.00    +0.000 N 
ATOM     21  C   UNL     1       4.205   6.380  17.696  0.00  0.00    +0.000 A 
ATOM     22  N   UNL     1       2.968   6.030  17.764  0.00  0.00    +0.000 NA
ATOM     23  C   UNL     1       2.707   4.712  18.159  0.00  0.00    +0.000 A 
ATOM     24  C   UNL     1       1.408   4.228  18.068  0.00  0.00    +0.000 A 
ATOM     25  C   UNL     1       1.125   2.911  18.425  0.00  0.00    +0.000 A 
ATOM     26  C   UNL     1       2.131   2.069  18.906  0.00  0.00    +0.000 A 
ATOM     27  C   UNL     1       3.431   2.547  19.029  0.00  0.00    +0.000 A 
ATOM     28  C   UNL     1       3.704   3.858  18.635  0.00  0.00    +0.000 A 
ATOM     29  C   UNL     1       5.063   4.391  18.712  0.00  0.00    +0.000 A 
ATOM     30  O   UNL     1       5.893   3.853  19.438  0.00  0.00    +0.000 OA
ENDBRANCH  19  20
ENDBRANCH   2  19
TORSDOF 7
ENDMDL
MODEL 2
REMARK VINA RESULT:      -8.2      1.849      2.455
REMARK  Name = 
REMARK  8 active torsions:
REMARK  status: ('A' for Active; 'I' for Inactive)
REMARK    1  A    between atoms: C_1  and  C_2
REMARK    2  A    between atoms: C_2  and  N_3
REMARK    3  A    between atoms: N_3  and  C_23
REMARK    4  A    between atoms: C_4  and  C_6
REMARK    5  A    between atoms: C_6  and  C_7
REMARK    6  A    between atoms: C_7  and  N_8
REMARK    7  A    between atoms: C_9  and  C_11
REMARK    8  A    between atoms: C_11  and  N_12
REMARK                            x       y       z     vdW  Elec       q    Type
REMARK                         _______ _______ _______ _____ _____    ______ ____
ROOT
ATOM      1  N   UNL     1       8.116   7.004  18.638  0.00  0.00    +0.000 N 
ATOM      2  C   UNL     1       7.173   6.068  18.941  0.00  0.00    +0.000 C 
ATOM      3  O   UNL     1       7.335   5.353  19.933  0.00  0.00    +0.000 OA
ATOM      4  H   UNL     1       8.835   7.010  19.354  0.00  0.00    +0.000 HD
ENDROOT
BRANCH   1   5
ATOM      5  C   UNL     1       8.249   8.063  17.627  0.00  0.00    +0.000 C 
BRANCH   5   6
ATOM      6  C   UNL     1       7.724   9.489  17.859  0.00  0.00    +0.000 C 
BRANCH   6   8
ATOM      7  N   UNL     1       8.921  11.714  17.984  0.00  0.00    +0.000 N 
ATOM      8  C   UNL     1       8.776  10.408  18.490  0.00  0.00    +0.000 C 
ATOM      9  O   UNL     1       9.514   9.958  19.372  0.00  0.00    +0.000 OA
BRANCH   7  10
ATOM     10  C   UNL     1       9.910  12.534  18.629  0.00  0.00    +0.000 A 
ATOM     11  C   UNL     1       9.757  12.929  19.967  0.00  0.00    +0.000 A 
ATOM     12  C   UNL     1      10.703  13.750  20.591  0.00  0.00    +0.000 A 
ATOM     13  C   UNL     1      11.801  14.218  19.869  0.00  0.00    +0.000 A 
ATOM     14  C   UNL     1      11.960  13.841  18.536  0.00  0.00    +0.000 A 
ATOM     15  C   UNL     1      11.031  12.996  17.930  0.00  0.00    +0.000 A 
ATOM     16  F   UNL     1      11.200  12.684  16.639  0.00  0.00    +0.000 F 
ENDBRANCH   7  10
BRANCH   7  18
ATOM     17  C   UNL     1       7.498  13.788  17.739  0.00  0.00    +0.000 C 
ATOM     18  C   UNL     1       7.900  12.422  17.180  0.00  0.00    +0.000 C 
ENDBRANCH   7  18
ENDBRANCH   6   8
ENDBRANCH   5   6
ENDBRANCH   1   5
BRANCH   2  19
ATOM     19  C   UNL     1       5.975   5.874  18.043  0.00  0.00    +0.000 C 
BRANCH  19  20
ATOM     20  N   UNL     1       5.027   4.865  18.409  0.00  0.00    +0.000 N 
ATOM     21  C   UNL     1       4.953   3.765  17.589  0.00  0.00    +0.000 A 
ATOM     22  N   UNL     1       3.963   2.942  17.543  0.00  0.00    +0.000 NA
ATOM     23  C   UNL     1       2.903   3.181  18.426  0.00  0.00    +0.000 A 
ATOM     24  C   UNL     1       1.902   2.225  18.549  0.00  0.00    +0.000 A 
ATOM     25  C   UNL     1       0.852   2.423  19.443  0.00  0.00    +0.000 A 
ATOM     26  C   UNL     1       0.769   3.594  20.202  0.00  0.00    +0.000 A 
ATOM     27  C   UNL     1       1.748   4.573  20.068  0.00  0.00    +0.000 A 
ATOM     28  C   UNL     1       2.812   4.343  19.195  0.00  0.00    +0.000 A 
ATOM     29  C   UNL     1       3.883   5.329  19.050  0.00  0.00    +0.000 A 
ATOM     30  O   UNL     1       3.696   6.491  19.394  0.00  0.00    +0.000 OA
ENDBRANCH  19  20
ENDBRANCH   2  19
TORSDOF 7
ENDMDL
MODEL 3
REMARK VINA RESULT:      -8.2      0.965      1.331
REMARK  Name = 
REMARK  8 active torsions:
REMARK  status: ('A' for Active; 'I' for Inactive)
REMARK    1  A    between atoms: C_1  and  C_2
REMARK    2  A    between atoms: C_2  and  N_3
REMARK    3  A    between atoms: N_3  and  C_23
REMARK    4  A    between atoms: C_4  and  C_6
REMARK    5  A    between atoms: C_6  and  C_7
REMARK    6  A    between atoms: C_7  and  N_8
REMARK    7  A    between atoms: C_9  and  C_11
REMARK    8  A    between atoms: C_11  and  N_12
REMARK                            x       y       z     vdW  Elec       q    Type
REMARK                         _______ _______ _______ _____ _____    ______ ____
ROOT
ATOM      1  N   UNL     1       7.811   8.161  17.076  0.00  0.00    +0.000 N 
ATOM      2  C   UNL     1       7.289   6.904  17.125  0.00  0.00    +0.000 C 
ATOM      3  O   UNL     1       7.489   6.134  16.182  0.00  0.00    +0.000 OA
ATOM      4  H   UNL     1       8.371   8.267  16.237  0.00  0.00    +0.000 HD
ENDROOT
BRANCH   1   5
ATOM      5  C   UNL     1       7.863   9.307  17.996  0.00  0.00    +0.000 C 
BRANCH   5   6
ATOM      6  C   UNL     1       9.145  10.127  18.213  0.00  0.00    +0.000 C 
BRANCH   6   8
ATOM      7  N   UNL     1       9.766  12.531  18.693  0.00  0.00    +0.000 N 
ATOM      8  C   UNL     1       8.922  11.630  18.017  0.00  0.00    +0.000 C 
ATOM      9  O   UNL     1       7.968  12.011  17.331  0.00  0.00    +0.000 OA
BRANCH   7  10
ATOM     10  C   UNL     1       9.520  13.928  18.455  0.00  0.00    +0.000 A 
ATOM     11  C   UNL     1      10.307  14.653  17.546  0.00  0.00    +0.000 A 
ATOM     12  C   UNL     1      10.089  16.018  17.331  0.00  0.00    +0.000 A 
ATOM     13  C   UNL     1       9.101  16.686  18.052  0.00  0.00    +0.000 A 
ATOM     14  C   UNL     1       8.318  15.980  18.965  0.00  0.00    +0.000 A 
ATOM     15  C   UNL     1       8.518  14.613  19.151  0.00  0.00    +0.000 A 
ATOM     16  F   UNL     1       7.770  13.977  20.061  0.00  0.00    +0.000 F 
ENDBRANCH   7  10
BRANCH   7  18
ATOM     17  C   UNL     1      11.122  12.105  20.783  0.00  0.00    +0.000 C 
ATOM     18  C   UNL     1      11.090  12.182  19.255  0.00  0.00    +0.000 C 
ENDBRANCH   7  18
ENDBRANCH   6   8
ENDBRANCH   5   6
ENDBRANCH   1   5
BRANCH   2  19
ATOM     19  C   UNL     1       6.431   6.479  18.293  0.00  0.00    +0.000 C 
BRANCH  19  20
ATOM     20  N   UNL     1       5.226   5.762  18.006  0.00  0.00    +0.000 N 
ATOM     21  C   UNL     1       4.110   6.516  17.733  0.00  0.00    +0.000 A 
ATOM     22  N   UNL     1       2.896   6.091  17.793  0.00  0.00    +0.000 NA
ATOM     23  C   UNL     1       2.716   4.744  18.132  0.00  0.00    +0.000 A 
ATOM     24  C   UNL     1       1.447   4.189  18.028  0.00  0.00    +0.000 A 
ATOM     25  C   UNL     1       1.244   2.844  18.329  0.00  0.00    +0.000 A 
ATOM     26  C   UNL     1       2.302   2.042  18.768  0.00  0.00    +0.000 A 
ATOM     27  C   UNL     1       3.572   2.591  18.905  0.00  0.00    +0.000 A 
ATOM     28  C   UNL     1       3.765   3.931  18.566  0.00  0.00    +0.000 A 
ATOM     29  C   UNL     1       5.092   4.539  18.658  0.00  0.00    +0.000 A 
ATOM     30  O   UNL     1       5.957   4.021  19.355  0.00  0.00    +0.000 OA
ENDBRANCH  19  20
ENDBRANCH   2  19
TORSDOF 7
ENDMDL
MODEL 4
REMARK VINA RESULT:      -8.2      1.837      2.355
REMARK  Name = 
REMARK  8 active torsions:
REMARK  status: ('A' for Active; 'I' for Inactive)
REMARK    1  A    between atoms: C_1  and  C_2
REMARK    2  A    between atoms: C_2  and  N_3
REMARK    3  A    between atoms: N_3  and  C_23
REMARK    4  A    between atoms: C_4  and  C_6
REMARK    5  A    between atoms: C_6  and  C_7
REMARK    6  A    between atoms: C_7  and  N_8
REMARK    7  A    between atoms: C_9  and  C_11
REMARK    8  A    between atoms: C_11  and  N_12
REMARK                            x       y       z     vdW  Elec       q    Type
REMARK                         _______ _______ _______ _____ _____    ______ ____
ROOT
ATOM      1  N   UNL     1       7.901   7.631  17.133  0.00  0.00    +0.000 N 
ATOM      2  C   UNL     1       7.020   6.616  16.908  0.00  0.00    +0.000 C 
ATOM      3  O   UNL     1       7.410   5.599  16.329  0.00  0.00    +0.000 OA
ATOM      4  H   UNL     1       8.826   7.357  16.816  0.00  0.00    +0.000 HD
ENDROOT
BRANCH   1   5
ATOM      5  C   UNL     1       7.851   8.923  17.832  0.00  0.00    +0.000 C 
BRANCH   5   6
ATOM      6  C   UNL     1       8.855   9.300  18.933  0.00  0.00    +0.000 C 
BRANCH   6   8
ATOM      7  N   UNL     1       9.375  11.608  19.826  0.00  0.00    +0.000 N 
ATOM      8  C   UNL     1       9.432  10.707  18.746  0.00  0.00    +0.000 C 
ATOM      9  O   UNL     1       9.866  11.035  17.637  0.00  0.00    +0.000 OA
BRANCH   7  10
ATOM     10  C   UNL     1       9.949  12.906  19.596  0.00  0.00    +0.000 A 
ATOM     11  C   UNL     1      11.295  13.163  19.902  0.00  0.00    +0.000 A 
ATOM     12  C   UNL     1      11.851  14.431  19.705  0.00  0.00    +0.000 A 
ATOM     13  C   UNL     1      11.055  15.474  19.233  0.00  0.00    +0.000 A 
ATOM     14  C   UNL     1       9.714  15.235  18.934  0.00  0.00    +0.000 A 
ATOM     15  C   UNL     1       9.173  13.961  19.101  0.00  0.00    +0.000 A 
ATOM     16  F   UNL     1       7.874  13.780  18.836  0.00  0.00    +0.000 F 
ENDBRANCH   7  10
BRANCH   7  18
ATOM     17  C   UNL     1       8.549  12.305  22.111  0.00  0.00    +0.000 C 
ATOM     18  C   UNL     1       9.177  11.216  21.239  0.00  0.00    +0.000 C 
ENDBRANCH   7  18
ENDBRANCH   6   8
ENDBRANCH   5   6
ENDBRANCH   1   5
BRANCH   2  19
ATOM     19  C   UNL     1       5.573   6.760  17.314  0.00  0.00    +0.000 C 
BRANCH  19  20
ATOM     20  N   UNL     1       5.076   5.877  18.326  0.00  0.00    +0.000 N 
ATOM     21  C   UNL     1       5.706   4.663  18.447  0.00  0.00    +0.000 A 
ATOM     22  N   UNL     1       5.212   3.627  19.033  0.00  0.00    +0.000 NA
ATOM     23  C   UNL     1       3.946   3.777  19.614  0.00  0.00    +0.000 A 
ATOM     24  C   UNL     1       3.451   2.755  20.415  0.00  0.00    +0.000 A 
ATOM     25  C   UNL     1       2.209   2.889  21.032  0.00  0.00    +0.000 A 
ATOM     26  C   UNL     1       1.430   4.034  20.831  0.00  0.00    +0.000 A 
ATOM     27  C   UNL     1       1.901   5.052  20.009  0.00  0.00    +0.000 A 
ATOM     28  C   UNL     1       3.162   4.916  19.427  0.00  0.00    +0.000 A 
ATOM     29  C   UNL     1       3.712   5.979  18.586  0.00  0.00    +0.000 A 
ATOM     30  O   UNL     1       2.966   6.815  18.088  0.00  0.00    +0.000 OA
ENDBRANCH  19  20
ENDBRANCH   2  19
TORSDOF 7
ENDMDL
MODEL 5
REMARK VINA RESULT:      -8.2      6.211      8.321
REMARK  Name = 
REMARK  8 active torsions:
REMARK  status: ('A' for Active; 'I' for Inactive)
REMARK    1  A    between atoms: C_1  and  C_2
REMARK    2  A    between atoms: C_2  and  N_3
REMARK    3  A    between atoms: N_3  and  C_23
REMARK    4  A    between atoms: C_4  and  C_6
REMARK    5  A    between atoms: C_6  and  C_7
REMARK    6  A    between atoms: C_7  and  N_8
REMARK    7  A    between atoms: C_9  and  C_11
REMARK    8  A    between atoms: C_11  and  N_12
REMARK                            x       y       z     vdW  Elec       q    Type
REMARK                         _______ _______ _______ _____ _____    ______ ____
ROOT
ATOM      1  N   UNL     1       2.077   5.317  21.204  0.00  0.00    +0.000 N 
ATOM      2  C   UNL     1       2.219   3.967  21.089  0.00  0.00    +0.000 C 
ATOM      3  O   UNL     1       2.354   3.288  22.110  0.00  0.00    +0.000 OA
ATOM      4  H   UNL     1       2.049   5.575  22.185  0.00  0.00    +0.000 HD
ENDROOT
BRANCH   1   5
ATOM      5  C   UNL     1       1.823   6.424  20.272  0.00  0.00    +0.000 C 
BRANCH   5   6
ATOM      6  C   UNL     1       1.956   7.897  20.691  0.00  0.00    +0.000 C 
BRANCH   6   8
ATOM      7  N   UNL     1       0.656   9.635  19.392  0.00  0.00    +0.000 N 
ATOM      8  C   UNL     1       0.673   8.698  20.442  0.00  0.00    +0.000 C 
ATOM      9  O   UNL     1      -0.283   8.552  21.209  0.00  0.00    +0.000 OA
BRANCH   7  10
ATOM     10  C   UNL     1      -0.581  10.342  19.196  0.00  0.00    +0.000 A 
ATOM     11  C   UNL     1      -1.473   9.962  18.181  0.00  0.00    +0.000 A 
ATOM     12  C   UNL     1      -2.665  10.663  17.969  0.00  0.00    +0.000 A 
ATOM     13  C   UNL     1      -2.964  11.780  18.749  0.00  0.00    +0.000 A 
ATOM     14  C   UNL     1      -2.080  12.174  19.754  0.00  0.00    +0.000 A 
ATOM     15  C   UNL     1      -0.910  11.452  19.982  0.00  0.00    +0.000 A 
ATOM     16  F   UNL     1      -0.072  11.881  20.933  0.00  0.00    +0.000 F 
ENDBRANCH   7  10
BRANCH   7  18
ATOM     17  C   UNL     1       2.184  11.025  17.935  0.00  0.00    +0.000 C 
ATOM     18  C   UNL     1       1.608   9.645  18.258  0.00  0.00    +0.000 C 
ENDBRANCH   7  18
ENDBRANCH   6   8
ENDBRANCH   5   6
ENDBRANCH   1   5
BRANCH   2  19
ATOM     19  C   UNL     1       2.263   3.319  19.725  0.00  0.00    +0.000 C 
BRANCH  19  20
ATOM     20  N   UNL     1       3.483   3.419  18.982  0.00  0.00    +0.000 N 
ATOM     21  C   UNL     1       4.638   3.570  19.711  0.00  0.00    +0.000 A 
ATOM     22  N   UNL     1       5.755   4.012  19.246  0.00  0.00    +0.000 NA
ATOM     23  C   UNL     1       5.787   4.329  17.882  0.00  0.00    +0.000 A 
ATOM     24  C   UNL     1       7.008   4.629  17.292  0.00  0.00    +0.000 A 
ATOM     25  C   UNL     1       7.076   4.918  15.930  0.00  0.00    +0.000 A 
ATOM     26  C   UNL     1       5.918   4.940  15.146  0.00  0.00    +0.000 A 
ATOM     27  C   UNL     1       4.686   4.669  15.729  0.00  0.00    +0.000 A 
ATOM     28  C   UNL     1       4.641   4.348  17.086  0.00  0.00    +0.000 A 
ATOM     29  C   UNL     1       3.370   4.020  17.732  0.00  0.00    +0.000 A 
ATOM     30  O   UNL     1       2.313   4.363  17.214  0.00  0.00    +0.000 OA
ENDBRANCH  19  20
ENDBRANCH   2  19
TORSDOF 7
ENDMDL
MODEL 6
REMARK VINA RESULT:      -8.1      1.280      1.483
REMARK  Name = 
REMARK  8 active torsions:
REMARK  status: ('A' for Active; 'I' for Inactive)
REMARK    1  A    between atoms: C_1  and  C_2
REMARK    2  A    between atoms: C_2  and  N_3
REMARK    3  A    between atoms: N_3  and  C_23
REMARK    4  A    between atoms: C_4  and  C_6
REMARK    5  A    between atoms: C_6  and  C_7
REMARK    6  A    between atoms: C_7  and  N_8
REMARK    7  A    between atoms: C_9  and  C_11
REMARK    8  A    between atoms: C_11  and  N_12
REMARK                            x       y       z     vdW  Elec       q    Type
REMARK                         _______ _______ _______ _____ _____    ______ ____
ROOT
ATOM      1  N   UNL     1       7.794   7.533  17.209  0.00  0.00    +0.000 N 
ATOM      2  C   UNL     1       6.936   6.504  16.966  0.00  0.00    +0.000 C 
ATOM      3  O   UNL     1       7.391   5.419  16.591  0.00  0.00    +0.000 OA
ATOM      4  H   UNL     1       8.751   7.218  17.089  0.00  0.00    +0.000 HD
ENDROOT
BRANCH   1   5
ATOM      5  C   UNL     1       7.661   8.903  17.725  0.00  0.00    +0.000 C 
BRANCH   5   6
ATOM      6  C   UNL     1       8.748   9.564  18.588  0.00  0.00    +0.000 C 
BRANCH   6   8
ATOM      7  N   UNL     1       9.817  11.807  19.064  0.00  0.00    +0.000 N 
ATOM      8  C   UNL     1       8.912  11.057  18.287  0.00  0.00    +0.000 C 
ATOM      9  O   UNL     1       8.200  11.577  17.424  0.00  0.00    +0.000 OA
BRANCH   7  10
ATOM     10  C   UNL     1       9.941  13.198  18.722  0.00  0.00    +0.000 A 
ATOM     11  C   UNL     1       9.340  14.190  19.511  0.00  0.00    +0.000 A 
ATOM     12  C   UNL     1       9.436  15.542  19.168  0.00  0.00    +0.000 A 
ATOM     13  C   UNL     1      10.105  15.919  18.004  0.00  0.00    +0.000 A 
ATOM     14  C   UNL     1      10.698  14.942  17.204  0.00  0.00    +0.000 A 
ATOM     15  C   UNL     1      10.628  13.598  17.570  0.00  0.00    +0.000 A 
ATOM     16  F   UNL     1      11.180  12.688  16.759  0.00  0.00    +0.000 F 
ENDBRANCH   7  10
BRANCH   7  18
ATOM     17  C   UNL     1      12.248  11.960  19.738  0.00  0.00    +0.000 C 
ATOM     18  C   UNL     1      10.912  11.226  19.872  0.00  0.00    +0.000 C 
ENDBRANCH   7  18
ENDBRANCH   6   8
ENDBRANCH   5   6
ENDBRANCH   1   5
BRANCH   2  19
ATOM     19  C   UNL     1       5.446   6.705  17.101  0.00  0.00    +0.000 C 
BRANCH  19  20
ATOM     20  N   UNL     1       4.671   5.614  17.613  0.00  0.00    +0.000 N 
ATOM     21  C   UNL     1       4.511   4.530  16.784  0.00  0.00    +0.000 A 
ATOM     22  N   UNL     1       3.597   3.631  16.910  0.00  0.00    +0.000 NA
ATOM     23  C   UNL     1       2.728   3.765  17.999  0.00  0.00    +0.000 A 
ATOM     24  C   UNL     1       1.849   2.728  18.288  0.00  0.00    +0.000 A 
ATOM     25  C   UNL     1       0.994   2.820  19.384  0.00  0.00    +0.000 A 
ATOM     26  C   UNL     1       0.984   3.964  20.189  0.00  0.00    +0.000 A 
ATOM     27  C   UNL     1       1.837   5.021  19.896  0.00  0.00    +0.000 A 
ATOM     28  C   UNL     1       2.712   4.898  18.815  0.00  0.00    +0.000 A 
ATOM     29  C   UNL     1       3.653   5.969  18.492  0.00  0.00    +0.000 A 
ATOM     30  O   UNL     1       3.456   7.105  18.911  0.00  0.00    +0.000 OA
ENDBRANCH  19  20
ENDBRANCH   2  19
TORSDOF 7
ENDMDL
MODEL 7
REMARK VINA RESULT:      -8.0      6.022      6.978
REMARK  Name = 
REMARK  8 active torsions:
REMARK  status: ('A' for Active; 'I' for Inactive)
REMARK    1  A    between atoms: C_1  and  C_2
REMARK    2  A    between atoms: C_2  and  N_3
REMARK    3  A    between atoms: N_3  and  C_23
REMARK    4  A    between atoms: C_4  and  C_6
REMARK    5  A    between atoms: C_6  and  C_7
REMARK    6  A    between atoms: C_7  and  N_8
REMARK    7  A    between atoms: C_9  and  C_11
REMARK    8  A    between atoms: C_11  and  N_12
REMARK                            x       y       z     vdW  Elec       q    Type
REMARK                         _______ _______ _______ _____ _____    ______ ____
ROOT
ATOM      1  N   UNL     1       4.547   7.052  16.919  0.00  0.00    +0.000 N 
ATOM      2  C   UNL     1       5.006   6.048  16.121  0.00  0.00    +0.000 C 
ATOM      3  O   UNL     1       5.547   6.332  15.049  0.00  0.00    +0.000 OA
ATOM      4  H   UNL     1       4.783   7.950  16.509  0.00  0.00    +0.000 HD
ENDROOT
BRANCH   1   5
ATOM      5  C   UNL     1       3.939   7.130  18.255  0.00  0.00    +0.000 C 
BRANCH   5   6
ATOM      6  C   UNL     1       2.421   7.254  18.460  0.00  0.00    +0.000 C 
BRANCH   6   8
ATOM      7  N   UNL     1       1.127   9.298  19.197  0.00  0.00    +0.000 N 
ATOM      8  C   UNL     1       1.906   8.674  18.204  0.00  0.00    +0.000 C 
ATOM      9  O   UNL     1       2.127   9.205  17.112  0.00  0.00    +0.000 OA
BRANCH   7  10
ATOM     10  C   UNL     1       0.689  10.637  18.908  0.00  0.00    +0.000 A 
ATOM     11  C   UNL     1       1.552  11.730  19.083  0.00  0.00    +0.000 A 
ATOM     12  C   UNL     1       1.122  13.037  18.829  0.00  0.00    +0.000 A 
ATOM     13  C   UNL     1      -0.193  13.271  18.430  0.00  0.00    +0.000 A 
ATOM     14  C   UNL     1      -1.063  12.195  18.262  0.00  0.00    +0.000 A 
ATOM     15  C   UNL     1      -0.620  10.892  18.485  0.00  0.00    +0.000 A 
ATOM     16  F   UNL     1      -1.495   9.888  18.345  0.00  0.00    +0.000 F 
ENDBRANCH   7  10
BRANCH   7  18
ATOM     17  C   UNL     1      -0.124   9.412  21.390  0.00  0.00    +0.000 C 
ATOM     18  C   UNL     1       1.086   8.883  20.617  0.00  0.00    +0.000 C 
ENDBRANCH   7  18
ENDBRANCH   6   8
ENDBRANCH   5   6
ENDBRANCH   1   5
BRANCH   2  19
ATOM     19  C   UNL     1       4.806   4.605  16.520  0.00  0.00    +0.000 C 
BRANCH  19  20
ATOM     20  N   UNL     1       4.268   4.344  17.822  0.00  0.00    +0.000 N 
ATOM     21  C   UNL     1       5.145   3.866  18.765  0.00  0.00    +0.000 A 
ATOM     22  N   UNL     1       4.807   3.259  19.850  0.00  0.00    +0.000 NA
ATOM     23  C   UNL     1       3.435   3.113  20.088  0.00  0.00    +0.000 A 
ATOM     24  C   UNL     1       3.015   2.637  21.324  0.00  0.00    +0.000 A 
ATOM     25  C   UNL     1       1.655   2.511  21.600  0.00  0.00    +0.000 A 
ATOM     26  C   UNL     1       0.696   2.828  20.633  0.00  0.00    +0.000 A 
ATOM     27  C   UNL     1       1.102   3.278  19.382  0.00  0.00    +0.000 A 
ATOM     28  C   UNL     1       2.467   3.432  19.134  0.00  0.00    +0.000 A 
ATOM     29  C   UNL     1       2.938   3.938  17.845  0.00  0.00    +0.000 A 
ATOM     30  O   UNL     1       2.204   3.891  16.863  0.00  0.00    +0.000 OA
ENDBRANCH  19  20
ENDBRANCH   2  19
TORSDOF 7
ENDMDL
MODEL 8
REMARK VINA RESULT:      -8.0      6.822     10.438
REMARK  Name = 
REMARK  8 active torsions:
REMARK  status: ('A' for Active; 'I' for Inactive)
REMARK    1  A    between atoms: C_1  and  C_2
REMARK    2  A    between atoms: C_2  and  N_3
REMARK    3  A    between atoms: N_3  and  C_23
REMARK    4  A    between atoms: C_4  and  C_6
REMARK    5  A    between atoms: C_6  and  C_7
REMARK    6  A    between atoms: C_7  and  N_8
REMARK    7  A    between atoms: C_9  and  C_11
REMARK    8  A    between atoms: C_11  and  N_12
REMARK                            x       y       z     vdW  Elec       q    Type
REMARK                         _______ _______ _______ _____ _____    ______ ____
ROOT
ATOM      1  N   UNL     1      -0.008   9.231  21.973  0.00  0.00    +0.000 N 
ATOM      2  C   UNL     1       0.028  10.592  21.917  0.00  0.00    +0.000 C 
ATOM      3  O   UNL     1      -0.251  11.241  22.928  0.00  0.00    +0.000 OA
ATOM      4  H   UNL     1      -0.222   8.932  22.919  0.00  0.00    +0.000 HD
ENDROOT
BRANCH   1   5
ATOM      5  C   UNL     1       0.320   8.139  21.045  0.00  0.00    +0.000 C 
BRANCH   5   6
ATOM      6  C   UNL     1       1.748   7.904  20.527  0.00  0.00    +0.000 C 
BRANCH   6   8
ATOM      7  N   UNL     1       2.539   6.082  18.962  0.00  0.00    +0.000 N 
ATOM      8  C   UNL     1       2.030   6.428  20.228  0.00  0.00    +0.000 C 
ATOM      9  O   UNL     1       1.739   5.578  21.075  0.00  0.00    +0.000 OA
BRANCH   7  10
ATOM     10  C   UNL     1       2.802   4.684  18.748  0.00  0.00    +0.000 A 
ATOM     11  C   UNL     1       3.881   4.049  19.382  0.00  0.00    +0.000 A 
ATOM     12  C   UNL     1       4.157   2.696  19.156  0.00  0.00    +0.000 A 
ATOM     13  C   UNL     1       3.376   1.968  18.260  0.00  0.00    +0.000 A 
ATOM     14  C   UNL     1       2.307   2.590  17.615  0.00  0.00    +0.000 A 
ATOM     15  C   UNL     1       2.016   3.929  17.869  0.00  0.00    +0.000 A 
ATOM     16  F   UNL     1       1.003   4.499  17.206  0.00  0.00    +0.000 F 
ENDBRANCH   7  10
BRANCH   7  18
ATOM     17  C   UNL     1       4.346   6.413  17.225  0.00  0.00    +0.000 C 
ATOM     18  C   UNL     1       3.202   7.027  18.035  0.00  0.00    +0.000 C 
ENDBRANCH   7  18
ENDBRANCH   6   8
ENDBRANCH   5   6
ENDBRANCH   1   5
BRANCH   2  19
ATOM     19  C   UNL     1       0.352  11.294  20.620  0.00  0.00    +0.000 C 
BRANCH  19  20
ATOM     20  N   UNL     1      -0.732  11.573  19.727  0.00  0.00    +0.000 N 
ATOM     21  C   UNL     1      -1.884  12.065  20.291  0.00  0.00    +0.000 A 
ATOM     22  N   UNL     1      -3.046  12.051  19.735  0.00  0.00    +0.000 NA
ATOM     23  C   UNL     1      -3.118  11.520  18.441  0.00  0.00    +0.000 A 
ATOM     24  C   UNL     1      -4.302  11.651  17.727  0.00  0.00    +0.000 A 
ATOM     25  C   UNL     1      -4.393  11.160  16.426  0.00  0.00    +0.000 A 
ATOM     26  C   UNL     1      -3.311  10.503  15.833  0.00  0.00    +0.000 A 
ATOM     27  C   UNL     1      -2.129  10.338  16.546  0.00  0.00    +0.000 A 
ATOM     28  C   UNL     1      -2.044  10.867  17.835  0.00  0.00    +0.000 A 
ATOM     29  C   UNL     1      -0.807  10.750  18.607  0.00  0.00    +0.000 A 
ATOM     30  O   UNL     1       0.026   9.902  18.306  0.00  0.00    +0.000 OA
ENDBRANCH  19  20
ENDBRANCH   2  19
TORSDOF 7
ENDMDL
MODEL 9
REMARK VINA RESULT:      -8.0      6.319      7.525
REMARK  Name = 
REMARK  8 active torsions:
REMARK  status: ('A' for Active; 'I' for Inactive)
REMARK    1  A    between atoms: C_1  and  C_2
REMARK    2  A    between atoms: C_2  and  N_3
REMARK    3  A    between atoms: N_3  and  C_23
REMARK    4  A    between atoms: C_4  and  C_6
REMARK    5  A    between atoms: C_6  and  C_7
REMARK    6  A    between atoms: C_7  and  N_8
REMARK    7  A    between atoms: C_9  and  C_11
REMARK    8  A    between atoms: C_11  and  N_12
REMARK                            x       y       z     vdW  Elec       q    Type
REMARK                         _______ _______ _______ _____ _____    ______ ____
ROOT
ATOM      1  N   UNL     1       4.485   7.017  16.710  0.00  0.00    +0.000 N 
ATOM      2  C   UNL     1       5.086   5.955  16.104  0.00  0.00    +0.000 C 
ATOM      3  O   UNL     1       5.946   6.163  15.244  0.00  0.00    +0.000 OA
ATOM      4  H   UNL     1       4.901   7.881  16.379  0.00  0.00    +0.000 HD
ENDROOT
BRANCH   1   5
ATOM      5  C   UNL     1       3.509   7.184  17.796  0.00  0.00    +0.000 C 
BRANCH   5   6
ATOM      6  C   UNL     1       2.378   8.224  17.731  0.00  0.00    +0.000 C 
BRANCH   6   8
ATOM      7  N   UNL     1       0.862   9.595  19.220  0.00  0.00    +0.000 N 
ATOM      8  C   UNL     1       1.790   8.542  19.109  0.00  0.00    +0.000 C 
ATOM      9  O   UNL     1       2.196   7.917  20.093  0.00  0.00    +0.000 OA
BRANCH   7  10
ATOM     10  C   UNL     1       0.331   9.833  20.535  0.00  0.00    +0.000 A 
ATOM     11  C   UNL     1      -0.134   8.772  21.327  0.00  0.00    +0.000 A 
ATOM     12  C   UNL     1      -0.676   9.001  22.596  0.00  0.00    +0.000 A 
ATOM     13  C   UNL     1      -0.794  10.305  23.076  0.00  0.00    +0.000 A 
ATOM     14  C   UNL     1      -0.345  11.370  22.295  0.00  0.00    +0.000 A 
ATOM     15  C   UNL     1       0.225  11.132  21.045  0.00  0.00    +0.000 A 
ATOM     16  F   UNL     1       0.613  12.182  20.312  0.00  0.00    +0.000 F 
ENDBRANCH   7  10
BRANCH   7  18
ATOM     17  C   UNL     1      -1.420  10.039  18.229  0.00  0.00    +0.000 C 
ATOM     18  C   UNL     1       0.098  10.165  18.088  0.00  0.00    +0.000 C 
ENDBRANCH   7  18
ENDBRANCH   6   8
ENDBRANCH   5   6
ENDBRANCH   1   5
BRANCH   2  19
ATOM     19  C   UNL     1       4.665   4.545  16.443  0.00  0.00    +0.000 C 
BRANCH  19  20
ATOM     20  N   UNL     1       4.190   4.294  17.770  0.00  0.00    +0.000 N 
ATOM     21  C   UNL     1       5.104   3.795  18.667  0.00  0.00    +0.000 A 
ATOM     22  N   UNL     1       4.809   3.194  19.768  0.00  0.00    +0.000 NA
ATOM     23  C   UNL     1       3.448   3.078  20.076  0.00  0.00    +0.000 A 
ATOM     24  C   UNL     1       3.082   2.610  21.332  0.00  0.00    +0.000 A 
ATOM     25  C   UNL     1       1.736   2.513  21.679  0.00  0.00    +0.000 A 
ATOM     26  C   UNL     1       0.735   2.853  20.762  0.00  0.00    +0.000 A 
ATOM     27  C   UNL     1       1.086   3.295  19.492  0.00  0.00    +0.000 A 
ATOM     28  C   UNL     1       2.439   3.420  19.174  0.00  0.00    +0.000 A 
ATOM     29  C   UNL     1       2.853   3.917  17.862  0.00  0.00    +0.000 A 
ATOM     30  O   UNL     1       2.069   3.887  16.920  0.00  0.00    +0.000 OA
ENDBRANCH  19  20
ENDBRANCH   2  19
TORSDOF 7
ENDMDL
