MODEL 1
REMARK VINA RESULT:      -7.2      0.000      0.000
REMARK  Name = 
REMARK  5 active torsions:
REMARK  status: ('A' for Active; 'I' for Inactive)
REMARK    1  A    between atoms: C_1  and  O_2
REMARK    2  A    between atoms: O_2  and  C_3
REMARK    3  A    between atoms: C_6  and  C_7
REMARK    4  A    between atoms: C_8  and  C_9
REMARK    5  A    between atoms: C_8  and  N_15
REMARK                            x       y       z     vdW  Elec       q    Type
REMARK                         _______ _______ _______ _____ _____    ______ ____
ROOT
ATOM      1  C   UNL     1       4.590   4.142  16.220  0.00  0.00    +0.000 C 
ATOM      2  C   UNL     1       5.815   4.584  15.874  0.00  0.00    +0.000 C 
ENDROOT
BRANCH   1   6
ATOM      3  C   UNL     1       2.807   4.236  20.102  0.00  0.00    +0.000 A 
ATOM      4  C   UNL     1       3.544   3.127  19.684  0.00  0.00    +0.000 A 
ATOM      5  C   UNL     1       4.122   3.095  18.413  0.00  0.00    +0.000 A 
ATOM      6  C   UNL     1       3.952   4.170  17.538  0.00  0.00    +0.000 A 
ATOM      7  C   UNL     1       3.207   5.280  17.950  0.00  0.00    +0.000 A 
ATOM      8  C   UNL     1       2.635   5.311  19.230  0.00  0.00    +0.000 A 
BRANCH   3  10
ATOM      9  C   UNL     1       1.692   2.894  21.710  0.00  0.00    +0.000 C 
ATOM     10  O   UNL     1       2.290   4.136  21.364  0.00  0.00    +0.000 OA
ENDBRANCH   3  10
ENDBRANCH   1   6
BRANCH   2  11
ATOM     11  C   UNL     1       6.272   4.529  14.482  0.00  0.00    +0.000 A 
ATOM     12  C   UNL     1       5.657   3.647  13.582  0.00  0.00    +0.000 A 
ATOM     13  C   UNL     1       6.157   3.499  12.287  0.00  0.00    +0.000 A 
ATOM     14  C   UNL     1       7.271   4.232  11.881  0.00  0.00    +0.000 A 
ATOM     15  C   UNL     1       7.875   5.129  12.761  0.00  0.00    +0.000 A 
ATOM     16  C   UNL     1       7.379   5.279  14.060  0.00  0.00    +0.000 A 
ENDBRANCH   2  11
BRANCH   2  17
ATOM     17  N   UNL     1       6.657   5.175  16.899  0.00  0.00    +0.000 N 
ATOM     18  O   UNL     1       7.482   4.427  17.437  0.00  0.00    +0.000 OA
ATOM     19  O   UNL     1       6.522   6.387  17.122  0.00  0.00    +0.000 OA
ENDBRANCH   2  17
TORSDOF 4
ENDMDL
MODEL 2
REMARK VINA RESULT:      -7.1      0.316      1.580
REMARK  Name = 
REMARK  5 active torsions:
REMARK  status: ('A' for Active; 'I' for Inactive)
REMARK    1  A    between atoms: C_1  and  O_2
REMARK    2  A    between atoms: O_2  and  C_3
REMARK    3  A    between atoms: C_6  and  C_7
REMARK    4  A    between atoms: C_8  and  C_9
REMARK    5  A    between atoms: C_8  and  N_15
REMARK                            x       y       z     vdW  Elec       q    Type
REMARK                         _______ _______ _______ _____ _____    ______ ____
ROOT
ATOM      1  C   UNL     1       4.880   3.952  16.179  0.00  0.00    +0.000 C 
ATOM      2  C   UNL     1       6.068   4.468  15.807  0.00  0.00    +0.000 C 
ENDROOT
BRANCH   1   6
ATOM      3  C   UNL     1       2.947   4.044  19.988  0.00  0.00    +0.000 A 
ATOM      4  C   UNL     1       2.568   4.928  18.977  0.00  0.00    +0.000 A 
ATOM      5  C   UNL     1       3.204   4.901  17.734  0.00  0.00    +0.000 A 
ATOM      6  C   UNL     1       4.242   3.997  17.497  0.00  0.00    +0.000 A 
ATOM      7  C   UNL     1       4.629   3.115  18.510  0.00  0.00    +0.000 A 
ATOM      8  C   UNL     1       3.983   3.139  19.754  0.00  0.00    +0.000 A 
BRANCH   3  10
ATOM      9  C   UNL     1       1.564   3.026  21.627  0.00  0.00    +0.000 C 
ATOM     10  O   UNL     1       2.249   4.180  21.157  0.00  0.00    +0.000 OA
ENDBRANCH   3  10
ENDBRANCH   1   6
BRANCH   2  11
ATOM     11  C   UNL     1       6.528   4.379  14.418  0.00  0.00    +0.000 A 
ATOM     12  C   UNL     1       7.532   5.246  13.961  0.00  0.00    +0.000 A 
ATOM     13  C   UNL     1       7.898   5.254  12.614  0.00  0.00    +0.000 A 
ATOM     14  C   UNL     1       7.268   4.394  11.716  0.00  0.00    +0.000 A 
ATOM     15  C   UNL     1       6.286   3.513  12.165  0.00  0.00    +0.000 A 
ATOM     16  C   UNL     1       5.914   3.503  13.512  0.00  0.00    +0.000 A 
ENDBRANCH   2  11
BRANCH   2  17
ATOM     17  N   UNL     1       6.862   5.174  16.798  0.00  0.00    +0.000 N 
ATOM     18  O   UNL     1       7.817   4.556  17.284  0.00  0.00    +0.000 OA
ATOM     19  O   UNL     1       6.557   6.349  17.045  0.00  0.00    +0.000 OA
ENDBRANCH   2  17
TORSDOF 4
ENDMDL
MODEL 3
REMARK VINA RESULT:      -7.1      0.196      1.324
REMARK  Name = 
REMARK  5 active torsions:
REMARK  status: ('A' for Active; 'I' for Inactive)
REMARK    1  A    between atoms: C_1  and  O_2
REMARK    2  A    between atoms: O_2  and  C_3
REMARK    3  A    between atoms: C_6  and  C_7
REMARK    4  A    between atoms: C_8  and  C_9
REMARK    5  A    between atoms: C_8  and  N_15
REMARK                            x       y       z     vdW  Elec       q    Type
REMARK                         _______ _______ _______ _____ _____    ______ ____
ROOT
ATOM      1  C   UNL     1       4.666   4.007  16.233  0.00  0.00    +0.000 C 
ATOM      2  C   UNL     1       5.860   4.517  15.872  0.00  0.00    +0.000 C 
ENDROOT
BRANCH   1   6
ATOM      3  C   UNL     1       2.789   3.931  20.071  0.00  0.00    +0.000 A 
ATOM      4  C   UNL     1       2.483   4.933  19.149  0.00  0.00    +0.000 A 
ATOM      5  C   UNL     1       3.100   4.960  17.897  0.00  0.00    +0.000 A 
ATOM      6  C   UNL     1       4.048   3.991  17.561  0.00  0.00    +0.000 A 
ATOM      7  C   UNL     1       4.364   2.990  18.486  0.00  0.00    +0.000 A 
ATOM      8  C   UNL     1       3.735   2.961  19.739  0.00  0.00    +0.000 A 
BRANCH   3  10
ATOM      9  C   UNL     1       1.469   2.845  21.718  0.00  0.00    +0.000 C 
ATOM     10  O   UNL     1       2.119   4.024  21.259  0.00  0.00    +0.000 OA
ENDBRANCH   3  10
ENDBRANCH   1   6
BRANCH   2  11
ATOM     11  C   UNL     1       6.298   4.497  14.473  0.00  0.00    +0.000 A 
ATOM     12  C   UNL     1       5.667   3.640  13.559  0.00  0.00    +0.000 A 
ATOM     13  C   UNL     1       6.149   3.523  12.254  0.00  0.00    +0.000 A 
ATOM     14  C   UNL     1       7.259   4.263  11.852  0.00  0.00    +0.000 A 
ATOM     15  C   UNL     1       7.879   5.135  12.746  0.00  0.00    +0.000 A 
ATOM     16  C   UNL     1       7.402   5.253  14.055  0.00  0.00    +0.000 A 
ENDBRANCH   2  11
BRANCH   2  17
ATOM     17  N   UNL     1       6.685   5.146  16.889  0.00  0.00    +0.000 N 
ATOM     18  O   UNL     1       6.432   6.328  17.154  0.00  0.00    +0.000 OA
ATOM     19  O   UNL     1       7.541   4.444  17.446  0.00  0.00    +0.000 OA
ENDBRANCH   2  17
TORSDOF 4
ENDMDL
MODEL 4
REMARK VINA RESULT:      -7.1      0.168      1.328
REMARK  Name = 
REMARK  5 active torsions:
REMARK  status: ('A' for Active; 'I' for Inactive)
REMARK    1  A    between atoms: C_1  and  O_2
REMARK    2  A    between atoms: O_2  and  C_3
REMARK    3  A    between atoms: C_6  and  C_7
REMARK    4  A    between atoms: C_8  and  C_9
REMARK    5  A    between atoms: C_8  and  N_15
REMARK                            x       y       z     vdW  Elec       q    Type
REMARK                         _______ _______ _______ _____ _____    ______ ____
ROOT
ATOM      1  C   UNL     1       4.695   3.978  16.209  0.00  0.00    +0.000 C 
ATOM      2  C   UNL     1       5.881   4.512  15.860  0.00  0.00    +0.000 C 
ENDROOT
BRANCH   1   6
ATOM      3  C   UNL     1       2.771   4.218  20.017  0.00  0.00    +0.000 A 
ATOM      4  C   UNL     1       3.658   3.179  19.733  0.00  0.00    +0.000 A 
ATOM      5  C   UNL     1       4.282   3.098  18.486  0.00  0.00    +0.000 A 
ATOM      6  C   UNL     1       4.010   4.051  17.502  0.00  0.00    +0.000 A 
ATOM      7  C   UNL     1       3.115   5.089  17.781  0.00  0.00    +0.000 A 
ATOM      8  C   UNL     1       2.497   5.171  19.036  0.00  0.00    +0.000 A 
BRANCH   3  10
ATOM      9  C   UNL     1       1.771   2.908  21.724  0.00  0.00    +0.000 C 
ATOM     10  O   UNL     1       2.225   4.176  21.270  0.00  0.00    +0.000 OA
ENDBRANCH   3  10
ENDBRANCH   1   6
BRANCH   2  11
ATOM     11  C   UNL     1       6.392   4.387  14.491  0.00  0.00    +0.000 A 
ATOM     12  C   UNL     1       7.463   5.190  14.073  0.00  0.00    +0.000 A 
ATOM     13  C   UNL     1       7.884   5.168  12.742  0.00  0.00    +0.000 A 
ATOM     14  C   UNL     1       7.241   4.342  11.822  0.00  0.00    +0.000 A 
ATOM     15  C   UNL     1       6.191   3.523  12.233  0.00  0.00    +0.000 A 
ATOM     16  C   UNL     1       5.765   3.543  13.564  0.00  0.00    +0.000 A 
ENDBRANCH   2  11
BRANCH   2  17
ATOM     17  N   UNL     1       6.623   5.271  16.852  0.00  0.00    +0.000 N 
ATOM     18  O   UNL     1       6.312   6.461  16.985  0.00  0.00    +0.000 OA
ATOM     19  O   UNL     1       7.471   4.663  17.521  0.00  0.00    +0.000 OA
ENDBRANCH   2  17
TORSDOF 4
ENDMDL
MODEL 5
REMARK VINA RESULT:      -6.7      1.114      2.270
REMARK  Name = 
REMARK  5 active torsions:
REMARK  status: ('A' for Active; 'I' for Inactive)
REMARK    1  A    between atoms: C_1  and  O_2
REMARK    2  A    between atoms: O_2  and  C_3
REMARK    3  A    between atoms: C_6  and  C_7
REMARK    4  A    between atoms: C_8  and  C_9
REMARK    5  A    between atoms: C_8  and  N_15
REMARK                            x       y       z     vdW  Elec       q    Type
REMARK                         _______ _______ _______ _____ _____    ______ ____
ROOT
ATOM      1  C   UNL     1       4.602   4.850  16.163  0.00  0.00    +0.000 C 
ATOM      2  C   UNL     1       5.898   5.012  15.832  0.00  0.00    +0.000 C 
ENDROOT
BRANCH   1   6
ATOM      3  C   UNL     1       2.569   5.889  19.775  0.00  0.00    +0.000 A 
ATOM      4  C   UNL     1       2.753   6.834  18.765  0.00  0.00    +0.000 A 
ATOM      5  C   UNL     1       3.422   6.496  17.587  0.00  0.00    +0.000 A 
ATOM      6  C   UNL     1       3.931   5.207  17.416  0.00  0.00    +0.000 A 
ATOM      7  C   UNL     1       3.756   4.259  18.429  0.00  0.00    +0.000 A 
ATOM      8  C   UNL     1       3.077   4.601  19.607  0.00  0.00    +0.000 A 
BRANCH   3  10
ATOM      9  C   UNL     1       1.489   7.711  20.845  0.00  0.00    +0.000 C 
ATOM     10  O   UNL     1       1.905   6.352  20.877  0.00  0.00    +0.000 OA
ENDBRANCH   3  10
ENDBRANCH   1   6
BRANCH   2  11
ATOM     11  C   UNL     1       6.389   4.648  14.500  0.00  0.00    +0.000 A 
ATOM     12  C   UNL     1       7.481   5.335  13.950  0.00  0.00    +0.000 A 
ATOM     13  C   UNL     1       7.886   5.081  12.638  0.00  0.00    +0.000 A 
ATOM     14  C   UNL     1       7.206   4.138  11.869  0.00  0.00    +0.000 A 
ATOM     15  C   UNL     1       6.134   3.433  12.415  0.00  0.00    +0.000 A 
ATOM     16  C   UNL     1       5.724   3.686  13.727  0.00  0.00    +0.000 A 
ENDBRANCH   2  11
BRANCH   2  17
ATOM     17  N   UNL     1       6.795   5.615  16.803  0.00  0.00    +0.000 N 
ATOM     18  O   UNL     1       6.838   6.851  16.825  0.00  0.00    +0.000 OA
ATOM     19  O   UNL     1       7.408   4.854  17.566  0.00  0.00    +0.000 OA
ENDBRANCH   2  17
TORSDOF 4
ENDMDL
MODEL 6
REMARK VINA RESULT:      -6.6      0.810      1.420
REMARK  Name = 
REMARK  5 active torsions:
REMARK  status: ('A' for Active; 'I' for Inactive)
REMARK    1  A    between atoms: C_1  and  O_2
REMARK    2  A    between atoms: O_2  and  C_3
REMARK    3  A    between atoms: C_6  and  C_7
REMARK    4  A    between atoms: C_8  and  C_9
REMARK    5  A    between atoms: C_8  and  N_15
REMARK                            x       y       z     vdW  Elec       q    Type
REMARK                         _______ _______ _______ _____ _____    ______ ____
ROOT
ATOM      1  C   UNL     1       4.747   4.294  16.087  0.00  0.00    +0.000 C 
ATOM      2  C   UNL     1       5.888   4.840  15.622  0.00  0.00    +0.000 C 
ENDROOT
BRANCH   1   6
ATOM      3  C   UNL     1       2.893   4.719  19.913  0.00  0.00    +0.000 A 
ATOM      4  C   UNL     1       2.700   5.679  18.919  0.00  0.00    +0.000 A 
ATOM      5  C   UNL     1       3.310   5.542  17.670  0.00  0.00    +0.000 A 
ATOM      6  C   UNL     1       4.138   4.447  17.410  0.00  0.00    +0.000 A 
ATOM      7  C   UNL     1       4.341   3.488  18.407  0.00  0.00    +0.000 A 
ATOM      8  C   UNL     1       3.720   3.625  19.657  0.00  0.00    +0.000 A 
BRANCH   3  10
ATOM      9  C   UNL     1       1.381   6.106  21.106  0.00  0.00    +0.000 C 
ATOM     10  O   UNL     1       2.245   4.977  21.089  0.00  0.00    +0.000 OA
ENDBRANCH   3  10
ENDBRANCH   1   6
BRANCH   2  11
ATOM     11  C   UNL     1       6.321   4.623  14.239  0.00  0.00    +0.000 A 
ATOM     12  C   UNL     1       5.660   3.675  13.444  0.00  0.00    +0.000 A 
ATOM     13  C   UNL     1       6.133   3.372  12.166  0.00  0.00    +0.000 A 
ATOM     14  C   UNL     1       7.266   4.017  11.672  0.00  0.00    +0.000 A 
ATOM     15  C   UNL     1       7.916   4.977  12.445  0.00  0.00    +0.000 A 
ATOM     16  C   UNL     1       7.447   5.282  13.726  0.00  0.00    +0.000 A 
ENDBRANCH   2  11
BRANCH   2  17
ATOM     17  N   UNL     1       6.655   5.704  16.503  0.00  0.00    +0.000 N 
ATOM     18  O   UNL     1       7.591   5.178  17.117  0.00  0.00    +0.000 OA
ATOM     19  O   UNL     1       6.349   6.905  16.535  0.00  0.00    +0.000 OA
ENDBRANCH   2  17
TORSDOF 4
ENDMDL
MODEL 7
REMARK VINA RESULT:      -6.5      1.768      6.935
REMARK  Name = 
REMARK  5 active torsions:
REMARK  status: ('A' for Active; 'I' for Inactive)
REMARK    1  A    between atoms: C_1  and  O_2
REMARK    2  A    between atoms: O_2  and  C_3
REMARK    3  A    between atoms: C_6  and  C_7
REMARK    4  A    between atoms: C_8  and  C_9
REMARK    5  A    between atoms: C_8  and  N_15
REMARK                            x       y       z     vdW  Elec       q    Type
REMARK                         _______ _______ _______ _____ _____    ______ ____
ROOT
ATOM      1  C   UNL     1       4.381   3.605  17.430  0.00  0.00    +0.000 C 
ATOM      2  C   UNL     1       3.850   4.325  18.437  0.00  0.00    +0.000 C 
ENDROOT
BRANCH   1   6
ATOM      3  C   UNL     1       7.083   4.958  14.409  0.00  0.00    +0.000 A 
ATOM      4  C   UNL     1       5.789   4.556  14.077  0.00  0.00    +0.000 A 
ATOM      5  C   UNL     1       4.908   4.109  15.064  0.00  0.00    +0.000 A 
ATOM      6  C   UNL     1       5.322   4.043  16.396  0.00  0.00    +0.000 A 
ATOM      7  C   UNL     1       6.622   4.437  16.731  0.00  0.00    +0.000 A 
ATOM      8  C   UNL     1       7.500   4.893  15.738  0.00  0.00    +0.000 A 
BRANCH   3  10
ATOM      9  C   UNL     1       7.472   4.871  12.069  0.00  0.00    +0.000 C 
ATOM     10  O   UNL     1       7.844   5.366  13.349  0.00  0.00    +0.000 OA
ENDBRANCH   3  10
ENDBRANCH   1   6
BRANCH   2  11
ATOM     11  C   UNL     1       2.961   3.704  19.423  0.00  0.00    +0.000 A 
ATOM     12  C   UNL     1       1.584   3.964  19.379  0.00  0.00    +0.000 A 
ATOM     13  C   UNL     1       0.741   3.475  20.379  0.00  0.00    +0.000 A 
ATOM     14  C   UNL     1       1.267   2.722  21.427  0.00  0.00    +0.000 A 
ATOM     15  C   UNL     1       2.632   2.439  21.467  0.00  0.00    +0.000 A 
ATOM     16  C   UNL     1       3.480   2.928  20.470  0.00  0.00    +0.000 A 
ENDBRANCH   2  11
BRANCH   2  17
ATOM     17  N   UNL     1       4.225   5.723  18.567  0.00  0.00    +0.000 N 
ATOM     18  O   UNL     1       3.583   6.533  17.888  0.00  0.00    +0.000 OA
ATOM     19  O   UNL     1       5.119   6.003  19.378  0.00  0.00    +0.000 OA
ENDBRANCH   2  17
TORSDOF 4
ENDMDL
MODEL 8
REMARK VINA RESULT:      -6.4      1.815      6.901
REMARK  Name = 
REMARK  5 active torsions:
REMARK  status: ('A' for Active; 'I' for Inactive)
REMARK    1  A    between atoms: C_1  and  O_2
REMARK    2  A    between atoms: O_2  and  C_3
REMARK    3  A    between atoms: C_6  and  C_7
REMARK    4  A    between atoms: C_8  and  C_9
REMARK    5  A    between atoms: C_8  and  N_15
REMARK                            x       y       z     vdW  Elec       q    Type
REMARK                         _______ _______ _______ _____ _____    ______ ____
ROOT
ATOM      1  C   UNL     1       4.362   3.647  17.478  0.00  0.00    +0.000 C 
ATOM      2  C   UNL     1       3.814   4.339  18.495  0.00  0.00    +0.000 C 
ENDROOT
BRANCH   1   6
ATOM      3  C   UNL     1       7.154   4.946  14.515  0.00  0.00    +0.000 A 
ATOM      4  C   UNL     1       7.525   4.873  15.859  0.00  0.00    +0.000 A 
ATOM      5  C   UNL     1       6.610   4.454  16.827  0.00  0.00    +0.000 A 
ATOM      6  C   UNL     1       5.305   4.118  16.461  0.00  0.00    +0.000 A 
ATOM      7  C   UNL     1       4.928   4.197  15.116  0.00  0.00    +0.000 A 
ATOM      8  C   UNL     1       5.851   4.611  14.146  0.00  0.00    +0.000 A 
BRANCH   3  10
ATOM      9  C   UNL     1       7.819   5.429  12.289  0.00  0.00    +0.000 C 
ATOM     10  O   UNL     1       8.141   5.377  13.673  0.00  0.00    +0.000 OA
ENDBRANCH   3  10
ENDBRANCH   1   6
BRANCH   2  11
ATOM     11  C   UNL     1       2.926   3.686  19.462  0.00  0.00    +0.000 A 
ATOM     12  C   UNL     1       1.536   3.823  19.333  0.00  0.00    +0.000 A 
ATOM     13  C   UNL     1       0.683   3.306  20.309  0.00  0.00    +0.000 A 
ATOM     14  C   UNL     1       1.210   2.647  21.418  0.00  0.00    +0.000 A 
ATOM     15  C   UNL     1       2.589   2.485  21.543  0.00  0.00    +0.000 A 
ATOM     16  C   UNL     1       3.448   3.002  20.569  0.00  0.00    +0.000 A 
ENDBRANCH   2  11
BRANCH   2  17
ATOM     17  N   UNL     1       4.167   5.739  18.656  0.00  0.00    +0.000 N 
ATOM     18  O   UNL     1       5.086   5.991  19.445  0.00  0.00    +0.000 OA
ATOM     19  O   UNL     1       3.562   6.566  17.959  0.00  0.00    +0.000 OA
ENDBRANCH   2  17
TORSDOF 4
ENDMDL
MODEL 9
REMARK VINA RESULT:      -6.3      1.669      6.949
REMARK  Name = 
REMARK  5 active torsions:
REMARK  status: ('A' for Active; 'I' for Inactive)
REMARK    1  A    between atoms: C_1  and  O_2
REMARK    2  A    between atoms: O_2  and  C_3
REMARK    3  A    between atoms: C_6  and  C_7
REMARK    4  A    between atoms: C_8  and  C_9
REMARK    5  A    between atoms: C_8  and  N_15
REMARK                            x       y       z     vdW  Elec       q    Type
REMARK                         _______ _______ _______ _____ _____    ______ ____
ROOT
ATOM      1  C   UNL     1       3.950   3.947  17.294  0.00  0.00    +0.000 C 
ATOM      2  C   UNL     1       4.080   4.109  18.625  0.00  0.00    +0.000 C 
ENDROOT
BRANCH   1   6
ATOM      3  C   UNL     1       6.756   5.057  14.269  0.00  0.00    +0.000 A 
ATOM      4  C   UNL     1       6.080   6.032  15.005  0.00  0.00    +0.000 A 
ATOM      5  C   UNL     1       5.160   5.668  15.990  0.00  0.00    +0.000 A 
ATOM      6  C   UNL     1       4.892   4.320  16.236  0.00  0.00    +0.000 A 
ATOM      7  C   UNL     1       5.561   3.340  15.495  0.00  0.00    +0.000 A 
ATOM      8  C   UNL     1       6.491   3.709  14.512  0.00  0.00    +0.000 A 
BRANCH   3  10
ATOM      9  C   UNL     1       7.553   4.970  12.035  0.00  0.00    +0.000 C 
ATOM     10  O   UNL     1       7.624   5.547  13.332  0.00  0.00    +0.000 OA
ENDBRANCH   3  10
ENDBRANCH   1   6
BRANCH   2  11
ATOM     11  C   UNL     1       3.053   3.619  19.550  0.00  0.00    +0.000 A 
ATOM     12  C   UNL     1       1.725   4.048  19.405  0.00  0.00    +0.000 A 
ATOM     13  C   UNL     1       0.760   3.684  20.346  0.00  0.00    +0.000 A 
ATOM     14  C   UNL     1       1.113   2.888  21.434  0.00  0.00    +0.000 A 
ATOM     15  C   UNL     1       2.425   2.438  21.574  0.00  0.00    +0.000 A 
ATOM     16  C   UNL     1       3.395   2.801  20.636  0.00  0.00    +0.000 A 
ENDBRANCH   2  11
BRANCH   2  17
ATOM     17  N   UNL     1       5.290   4.728  19.137  0.00  0.00    +0.000 N 
ATOM     18  O   UNL     1       5.155   5.813  19.717  0.00  0.00    +0.000 OA
ATOM     19  O   UNL     1       6.353   4.106  18.999  0.00  0.00    +0.000 OA
ENDBRANCH   2  17
TORSDOF 4
ENDMDL
