MODEL 1
REMARK VINA RESULT:      -7.4      0.000      0.000
REMARK  Name = 
REMARK  6 active torsions:
REMARK  status: ('A' for Active; 'I' for Inactive)
REMARK    1  A    between atoms: C_1  and  C_2
REMARK    2  A    between atoms: C_4  and  S_5
REMARK    3  A    between atoms: S_5  and  C_6
REMARK    4  A    between atoms: C_6  and  C_7
REMARK    5  A    between atoms: C_10  and  N_11
REMARK    6  A    between atoms: C_17  and  O_18
REMARK                            x       y       z     vdW  Elec       q    Type
REMARK                         _______ _______ _______ _____ _____    ______ ____
ROOT
ATOM      1  S   UNL     1       6.724   4.732  16.596  0.00  0.00    +0.000 S 
ENDROOT
BRANCH   1   5
ATOM      2  C   UNL     1       5.559   2.815  11.911  0.00  0.00    +0.000 C 
ATOM      3  C   UNL     1       6.369   3.749  12.758  0.00  0.00    +0.000 A 
ATOM      4  C   UNL     1       6.229   3.762  14.128  0.00  0.00    +0.000 A 
ATOM      5  C   UNL     1       6.995   4.677  14.832  0.00  0.00    +0.000 A 
ATOM      6  N   UNL     1       7.861   5.519  14.245  0.00  0.00    +0.000 NA
ATOM      7  C   UNL     1       7.913   5.407  12.914  0.00  0.00    +0.000 A 
ATOM      8  N   UNL     1       7.220   4.576  12.129  0.00  0.00    +0.000 NA
BRANCH   7   9
ATOM      9  O   UNL     1       8.776   6.254  12.294  0.00  0.00    +0.000 OA
ATOM     10  H   UNL     1       9.208   5.633  11.688  0.00  0.00    +0.000 HD
ENDBRANCH   7   9
ENDBRANCH   1   5
BRANCH   1  11
ATOM     11  C   UNL     1       5.204   5.732  16.761  0.00  0.00    +0.000 C 
BRANCH  11  12
ATOM     12  C   UNL     1       4.076   4.946  17.422  0.00  0.00    +0.000 A 
ATOM     13  C   UNL     1       2.995   5.593  18.052  0.00  0.00    +0.000 A 
ATOM     14  C   UNL     1       1.965   4.866  18.657  0.00  0.00    +0.000 A 
ATOM     15  C   UNL     1       1.988   3.469  18.608  0.00  0.00    +0.000 A 
ATOM     16  C   UNL     1       3.034   2.802  17.956  0.00  0.00    +0.000 A 
ATOM     17  C   UNL     1       4.071   3.542  17.372  0.00  0.00    +0.000 A 
BRANCH  15  18
ATOM     18  N   UNL     1       0.903   2.704  19.233  0.00  0.00    +0.000 N 
ATOM     19  O   UNL     1       0.143   2.065  18.489  0.00  0.00    +0.000 OA
ATOM     20  O   UNL     1       0.809   2.740  20.467  0.00  0.00    +0.000 OA
ENDBRANCH  15  18
ENDBRANCH  11  12
ENDBRANCH   1  11
TORSDOF 5
ENDMDL
MODEL 2
REMARK VINA RESULT:      -7.3      3.279      4.465
REMARK  Name = 
REMARK  6 active torsions:
REMARK  status: ('A' for Active; 'I' for Inactive)
REMARK    1  A    between atoms: C_1  and  C_2
REMARK    2  A    between atoms: C_4  and  S_5
REMARK    3  A    between atoms: S_5  and  C_6
REMARK    4  A    between atoms: C_6  and  C_7
REMARK    5  A    between atoms: C_10  and  N_11
REMARK    6  A    between atoms: C_17  and  O_18
REMARK                            x       y       z     vdW  Elec       q    Type
REMARK                         _______ _______ _______ _____ _____    ______ ____
ROOT
ATOM      1  S   UNL     1       6.622   4.209  15.926  0.00  0.00    +0.000 S 
ENDROOT
BRANCH   1   5
ATOM      2  C   UNL     1       7.973   8.907  17.680  0.00  0.00    +0.000 C 
ATOM      3  C   UNL     1       7.821   7.436  17.919  0.00  0.00    +0.000 A 
ATOM      4  C   UNL     1       7.399   6.596  16.912  0.00  0.00    +0.000 A 
ATOM      5  C   UNL     1       7.258   5.255  17.226  0.00  0.00    +0.000 A 
ATOM      6  N   UNL     1       7.525   4.750  18.441  0.00  0.00    +0.000 NA
ATOM      7  C   UNL     1       7.934   5.661  19.332  0.00  0.00    +0.000 A 
ATOM      8  N   UNL     1       8.097   6.975  19.151  0.00  0.00    +0.000 NA
BRANCH   7   9
ATOM      9  O   UNL     1       8.204   5.178  20.573  0.00  0.00    +0.000 OA
ATOM     10  H   UNL     1       7.908   5.929  21.109  0.00  0.00    +0.000 HD
ENDBRANCH   7   9
ENDBRANCH   1   5
BRANCH   1  11
ATOM     11  C   UNL     1       4.873   4.719  15.787  0.00  0.00    +0.000 C 
BRANCH  11  12
ATOM     12  C   UNL     1       4.087   4.405  17.056  0.00  0.00    +0.000 A 
ATOM     13  C   UNL     1       3.992   3.093  17.561  0.00  0.00    +0.000 A 
ATOM     14  C   UNL     1       3.268   2.813  18.724  0.00  0.00    +0.000 A 
ATOM     15  C   UNL     1       2.655   3.857  19.421  0.00  0.00    +0.000 A 
ATOM     16  C   UNL     1       2.765   5.175  18.960  0.00  0.00    +0.000 A 
ATOM     17  C   UNL     1       3.475   5.441  17.781  0.00  0.00    +0.000 A 
BRANCH  15  18
ATOM     18  N   UNL     1       1.904   3.566  20.648  0.00  0.00    +0.000 N 
ATOM     19  O   UNL     1       2.226   4.173  21.680  0.00  0.00    +0.000 OA
ATOM     20  O   UNL     1       0.990   2.732  20.581  0.00  0.00    +0.000 OA
ENDBRANCH  15  18
ENDBRANCH  11  12
ENDBRANCH   1  11
TORSDOF 5
ENDMDL
MODEL 3
REMARK VINA RESULT:      -7.2      1.064      1.372
REMARK  Name = 
REMARK  6 active torsions:
REMARK  status: ('A' for Active; 'I' for Inactive)
REMARK    1  A    between atoms: C_1  and  C_2
REMARK    2  A    between atoms: C_4  and  S_5
REMARK    3  A    between atoms: S_5  and  C_6
REMARK    4  A    between atoms: C_6  and  C_7
REMARK    5  A    between atoms: C_10  and  N_11
REMARK    6  A    between atoms: C_17  and  O_18
REMARK                            x       y       z     vdW  Elec       q    Type
REMARK                         _______ _______ _______ _____ _____    ______ ____
ROOT
ATOM      1  S   UNL     1       6.580   4.650  16.622  0.00  0.00    +0.000 S 
ENDROOT
BRANCH   1   5
ATOM      2  C   UNL     1       5.587   2.809  11.868  0.00  0.00    +0.000 C 
ATOM      3  C   UNL     1       6.359   3.736  12.757  0.00  0.00    +0.000 A 
ATOM      4  C   UNL     1       6.175   3.722  14.123  0.00  0.00    +0.000 A 
ATOM      5  C   UNL     1       6.909   4.631  14.868  0.00  0.00    +0.000 A 
ATOM      6  N   UNL     1       7.783   5.493  14.325  0.00  0.00    +0.000 NA
ATOM      7  C   UNL     1       7.880   5.406  12.994  0.00  0.00    +0.000 A 
ATOM      8  N   UNL     1       7.221   4.583  12.171  0.00  0.00    +0.000 NA
BRANCH   7   9
ATOM      9  O   UNL     1       8.753   6.273  12.418  0.00  0.00    +0.000 OA
ATOM     10  H   UNL     1       9.138   6.669  13.214  0.00  0.00    +0.000 HD
ENDBRANCH   7   9
ENDBRANCH   1   5
BRANCH   1  11
ATOM     11  C   UNL     1       4.912   5.387  16.735  0.00  0.00    +0.000 C 
BRANCH  11  12
ATOM     12  C   UNL     1       4.116   4.814  17.903  0.00  0.00    +0.000 A 
ATOM     13  C   UNL     1       2.808   5.252  18.192  0.00  0.00    +0.000 A 
ATOM     14  C   UNL     1       2.085   4.723  19.265  0.00  0.00    +0.000 A 
ATOM     15  C   UNL     1       2.654   3.715  20.048  0.00  0.00    +0.000 A 
ATOM     16  C   UNL     1       3.938   3.236  19.759  0.00  0.00    +0.000 A 
ATOM     17  C   UNL     1       4.661   3.789  18.694  0.00  0.00    +0.000 A 
BRANCH  15  18
ATOM     18  N   UNL     1       1.892   3.151  21.168  0.00  0.00    +0.000 N 
ATOM     19  O   UNL     1       2.480   2.999  22.249  0.00  0.00    +0.000 OA
ATOM     20  O   UNL     1       0.704   2.860  20.969  0.00  0.00    +0.000 OA
ENDBRANCH  15  18
ENDBRANCH  11  12
ENDBRANCH   1  11
TORSDOF 5
ENDMDL
MODEL 4
REMARK VINA RESULT:      -7.2      1.066      1.649
REMARK  Name = 
REMARK  6 active torsions:
REMARK  status: ('A' for Active; 'I' for Inactive)
REMARK    1  A    between atoms: C_1  and  C_2
REMARK    2  A    between atoms: C_4  and  S_5
REMARK    3  A    between atoms: S_5  and  C_6
REMARK    4  A    between atoms: C_6  and  C_7
REMARK    5  A    between atoms: C_10  and  N_11
REMARK    6  A    between atoms: C_17  and  O_18
REMARK                            x       y       z     vdW  Elec       q    Type
REMARK                         _______ _______ _______ _____ _____    ______ ____
ROOT
ATOM      1  S   UNL     1       6.615   4.622  16.574  0.00  0.00    +0.000 S 
ENDROOT
BRANCH   1   5
ATOM      2  C   UNL     1       5.619   2.771  11.824  0.00  0.00    +0.000 C 
ATOM      3  C   UNL     1       6.384   3.707  12.710  0.00  0.00    +0.000 A 
ATOM      4  C   UNL     1       6.208   3.690  14.076  0.00  0.00    +0.000 A 
ATOM      5  C   UNL     1       6.934   4.608  14.817  0.00  0.00    +0.000 A 
ATOM      6  N   UNL     1       7.794   5.482  14.270  0.00  0.00    +0.000 NA
ATOM      7  C   UNL     1       7.884   5.397  12.938  0.00  0.00    +0.000 A 
ATOM      8  N   UNL     1       7.232   4.566  12.119  0.00  0.00    +0.000 NA
BRANCH   7   9
ATOM      9  O   UNL     1       8.742   6.276  12.358  0.00  0.00    +0.000 OA
ATOM     10  H   UNL     1       9.562   6.026  12.810  0.00  0.00    +0.000 HD
ENDBRANCH   7   9
ENDBRANCH   1   5
BRANCH   1  11
ATOM     11  C   UNL     1       4.938   5.336  16.697  0.00  0.00    +0.000 C 
BRANCH  11  12
ATOM     12  C   UNL     1       4.145   4.729  17.849  0.00  0.00    +0.000 A 
ATOM     13  C   UNL     1       4.751   3.883  18.799  0.00  0.00    +0.000 A 
ATOM     14  C   UNL     1       4.017   3.329  19.852  0.00  0.00    +0.000 A 
ATOM     15  C   UNL     1       2.664   3.646  19.989  0.00  0.00    +0.000 A 
ATOM     16  C   UNL     1       2.046   4.515  19.079  0.00  0.00    +0.000 A 
ATOM     17  C   UNL     1       2.786   5.047  18.016  0.00  0.00    +0.000 A 
BRANCH  15  18
ATOM     18  N   UNL     1       1.894   3.075  21.101  0.00  0.00    +0.000 N 
ATOM     19  O   UNL     1       2.462   2.956  22.196  0.00  0.00    +0.000 OA
ATOM     20  O   UNL     1       0.720   2.746  20.880  0.00  0.00    +0.000 OA
ENDBRANCH  15  18
ENDBRANCH  11  12
ENDBRANCH   1  11
TORSDOF 5
ENDMDL
MODEL 5
REMARK VINA RESULT:      -6.8      3.554      4.674
REMARK  Name = 
REMARK  6 active torsions:
REMARK  status: ('A' for Active; 'I' for Inactive)
REMARK    1  A    between atoms: C_1  and  C_2
REMARK    2  A    between atoms: C_4  and  S_5
REMARK    3  A    between atoms: S_5  and  C_6
REMARK    4  A    between atoms: C_6  and  C_7
REMARK    5  A    between atoms: C_10  and  N_11
REMARK    6  A    between atoms: C_17  and  O_18
REMARK                            x       y       z     vdW  Elec       q    Type
REMARK                         _______ _______ _______ _____ _____    ______ ____
ROOT
ATOM      1  S   UNL     1       4.793   3.684  18.781  0.00  0.00    +0.000 S 
ENDROOT
BRANCH   1   5
ATOM      2  C   UNL     1       7.800   7.788  17.735  0.00  0.00    +0.000 C 
ATOM      3  C   UNL     1       7.138   6.524  17.277  0.00  0.00    +0.000 A 
ATOM      4  C   UNL     1       6.321   5.807  18.124  0.00  0.00    +0.000 A 
ATOM      5  C   UNL     1       5.772   4.636  17.630  0.00  0.00    +0.000 A 
ATOM      6  N   UNL     1       5.986   4.191  16.381  0.00  0.00    +0.000 NA
ATOM      7  C   UNL     1       6.789   4.975  15.653  0.00  0.00    +0.000 A 
ATOM      8  N   UNL     1       7.382   6.115  16.021  0.00  0.00    +0.000 NA
BRANCH   7   9
ATOM      9  O   UNL     1       7.028   4.543  14.388  0.00  0.00    +0.000 OA
ATOM     10  H   UNL     1       6.894   5.372  13.904  0.00  0.00    +0.000 HD
ENDBRANCH   7   9
ENDBRANCH   1   5
BRANCH   1  11
ATOM     11  C   UNL     1       3.074   4.070  18.299  0.00  0.00    +0.000 C 
BRANCH  11  12
ATOM     12  C   UNL     1       2.583   5.366  18.935  0.00  0.00    +0.000 A 
ATOM     13  C   UNL     1       2.059   5.397  20.242  0.00  0.00    +0.000 A 
ATOM     14  C   UNL     1       1.609   6.589  20.817  0.00  0.00    +0.000 A 
ATOM     15  C   UNL     1       1.714   7.782  20.098  0.00  0.00    +0.000 A 
ATOM     16  C   UNL     1       2.266   7.785  18.810  0.00  0.00    +0.000 A 
ATOM     17  C   UNL     1       2.693   6.581  18.236  0.00  0.00    +0.000 A 
BRANCH  15  18
ATOM     18  N   UNL     1       1.253   9.037  20.705  0.00  0.00    +0.000 N 
ATOM     19  O   UNL     1       0.842   9.928  19.948  0.00  0.00    +0.000 OA
ATOM     20  O   UNL     1       1.301   9.132  21.939  0.00  0.00    +0.000 OA
ENDBRANCH  15  18
ENDBRANCH  11  12
ENDBRANCH   1  11
TORSDOF 5
ENDMDL
MODEL 6
REMARK VINA RESULT:      -6.8      4.302      5.119
REMARK  Name = 
REMARK  6 active torsions:
REMARK  status: ('A' for Active; 'I' for Inactive)
REMARK    1  A    between atoms: C_1  and  C_2
REMARK    2  A    between atoms: C_4  and  S_5
REMARK    3  A    between atoms: S_5  and  C_6
REMARK    4  A    between atoms: C_6  and  C_7
REMARK    5  A    between atoms: C_10  and  N_11
REMARK    6  A    between atoms: C_17  and  O_18
REMARK                            x       y       z     vdW  Elec       q    Type
REMARK                         _______ _______ _______ _____ _____    ______ ____
ROOT
ATOM      1  S   UNL     1       3.347   3.842  18.442  0.00  0.00    +0.000 S 
ENDROOT
BRANCH   1   5
ATOM      2  C   UNL     1       6.664   4.321  14.474  0.00  0.00    +0.000 C 
ATOM      3  C   UNL     1       6.409   4.332  15.951  0.00  0.00    +0.000 A 
ATOM      4  C   UNL     1       5.157   4.055  16.454  0.00  0.00    +0.000 A 
ATOM      5  C   UNL     1       5.002   4.115  17.829  0.00  0.00    +0.000 A 
ATOM      6  N   UNL     1       6.005   4.408  18.672  0.00  0.00    +0.000 NA
ATOM      7  C   UNL     1       7.173   4.649  18.066  0.00  0.00    +0.000 A 
ATOM      8  N   UNL     1       7.441   4.632  16.757  0.00  0.00    +0.000 NA
BRANCH   7   9
ATOM      9  O   UNL     1       8.204   4.956  18.896  0.00  0.00    +0.000 OA
ATOM     10  H   UNL     1       7.808   4.708  19.746  0.00  0.00    +0.000 HD
ENDBRANCH   7   9
ENDBRANCH   1   5
BRANCH   1  11
ATOM     11  C   UNL     1       3.239   4.957  19.886  0.00  0.00    +0.000 C 
BRANCH  11  12
ATOM     12  C   UNL     1       2.701   6.331  19.504  0.00  0.00    +0.000 A 
ATOM     13  C   UNL     1       1.921   7.094  20.396  0.00  0.00    +0.000 A 
ATOM     14  C   UNL     1       1.429   8.352  20.038  0.00  0.00    +0.000 A 
ATOM     15  C   UNL     1       1.744   8.883  18.784  0.00  0.00    +0.000 A 
ATOM     16  C   UNL     1       2.548   8.161  17.893  0.00  0.00    +0.000 A 
ATOM     17  C   UNL     1       3.017   6.891  18.255  0.00  0.00    +0.000 A 
BRANCH  15  18
ATOM     18  N   UNL     1       1.238  10.209  18.410  0.00  0.00    +0.000 N 
ATOM     19  O   UNL     1       2.068  11.099  18.173  0.00  0.00    +0.000 OA
ATOM     20  O   UNL     1       0.010  10.362  18.353  0.00  0.00    +0.000 OA
ENDBRANCH  15  18
ENDBRANCH  11  12
ENDBRANCH   1  11
TORSDOF 5
ENDMDL
MODEL 7
REMARK VINA RESULT:      -6.8      2.593      3.079
REMARK  Name = 
REMARK  6 active torsions:
REMARK  status: ('A' for Active; 'I' for Inactive)
REMARK    1  A    between atoms: C_1  and  C_2
REMARK    2  A    between atoms: C_4  and  S_5
REMARK    3  A    between atoms: S_5  and  C_6
REMARK    4  A    between atoms: C_6  and  C_7
REMARK    5  A    between atoms: C_10  and  N_11
REMARK    6  A    between atoms: C_17  and  O_18
REMARK                            x       y       z     vdW  Elec       q    Type
REMARK                         _______ _______ _______ _____ _____    ______ ____
ROOT
ATOM      1  S   UNL     1       6.706   4.533  16.758  0.00  0.00    +0.000 S 
ENDROOT
BRANCH   1   5
ATOM      2  C   UNL     1       5.482   2.902  11.981  0.00  0.00    +0.000 C 
ATOM      3  C   UNL     1       6.316   3.771  12.873  0.00  0.00    +0.000 A 
ATOM      4  C   UNL     1       6.181   3.712  14.243  0.00  0.00    +0.000 A 
ATOM      5  C   UNL     1       6.970   4.568  14.992  0.00  0.00    +0.000 A 
ATOM      6  N   UNL     1       7.852   5.422  14.449  0.00  0.00    +0.000 NA
ATOM      7  C   UNL     1       7.898   5.382  13.113  0.00  0.00    +0.000 A 
ATOM      8  N   UNL     1       7.184   4.611  12.287  0.00  0.00    +0.000 NA
BRANCH   7   9
ATOM      9  O   UNL     1       8.778   6.242  12.537  0.00  0.00    +0.000 OA
ATOM     10  H   UNL     1       8.660   5.998  11.606  0.00  0.00    +0.000 HD
ENDBRANCH   7   9
ENDBRANCH   1   5
BRANCH   1  11
ATOM     11  C   UNL     1       4.949   4.056  16.916  0.00  0.00    +0.000 C 
BRANCH  11  12
ATOM     12  C   UNL     1       4.099   5.195  17.467  0.00  0.00    +0.000 A 
ATOM     13  C   UNL     1       3.083   4.967  18.416  0.00  0.00    +0.000 A 
ATOM     14  C   UNL     1       2.306   6.016  18.915  0.00  0.00    +0.000 A 
ATOM     15  C   UNL     1       2.562   7.324  18.494  0.00  0.00    +0.000 A 
ATOM     16  C   UNL     1       3.592   7.582  17.579  0.00  0.00    +0.000 A 
ATOM     17  C   UNL     1       4.349   6.519  17.069  0.00  0.00    +0.000 A 
BRANCH  15  18
ATOM     18  N   UNL     1       1.755   8.429  19.026  0.00  0.00    +0.000 N 
ATOM     19  O   UNL     1       1.490   8.420  20.237  0.00  0.00    +0.000 OA
ATOM     20  O   UNL     1       1.387   9.306  18.234  0.00  0.00    +0.000 OA
ENDBRANCH  15  18
ENDBRANCH  11  12
ENDBRANCH   1  11
TORSDOF 5
ENDMDL
MODEL 8
REMARK VINA RESULT:      -6.8      3.601      4.774
REMARK  Name = 
REMARK  6 active torsions:
REMARK  status: ('A' for Active; 'I' for Inactive)
REMARK    1  A    between atoms: C_1  and  C_2
REMARK    2  A    between atoms: C_4  and  S_5
REMARK    3  A    between atoms: S_5  and  C_6
REMARK    4  A    between atoms: C_6  and  C_7
REMARK    5  A    between atoms: C_10  and  N_11
REMARK    6  A    between atoms: C_17  and  O_18
REMARK                            x       y       z     vdW  Elec       q    Type
REMARK                         _______ _______ _______ _____ _____    ______ ____
ROOT
ATOM      1  S   UNL     1       4.706   3.844  18.779  0.00  0.00    +0.000 S 
ENDROOT
BRANCH   1   5
ATOM      2  C   UNL     1       7.784   7.878  17.672  0.00  0.00    +0.000 C 
ATOM      3  C   UNL     1       7.129   6.601  17.244  0.00  0.00    +0.000 A 
ATOM      4  C   UNL     1       6.275   5.927  18.090  0.00  0.00    +0.000 A 
ATOM      5  C   UNL     1       5.734   4.739  17.626  0.00  0.00    +0.000 A 
ATOM      6  N   UNL     1       5.990   4.240  16.406  0.00  0.00    +0.000 NA
ATOM      7  C   UNL     1       6.826   4.987  15.675  0.00  0.00    +0.000 A 
ATOM      8  N   UNL     1       7.415   6.137  16.017  0.00  0.00    +0.000 NA
BRANCH   7   9
ATOM      9  O   UNL     1       7.108   4.499  14.439  0.00  0.00    +0.000 OA
ATOM     10  H   UNL     1       8.033   4.241  14.572  0.00  0.00    +0.000 HD
ENDBRANCH   7   9
ENDBRANCH   1   5
BRANCH   1  11
ATOM     11  C   UNL     1       3.009   4.311  18.287  0.00  0.00    +0.000 C 
BRANCH  11  12
ATOM     12  C   UNL     1       2.538   5.574  19.000  0.00  0.00    +0.000 A 
ATOM     13  C   UNL     1       2.604   6.839  18.383  0.00  0.00    +0.000 A 
ATOM     14  C   UNL     1       2.172   7.993  19.044  0.00  0.00    +0.000 A 
ATOM     15  C   UNL     1       1.631   7.889  20.328  0.00  0.00    +0.000 A 
ATOM     16  C   UNL     1       1.520   6.638  20.949  0.00  0.00    +0.000 A 
ATOM     17  C   UNL     1       1.977   5.491  20.286  0.00  0.00    +0.000 A 
BRANCH  15  18
ATOM     18  N   UNL     1       1.166   9.098  21.019  0.00  0.00    +0.000 N 
ATOM     19  O   UNL     1       1.608   9.320  22.156  0.00  0.00    +0.000 OA
ATOM     20  O   UNL     1       0.360   9.827  20.425  0.00  0.00    +0.000 OA
ENDBRANCH  15  18
ENDBRANCH  11  12
ENDBRANCH   1  11
TORSDOF 5
ENDMDL
MODEL 9
REMARK VINA RESULT:      -6.7      4.815      5.797
REMARK  Name = 
REMARK  6 active torsions:
REMARK  status: ('A' for Active; 'I' for Inactive)
REMARK    1  A    between atoms: C_1  and  C_2
REMARK    2  A    between atoms: C_4  and  S_5
REMARK    3  A    between atoms: S_5  and  C_6
REMARK    4  A    between atoms: C_6  and  C_7
REMARK    5  A    between atoms: C_10  and  N_11
REMARK    6  A    between atoms: C_17  and  O_18
REMARK                            x       y       z     vdW  Elec       q    Type
REMARK                         _______ _______ _______ _____ _____    ______ ____
ROOT
ATOM      1  S   UNL     1       3.622   5.001  19.432  0.00  0.00    +0.000 S 
ENDROOT
BRANCH   1   5
ATOM      2  C   UNL     1       6.978   4.605  15.487  0.00  0.00    +0.000 C 
ATOM      3  C   UNL     1       6.726   4.782  16.954  0.00  0.00    +0.000 A 
ATOM      4  C   UNL     1       5.445   4.753  17.459  0.00  0.00    +0.000 A 
ATOM      5  C   UNL     1       5.300   4.953  18.822  0.00  0.00    +0.000 A 
ATOM      6  N   UNL     1       6.336   5.152  19.652  0.00  0.00    +0.000 NA
ATOM      7  C   UNL     1       7.529   5.151  19.046  0.00  0.00    +0.000 A 
ATOM      8  N   UNL     1       7.792   4.981  17.746  0.00  0.00    +0.000 NA
BRANCH   7   9
ATOM      9  O   UNL     1       8.594   5.359  19.863  0.00  0.00    +0.000 OA
ATOM     10  H   UNL     1       9.297   4.980  19.313  0.00  0.00    +0.000 HD
ENDBRANCH   7   9
ENDBRANCH   1   5
BRANCH   1  11
ATOM     11  C   UNL     1       2.741   5.993  18.175  0.00  0.00    +0.000 C 
BRANCH  11  12
ATOM     12  C   UNL     1       2.169   7.278  18.764  0.00  0.00    +0.000 A 
ATOM     13  C   UNL     1       1.884   8.397  17.959  0.00  0.00    +0.000 A 
ATOM     14  C   UNL     1       1.361   9.572  18.506  0.00  0.00    +0.000 A 
ATOM     15  C   UNL     1       1.082   9.629  19.874  0.00  0.00    +0.000 A 
ATOM     16  C   UNL     1       1.322   8.517  20.692  0.00  0.00    +0.000 A 
ATOM     17  C   UNL     1       1.867   7.352  20.135  0.00  0.00    +0.000 A 
BRANCH  15  18
ATOM     18  N   UNL     1       0.522  10.859  20.450  0.00  0.00    +0.000 N 
ATOM     19  O   UNL     1      -0.533  11.294  19.967  0.00  0.00    +0.000 OA
ATOM     20  O   UNL     1       1.136  11.388  21.386  0.00  0.00    +0.000 OA
ENDBRANCH  15  18
ENDBRANCH  11  12
ENDBRANCH   1  11
TORSDOF 5
ENDMDL
