MODEL 1
REMARK VINA RESULT:      -9.2      0.000      0.000
REMARK  Name = 
REMARK  13 active torsions:
REMARK  status: ('A' for Active; 'I' for Inactive)
REMARK    1  A    between atoms: C_1  and  C_2
REMARK    2  A    between atoms: C_2  and  C_3
REMARK    3  A    between atoms: C_2  and  O_4
REMARK    4  A    between atoms: O_4  and  C_5
REMARK    5  A    between atoms: C_7  and  C_8
REMARK    6  A    between atoms: C_8  and  C_9
REMARK    7  A    between atoms: C_8  and  C_16
REMARK    8  A    between atoms: C_19  and  C_20
REMARK    9  A    between atoms: C_20  and  C_21
REMARK   10  A    between atoms: C_20  and  C_22
REMARK   11  A    between atoms: C_20  and  O_23
REMARK   12  A    between atoms: C_28  and  O_29
REMARK   13  A    between atoms: O_29  and  C_30
REMARK                            x       y       z     vdW  Elec       q    Type
REMARK                         _______ _______ _______ _____ _____    ______ ____
ROOT
ATOM      1  C   UNL     1       2.550   5.846  18.366  0.00  0.00    +0.000 C 
ENDROOT
BRANCH   1   2
ATOM      2  C   UNL     1       2.107   4.728  19.301  0.00  0.00    +0.000 C 
ATOM      3  C   UNL     1       1.310   3.689  19.023  0.00  0.00    +0.000 C 
ATOM      4  C   UNL     1       0.891   2.682  20.043  0.00  0.00    +0.000 C 
ATOM      5  C   UNL     1       1.477   2.895  21.438  0.00  0.00    +0.000 C 
ATOM      6  O   UNL     1       1.193   2.102  22.335  0.00  0.00    +0.000 OA
ATOM      7  N   UNL     1       2.315   3.961  21.665  0.00  0.00    +0.000 NA
ATOM      8  C   UNL     1       2.583   4.785  20.707  0.00  0.00    +0.000 C 
ENDBRANCH   1   2
BRANCH   1  11
ATOM      9  C   UNL     1       5.815   5.760  16.296  0.00  0.00    +0.000 A 
ATOM     10  C   UNL     1       4.456   5.615  16.617  0.00  0.00    +0.000 A 
ATOM     11  C   UNL     1       4.016   5.605  17.966  0.00  0.00    +0.000 A 
ATOM     12  C   UNL     1       4.984   5.571  18.982  0.00  0.00    +0.000 A 
ATOM     13  C   UNL     1       6.325   5.778  18.674  0.00  0.00    +0.000 A 
ATOM     14  C   UNL     1       6.706   5.995  17.344  0.00  0.00    +0.000 A 
BRANCH   9  15
ATOM     15  O   UNL     1       6.128   5.863  14.961  0.00  0.00    +0.000 OA
BRANCH  15  17
ATOM     16  C   UNL     1       5.860   3.832  13.643  0.00  0.00    +0.000 C 
ATOM     17  C   UNL     1       6.843   4.767  14.344  0.00  0.00    +0.000 C 
ATOM     18  C   UNL     1       7.794   5.346  13.287  0.00  0.00    +0.000 C 
ENDBRANCH  15  17
ENDBRANCH   9  15
BRANCH  14  19
ATOM     19  O   UNL     1       7.918   6.616  17.175  0.00  0.00    +0.000 OA
BRANCH  19  20
ATOM     20  C   UNL     1       7.971   7.813  17.965  0.00  0.00    +0.000 C 
ATOM     21  F   UNL     1       8.874   7.693  18.972  0.00  0.00    +0.000 F 
ATOM     22  F   UNL     1       8.418   8.811  17.161  0.00  0.00    +0.000 F 
ENDBRANCH  19  20
ENDBRANCH  14  19
ENDBRANCH   1  11
BRANCH   1  23
ATOM     23  C   UNL     1       2.140   7.247  18.805  0.00  0.00    +0.000 A 
ATOM     24  C   UNL     1       1.741   7.495  20.127  0.00  0.00    +0.000 A 
ATOM     25  C   UNL     1       1.272   8.755  20.504  0.00  0.00    +0.000 A 
ATOM     26  C   UNL     1       1.203   9.762  19.545  0.00  0.00    +0.000 A 
ATOM     27  N   UNL     1       1.570   9.537  18.258  0.00  0.00    +0.000 NA
ATOM     28  C   UNL     1       2.016   8.306  17.915  0.00  0.00    +0.000 A 
BRANCH  26  29
ATOM     29  C   UNL     1       0.663  11.151  19.888  0.00  0.00    +0.000 C 
ATOM     30  C   UNL     1       1.213  12.210  18.920  0.00  0.00    +0.000 C 
ATOM     31  C   UNL     1      -0.867  11.148  19.844  0.00  0.00    +0.000 C 
BRANCH  29  32
ATOM     32  O   UNL     1       1.055  11.538  21.213  0.00  0.00    +0.000 OA
ATOM     33  H   UNL     1       0.417  12.210  21.510  0.00  0.00    +0.000 HD
ENDBRANCH  29  32
ENDBRANCH  26  29
ENDBRANCH   1  23
TORSDOF 9
ENDMDL
MODEL 2
REMARK VINA RESULT:      -8.8      0.714      1.254
REMARK  Name = 
REMARK  13 active torsions:
REMARK  status: ('A' for Active; 'I' for Inactive)
REMARK    1  A    between atoms: C_1  and  C_2
REMARK    2  A    between atoms: C_2  and  C_3
REMARK    3  A    between atoms: C_2  and  O_4
REMARK    4  A    between atoms: O_4  and  C_5
REMARK    5  A    between atoms: C_7  and  C_8
REMARK    6  A    between atoms: C_8  and  C_9
REMARK    7  A    between atoms: C_8  and  C_16
REMARK    8  A    between atoms: C_19  and  C_20
REMARK    9  A    between atoms: C_20  and  C_21
REMARK   10  A    between atoms: C_20  and  C_22
REMARK   11  A    between atoms: C_20  and  O_23
REMARK   12  A    between atoms: C_28  and  O_29
REMARK   13  A    between atoms: O_29  and  C_30
REMARK                            x       y       z     vdW  Elec       q    Type
REMARK                         _______ _______ _______ _____ _____    ______ ____
ROOT
ATOM      1  C   UNL     1       2.572   5.851  18.422  0.00  0.00    +0.000 C 
ENDROOT
BRANCH   1   2
ATOM      2  C   UNL     1       2.257   4.902  19.571  0.00  0.00    +0.000 C 
ATOM      3  C   UNL     1       2.754   4.921  20.813  0.00  0.00    +0.000 C 
ATOM      4  C   UNL     1       2.416   3.895  21.845  0.00  0.00    +0.000 C 
ATOM      5  C   UNL     1       1.417   2.831  21.394  0.00  0.00    +0.000 C 
ATOM      6  O   UNL     1       1.075   1.956  22.189  0.00  0.00    +0.000 OA
ATOM      7  N   UNL     1       0.913   2.873  20.117  0.00  0.00    +0.000 NA
ATOM      8  C   UNL     1       1.302   3.797  19.301  0.00  0.00    +0.000 C 
ENDBRANCH   1   2
BRANCH   1  11
ATOM      9  C   UNL     1       5.781   5.785  16.266  0.00  0.00    +0.000 A 
ATOM     10  C   UNL     1       4.437   5.614  16.630  0.00  0.00    +0.000 A 
ATOM     11  C   UNL     1       4.034   5.638  17.990  0.00  0.00    +0.000 A 
ATOM     12  C   UNL     1       5.028   5.668  18.979  0.00  0.00    +0.000 A 
ATOM     13  C   UNL     1       6.354   5.901  18.627  0.00  0.00    +0.000 A 
ATOM     14  C   UNL     1       6.693   6.082  17.281  0.00  0.00    +0.000 A 
BRANCH   9  15
ATOM     15  O   UNL     1       6.056   5.851  14.921  0.00  0.00    +0.000 OA
BRANCH  15  17
ATOM     16  C   UNL     1       5.830   3.818  13.598  0.00  0.00    +0.000 C 
ATOM     17  C   UNL     1       6.791   4.757  14.323  0.00  0.00    +0.000 C 
ATOM     18  C   UNL     1       7.765   5.339  13.290  0.00  0.00    +0.000 C 
ENDBRANCH  15  17
ENDBRANCH   9  15
BRANCH  14  19
ATOM     19  O   UNL     1       7.881   6.731  17.057  0.00  0.00    +0.000 OA
BRANCH  19  20
ATOM     20  C   UNL     1       7.961   7.907  17.875  0.00  0.00    +0.000 C 
ATOM     21  F   UNL     1       8.847   7.736  18.889  0.00  0.00    +0.000 F 
ATOM     22  F   UNL     1       8.447   8.909  17.100  0.00  0.00    +0.000 F 
ENDBRANCH  19  20
ENDBRANCH  14  19
ENDBRANCH   1  11
BRANCH   1  23
ATOM     23  C   UNL     1       2.076   7.280  18.618  0.00  0.00    +0.000 A 
ATOM     24  C   UNL     1       2.182   8.223  17.585  0.00  0.00    +0.000 A 
ATOM     25  C   UNL     1       1.818   9.554  17.797  0.00  0.00    +0.000 A 
ATOM     26  C   UNL     1       1.351   9.932  19.052  0.00  0.00    +0.000 A 
ATOM     27  N   UNL     1       1.255   9.038  20.068  0.00  0.00    +0.000 NA
ATOM     28  C   UNL     1       1.619   7.754  19.840  0.00  0.00    +0.000 A 
BRANCH  26  29
ATOM     29  C   UNL     1       0.973  11.382  19.356  0.00  0.00    +0.000 C 
ATOM     30  C   UNL     1       1.894  12.360  18.610  0.00  0.00    +0.000 C 
ATOM     31  C   UNL     1      -0.485  11.640  18.970  0.00  0.00    +0.000 C 
BRANCH  29  32
ATOM     32  O   UNL     1       1.102  11.660  20.759  0.00  0.00    +0.000 OA
ATOM     33  H   UNL     1       0.492  12.390  20.959  0.00  0.00    +0.000 HD
ENDBRANCH  29  32
ENDBRANCH  26  29
ENDBRANCH   1  23
TORSDOF 9
ENDMDL
MODEL 3
REMARK VINA RESULT:      -8.6      0.806      1.267
REMARK  Name = 
REMARK  13 active torsions:
REMARK  status: ('A' for Active; 'I' for Inactive)
REMARK    1  A    between atoms: C_1  and  C_2
REMARK    2  A    between atoms: C_2  and  C_3
REMARK    3  A    between atoms: C_2  and  O_4
REMARK    4  A    between atoms: O_4  and  C_5
REMARK    5  A    between atoms: C_7  and  C_8
REMARK    6  A    between atoms: C_8  and  C_9
REMARK    7  A    between atoms: C_8  and  C_16
REMARK    8  A    between atoms: C_19  and  C_20
REMARK    9  A    between atoms: C_20  and  C_21
REMARK   10  A    between atoms: C_20  and  C_22
REMARK   11  A    between atoms: C_20  and  O_23
REMARK   12  A    between atoms: C_28  and  O_29
REMARK   13  A    between atoms: O_29  and  C_30
REMARK                            x       y       z     vdW  Elec       q    Type
REMARK                         _______ _______ _______ _____ _____    ______ ____
ROOT
ATOM      1  C   UNL     1       2.635   5.688  18.264  0.00  0.00    +0.000 C 
ENDROOT
BRANCH   1   2
ATOM      2  C   UNL     1       2.150   4.626  19.243  0.00  0.00    +0.000 C 
ATOM      3  C   UNL     1       1.360   3.575  18.993  0.00  0.00    +0.000 C 
ATOM      4  C   UNL     1       0.897   2.629  20.052  0.00  0.00    +0.000 C 
ATOM      5  C   UNL     1       1.429   2.920  21.454  0.00  0.00    +0.000 C 
ATOM      6  O   UNL     1       1.106   2.180  22.382  0.00  0.00    +0.000 OA
ATOM      7  N   UNL     1       2.261   3.995  21.653  0.00  0.00    +0.000 NA
ATOM      8  C   UNL     1       2.571   4.762  20.661  0.00  0.00    +0.000 C 
ENDBRANCH   1   2
BRANCH   1  11
ATOM      9  C   UNL     1       6.119   5.775  16.589  0.00  0.00    +0.000 A 
ATOM     10  C   UNL     1       4.735   5.596  16.739  0.00  0.00    +0.000 A 
ATOM     11  C   UNL     1       4.142   5.489  18.023  0.00  0.00    +0.000 A 
ATOM     12  C   UNL     1       4.985   5.394  19.141  0.00  0.00    +0.000 A 
ATOM     13  C   UNL     1       6.349   5.634  19.006  0.00  0.00    +0.000 A 
ATOM     14  C   UNL     1       6.878   5.946  17.749  0.00  0.00    +0.000 A 
BRANCH   9  15
ATOM     15  O   UNL     1       6.583   5.973  15.311  0.00  0.00    +0.000 OA
BRANCH  15  17
ATOM     16  C   UNL     1       7.360   4.982  13.226  0.00  0.00    +0.000 C 
ATOM     17  C   UNL     1       6.294   4.960  14.319  0.00  0.00    +0.000 C 
ATOM     18  C   UNL     1       6.338   3.587  15.005  0.00  0.00    +0.000 C 
ENDBRANCH  15  17
ENDBRANCH   9  15
BRANCH  14  19
ATOM     19  O   UNL     1       8.090   6.589  17.764  0.00  0.00    +0.000 OA
BRANCH  19  20
ATOM     20  C   UNL     1       7.915   7.959  18.150  0.00  0.00    +0.000 C 
ATOM     21  F   UNL     1       8.928   8.373  18.954  0.00  0.00    +0.000 F 
ATOM     22  F   UNL     1       7.982   8.711  17.023  0.00  0.00    +0.000 F 
ENDBRANCH  19  20
ENDBRANCH  14  19
ENDBRANCH   1  11
BRANCH   1  23
ATOM     23  C   UNL     1       2.126   7.097  18.546  0.00  0.00    +0.000 A 
ATOM     24  C   UNL     1       2.111   8.069  17.534  0.00  0.00    +0.000 A 
ATOM     25  C   UNL     1       1.738   9.384  17.816  0.00  0.00    +0.000 A 
ATOM     26  C   UNL     1       1.385   9.718  19.120  0.00  0.00    +0.000 A 
ATOM     27  N   UNL     1       1.409   8.796  20.116  0.00  0.00    +0.000 NA
ATOM     28  C   UNL     1       1.778   7.529  19.819  0.00  0.00    +0.000 A 
BRANCH  26  29
ATOM     29  C   UNL     1       1.004  11.150  19.499  0.00  0.00    +0.000 C 
ATOM     30  C   UNL     1      -0.313  11.566  18.826  0.00  0.00    +0.000 C 
ATOM     31  C   UNL     1       0.877  11.277  21.019  0.00  0.00    +0.000 C 
BRANCH  29  32
ATOM     32  O   UNL     1       2.014  12.077  19.072  0.00  0.00    +0.000 OA
ATOM     33  H   UNL     1       2.002  12.076  18.099  0.00  0.00    +0.000 HD
ENDBRANCH  29  32
ENDBRANCH  26  29
ENDBRANCH   1  23
TORSDOF 9
ENDMDL
MODEL 4
REMARK VINA RESULT:      -8.2      1.774      2.938
REMARK  Name = 
REMARK  13 active torsions:
REMARK  status: ('A' for Active; 'I' for Inactive)
REMARK    1  A    between atoms: C_1  and  C_2
REMARK    2  A    between atoms: C_2  and  C_3
REMARK    3  A    between atoms: C_2  and  O_4
REMARK    4  A    between atoms: O_4  and  C_5
REMARK    5  A    between atoms: C_7  and  C_8
REMARK    6  A    between atoms: C_8  and  C_9
REMARK    7  A    between atoms: C_8  and  C_16
REMARK    8  A    between atoms: C_19  and  C_20
REMARK    9  A    between atoms: C_20  and  C_21
REMARK   10  A    between atoms: C_20  and  C_22
REMARK   11  A    between atoms: C_20  and  O_23
REMARK   12  A    between atoms: C_28  and  O_29
REMARK   13  A    between atoms: O_29  and  C_30
REMARK                            x       y       z     vdW  Elec       q    Type
REMARK                         _______ _______ _______ _____ _____    ______ ____
ROOT
ATOM      1  C   UNL     1       2.503   6.458  18.184  0.00  0.00    +0.000 C 
ENDROOT
BRANCH   1   2
ATOM      2  C   UNL     1       2.198   5.244  19.052  0.00  0.00    +0.000 C 
ATOM      3  C   UNL     1       1.591   4.106  18.692  0.00  0.00    +0.000 C 
ATOM      4  C   UNL     1       1.288   3.001  19.650  0.00  0.00    +0.000 C 
ATOM      5  C   UNL     1       1.762   3.241  21.083  0.00  0.00    +0.000 C 
ATOM      6  O   UNL     1       1.563   2.374  21.932  0.00  0.00    +0.000 OA
ATOM      7  N   UNL     1       2.406   4.414  21.395  0.00  0.00    +0.000 NA
ATOM      8  C   UNL     1       2.588   5.312  20.484  0.00  0.00    +0.000 C 
ENDBRANCH   1   2
BRANCH   1  11
ATOM      9  C   UNL     1       6.190   5.345  17.841  0.00  0.00    +0.000 A 
ATOM     10  C   UNL     1       4.990   5.757  18.442  0.00  0.00    +0.000 A 
ATOM     11  C   UNL     1       3.953   6.354  17.680  0.00  0.00    +0.000 A 
ATOM     12  C   UNL     1       4.215   6.683  16.341  0.00  0.00    +0.000 A 
ATOM     13  C   UNL     1       5.375   6.223  15.725  0.00  0.00    +0.000 A 
ATOM     14  C   UNL     1       6.288   5.452  16.453  0.00  0.00    +0.000 A 
BRANCH   9  15
ATOM     15  O   UNL     1       7.089   4.683  18.643  0.00  0.00    +0.000 OA
BRANCH  15  17
ATOM     16  C   UNL     1       8.142   6.878  18.705  0.00  0.00    +0.000 C 
ATOM     17  C   UNL     1       8.253   5.408  19.102  0.00  0.00    +0.000 C 
ATOM     18  C   UNL     1       8.299   5.327  20.634  0.00  0.00    +0.000 C 
ENDBRANCH  15  17
ENDBRANCH   9  15
BRANCH  14  19
ATOM     19  O   UNL     1       7.140   4.683  15.699  0.00  0.00    +0.000 OA
BRANCH  19  20
ATOM     20  C   UNL     1       6.807   4.802  14.309  0.00  0.00    +0.000 C 
ATOM     21  F   UNL     1       7.854   5.291  13.596  0.00  0.00    +0.000 F 
ATOM     22  F   UNL     1       6.571   3.550  13.839  0.00  0.00    +0.000 F 
ENDBRANCH  19  20
ENDBRANCH  14  19
ENDBRANCH   1  11
BRANCH   1  23
ATOM     23  C   UNL     1       2.029   7.789  18.757  0.00  0.00    +0.000 A 
ATOM     24  C   UNL     1       1.651   7.895  20.104  0.00  0.00    +0.000 A 
ATOM     25  C   UNL     1       1.125   9.088  20.604  0.00  0.00    +0.000 A 
ATOM     26  C   UNL     1       0.977  10.171  19.743  0.00  0.00    +0.000 A 
ATOM     27  N   UNL     1       1.323  10.083  18.433  0.00  0.00    +0.000 NA
ATOM     28  C   UNL     1       1.826   8.915  17.971  0.00  0.00    +0.000 A 
BRANCH  26  29
ATOM     29  C   UNL     1       0.372  11.491  20.221  0.00  0.00    +0.000 C 
ATOM     30  C   UNL     1       0.937  12.677  19.425  0.00  0.00    +0.000 C 
ATOM     31  C   UNL     1      -1.152  11.451  20.088  0.00  0.00    +0.000 C 
BRANCH  29  32
ATOM     32  O   UNL     1       0.677  11.721  21.605  0.00  0.00    +0.000 OA
ATOM     33  H   UNL     1       1.577  12.089  21.637  0.00  0.00    +0.000 HD
ENDBRANCH  29  32
ENDBRANCH  26  29
ENDBRANCH   1  23
TORSDOF 9
ENDMDL
MODEL 5
REMARK VINA RESULT:      -8.2      0.893      1.419
REMARK  Name = 
REMARK  13 active torsions:
REMARK  status: ('A' for Active; 'I' for Inactive)
REMARK    1  A    between atoms: C_1  and  C_2
REMARK    2  A    between atoms: C_2  and  C_3
REMARK    3  A    between atoms: C_2  and  O_4
REMARK    4  A    between atoms: O_4  and  C_5
REMARK    5  A    between atoms: C_7  and  C_8
REMARK    6  A    between atoms: C_8  and  C_9
REMARK    7  A    between atoms: C_8  and  C_16
REMARK    8  A    between atoms: C_19  and  C_20
REMARK    9  A    between atoms: C_20  and  C_21
REMARK   10  A    between atoms: C_20  and  C_22
REMARK   11  A    between atoms: C_20  and  O_23
REMARK   12  A    between atoms: C_28  and  O_29
REMARK   13  A    between atoms: O_29  and  C_30
REMARK                            x       y       z     vdW  Elec       q    Type
REMARK                         _______ _______ _______ _____ _____    ______ ____
ROOT
ATOM      1  C   UNL     1       2.547   5.993  18.481  0.00  0.00    +0.000 C 
ENDROOT
BRANCH   1   2
ATOM      2  C   UNL     1       2.225   5.030  19.617  0.00  0.00    +0.000 C 
ATOM      3  C   UNL     1       2.705   5.042  20.866  0.00  0.00    +0.000 C 
ATOM      4  C   UNL     1       2.363   4.003  21.884  0.00  0.00    +0.000 C 
ATOM      5  C   UNL     1       1.380   2.934  21.409  0.00  0.00    +0.000 C 
ATOM      6  O   UNL     1       1.036   2.048  22.191  0.00  0.00    +0.000 OA
ATOM      7  N   UNL     1       0.894   2.983  20.125  0.00  0.00    +0.000 NA
ATOM      8  C   UNL     1       1.285   3.918  19.323  0.00  0.00    +0.000 C 
ENDBRANCH   1   2
BRANCH   1  11
ATOM      9  C   UNL     1       5.723   5.931  16.277  0.00  0.00    +0.000 A 
ATOM     10  C   UNL     1       4.376   5.799  16.648  0.00  0.00    +0.000 A 
ATOM     11  C   UNL     1       3.990   5.741  18.012  0.00  0.00    +0.000 A 
ATOM     12  C   UNL     1       4.997   5.647  18.985  0.00  0.00    +0.000 A 
ATOM     13  C   UNL     1       6.329   5.840  18.631  0.00  0.00    +0.000 A 
ATOM     14  C   UNL     1       6.660   6.105  17.297  0.00  0.00    +0.000 A 
BRANCH   9  15
ATOM     15  O   UNL     1       5.984   6.084  14.936  0.00  0.00    +0.000 OA
BRANCH  15  17
ATOM     16  C   UNL     1       7.504   4.958  13.401  0.00  0.00    +0.000 C 
ATOM     17  C   UNL     1       6.169   4.890  14.140  0.00  0.00    +0.000 C 
ATOM     18  C   UNL     1       6.204   3.681  15.084  0.00  0.00    +0.000 C 
ENDBRANCH  15  17
ENDBRANCH   9  15
BRANCH  14  19
ATOM     19  O   UNL     1       7.877   6.710  17.103  0.00  0.00    +0.000 OA
BRANCH  19  20
ATOM     20  C   UNL     1       7.961   7.908  17.888  0.00  0.00    +0.000 C 
ATOM     21  F   UNL     1       8.861   7.770  18.894  0.00  0.00    +0.000 F 
ATOM     22  F   UNL     1       8.431   8.891  17.079  0.00  0.00    +0.000 F 
ENDBRANCH  19  20
ENDBRANCH  14  19
ENDBRANCH   1  11
BRANCH   1  23
ATOM     23  C   UNL     1       2.103   7.432  18.718  0.00  0.00    +0.000 A 
ATOM     24  C   UNL     1       1.588   7.827  19.962  0.00  0.00    +0.000 A 
ATOM     25  C   UNL     1       1.091   9.119  20.149  0.00  0.00    +0.000 A 
ATOM     26  C   UNL     1       1.112  10.009  19.079  0.00  0.00    +0.000 A 
ATOM     27  N   UNL     1       1.591   9.640  17.864  0.00  0.00    +0.000 NA
ATOM     28  C   UNL     1       2.062   8.382  17.706  0.00  0.00    +0.000 A 
BRANCH  26  29
ATOM     29  C   UNL     1       0.547  11.424  19.211  0.00  0.00    +0.000 C 
ATOM     30  C   UNL     1      -0.177  11.605  20.554  0.00  0.00    +0.000 C 
ATOM     31  C   UNL     1       1.671  12.454  19.080  0.00  0.00    +0.000 C 
BRANCH  29  32
ATOM     32  O   UNL     1      -0.407  11.692  18.172  0.00  0.00    +0.000 OA
ATOM     33  H   UNL     1       0.072  12.157  17.464  0.00  0.00    +0.000 HD
ENDBRANCH  29  32
ENDBRANCH  26  29
ENDBRANCH   1  23
TORSDOF 9
ENDMDL
MODEL 6
REMARK VINA RESULT:      -8.1      2.067      3.212
REMARK  Name = 
REMARK  13 active torsions:
REMARK  status: ('A' for Active; 'I' for Inactive)
REMARK    1  A    between atoms: C_1  and  C_2
REMARK    2  A    between atoms: C_2  and  C_3
REMARK    3  A    between atoms: C_2  and  O_4
REMARK    4  A    between atoms: O_4  and  C_5
REMARK    5  A    between atoms: C_7  and  C_8
REMARK    6  A    between atoms: C_8  and  C_9
REMARK    7  A    between atoms: C_8  and  C_16
REMARK    8  A    between atoms: C_19  and  C_20
REMARK    9  A    between atoms: C_20  and  C_21
REMARK   10  A    between atoms: C_20  and  C_22
REMARK   11  A    between atoms: C_20  and  O_23
REMARK   12  A    between atoms: C_28  and  O_29
REMARK   13  A    between atoms: O_29  and  C_30
REMARK                            x       y       z     vdW  Elec       q    Type
REMARK                         _______ _______ _______ _____ _____    ______ ____
ROOT
ATOM      1  C   UNL     1       2.466   6.594  18.016  0.00  0.00    +0.000 C 
ENDROOT
BRANCH   1   2
ATOM      2  C   UNL     1       2.058   5.245  18.595  0.00  0.00    +0.000 C 
ATOM      3  C   UNL     1       1.870   4.924  19.881  0.00  0.00    +0.000 C 
ATOM      4  C   UNL     1       1.528   3.544  20.338  0.00  0.00    +0.000 C 
ATOM      5  C   UNL     1       1.363   2.516  19.220  0.00  0.00    +0.000 C 
ATOM      6  O   UNL     1       1.069   1.357  19.511  0.00  0.00    +0.000 OA
ATOM      7  N   UNL     1       1.538   2.903  17.913  0.00  0.00    +0.000 NA
ATOM      8  C   UNL     1       1.861   4.124  17.640  0.00  0.00    +0.000 C 
ENDBRANCH   1   2
BRANCH   1  11
ATOM      9  C   UNL     1       6.175   5.519  17.823  0.00  0.00    +0.000 A 
ATOM     10  C   UNL     1       4.940   5.893  18.375  0.00  0.00    +0.000 A 
ATOM     11  C   UNL     1       3.943   6.524  17.589  0.00  0.00    +0.000 A 
ATOM     12  C   UNL     1       4.276   6.923  16.285  0.00  0.00    +0.000 A 
ATOM     13  C   UNL     1       5.471   6.501  15.712  0.00  0.00    +0.000 A 
ATOM     14  C   UNL     1       6.349   5.698  16.449  0.00  0.00    +0.000 A 
BRANCH   9  15
ATOM     15  O   UNL     1       7.033   4.820  18.638  0.00  0.00    +0.000 OA
BRANCH  15  17
ATOM     16  C   UNL     1       8.186   6.964  18.713  0.00  0.00    +0.000 C 
ATOM     17  C   UNL     1       8.239   5.484  19.083  0.00  0.00    +0.000 C 
ATOM     18  C   UNL     1       8.314   5.373  20.612  0.00  0.00    +0.000 C 
ENDBRANCH  15  17
ENDBRANCH   9  15
BRANCH  14  19
ATOM     19  O   UNL     1       7.247   4.974  15.705  0.00  0.00    +0.000 OA
BRANCH  19  20
ATOM     20  C   UNL     1       6.781   4.852  14.354  0.00  0.00    +0.000 C 
ATOM     21  F   UNL     1       7.734   5.244  13.471  0.00  0.00    +0.000 F 
ATOM     22  F   UNL     1       6.555   3.534  14.120  0.00  0.00    +0.000 F 
ENDBRANCH  19  20
ENDBRANCH  14  19
ENDBRANCH   1  11
BRANCH   1  23
ATOM     23  C   UNL     1       2.002   7.802  18.822  0.00  0.00    +0.000 A 
ATOM     24  C   UNL     1       1.795   7.703  20.206  0.00  0.00    +0.000 A 
ATOM     25  C   UNL     1       1.277   8.781  20.927  0.00  0.00    +0.000 A 
ATOM     26  C   UNL     1       0.964   9.955  20.249  0.00  0.00    +0.000 A 
ATOM     27  N   UNL     1       1.142  10.065  18.908  0.00  0.00    +0.000 NA
ATOM     28  C   UNL     1       1.641   9.006  18.230  0.00  0.00    +0.000 A 
BRANCH  26  29
ATOM     29  C   UNL     1       0.358  11.156  20.976  0.00  0.00    +0.000 C 
ATOM     30  C   UNL     1      -0.635  11.904  20.073  0.00  0.00    +0.000 C 
ATOM     31  C   UNL     1      -0.343  10.698  22.257  0.00  0.00    +0.000 C 
BRANCH  29  32
ATOM     32  O   UNL     1       1.379  12.092  21.355  0.00  0.00    +0.000 OA
ATOM     33  H   UNL     1       1.886  11.679  22.075  0.00  0.00    +0.000 HD
ENDBRANCH  29  32
ENDBRANCH  26  29
ENDBRANCH   1  23
TORSDOF 9
ENDMDL
MODEL 7
REMARK VINA RESULT:      -8.1      0.925      1.405
REMARK  Name = 
REMARK  13 active torsions:
REMARK  status: ('A' for Active; 'I' for Inactive)
REMARK    1  A    between atoms: C_1  and  C_2
REMARK    2  A    between atoms: C_2  and  C_3
REMARK    3  A    between atoms: C_2  and  O_4
REMARK    4  A    between atoms: O_4  and  C_5
REMARK    5  A    between atoms: C_7  and  C_8
REMARK    6  A    between atoms: C_8  and  C_9
REMARK    7  A    between atoms: C_8  and  C_16
REMARK    8  A    between atoms: C_19  and  C_20
REMARK    9  A    between atoms: C_20  and  C_21
REMARK   10  A    between atoms: C_20  and  C_22
REMARK   11  A    between atoms: C_20  and  O_23
REMARK   12  A    between atoms: C_28  and  O_29
REMARK   13  A    between atoms: O_29  and  C_30
REMARK                            x       y       z     vdW  Elec       q    Type
REMARK                         _______ _______ _______ _____ _____    ______ ____
ROOT
ATOM      1  C   UNL     1       2.631   5.323  18.490  0.00  0.00    +0.000 C 
ENDROOT
BRANCH   1   2
ATOM      2  C   UNL     1       2.067   4.336  19.504  0.00  0.00    +0.000 C 
ATOM      3  C   UNL     1       1.067   3.463  19.334  0.00  0.00    +0.000 C 
ATOM      4  C   UNL     1       0.555   2.581  20.426  0.00  0.00    +0.000 C 
ATOM      5  C   UNL     1       1.288   2.715  21.760  0.00  0.00    +0.000 C 
ATOM      6  O   UNL     1       0.938   2.015  22.709  0.00  0.00    +0.000 OA
ATOM      7  N   UNL     1       2.328   3.606  21.875  0.00  0.00    +0.000 NA
ATOM      8  C   UNL     1       2.665   4.337  20.864  0.00  0.00    +0.000 C 
ENDBRANCH   1   2
BRANCH   1  11
ATOM      9  C   UNL     1       6.087   4.599  16.915  0.00  0.00    +0.000 A 
ATOM     10  C   UNL     1       4.715   4.486  17.185  0.00  0.00    +0.000 A 
ATOM     11  C   UNL     1       4.143   5.072  18.343  0.00  0.00    +0.000 A 
ATOM     12  C   UNL     1       5.003   5.625  19.305  0.00  0.00    +0.000 A 
ATOM     13  C   UNL     1       6.353   5.796  19.015  0.00  0.00    +0.000 A 
ATOM     14  C   UNL     1       6.852   5.394  17.771  0.00  0.00    +0.000 A 
BRANCH   9  15
ATOM     15  O   UNL     1       6.527   4.088  15.717  0.00  0.00    +0.000 OA
BRANCH  15  17
ATOM     16  C   UNL     1       7.517   5.253  13.821  0.00  0.00    +0.000 C 
ATOM     17  C   UNL     1       6.223   4.827  14.511  0.00  0.00    +0.000 C 
ATOM     18  C   UNL     1       5.454   3.901  13.558  0.00  0.00    +0.000 C 
ENDBRANCH  15  17
ENDBRANCH   9  15
BRANCH  14  19
ATOM     19  O   UNL     1       8.035   5.980  17.395  0.00  0.00    +0.000 OA
BRANCH  19  20
ATOM     20  C   UNL     1       7.849   7.392  17.224  0.00  0.00    +0.000 C 
ATOM     21  F   UNL     1       6.534   7.700  17.091  0.00  0.00    +0.000 F 
ATOM     22  F   UNL     1       8.276   7.999  18.360  0.00  0.00    +0.000 F 
ENDBRANCH  19  20
ENDBRANCH  14  19
ENDBRANCH   1  11
BRANCH   1  23
ATOM     23  C   UNL     1       2.148   6.759  18.659  0.00  0.00    +0.000 A 
ATOM     24  C   UNL     1       2.201   7.663  17.587  0.00  0.00    +0.000 A 
ATOM     25  C   UNL     1       1.851   9.002  17.769  0.00  0.00    +0.000 A 
ATOM     26  C   UNL     1       1.451   9.428  19.032  0.00  0.00    +0.000 A 
ATOM     27  N   UNL     1       1.409   8.573  20.084  0.00  0.00    +0.000 NA
ATOM     28  C   UNL     1       1.758   7.280  19.886  0.00  0.00    +0.000 A 
BRANCH  26  29
ATOM     29  C   UNL     1       1.093  10.890  19.302  0.00  0.00    +0.000 C 
ATOM     30  C   UNL     1       2.029  11.837  18.536  0.00  0.00    +0.000 C 
ATOM     31  C   UNL     1      -0.361  11.159  18.905  0.00  0.00    +0.000 C 
BRANCH  29  32
ATOM     32  O   UNL     1       1.222  11.198  20.698  0.00  0.00    +0.000 OA
ATOM     33  H   UNL     1       1.464  10.370  21.147  0.00  0.00    +0.000 HD
ENDBRANCH  29  32
ENDBRANCH  26  29
ENDBRANCH   1  23
TORSDOF 9
ENDMDL
MODEL 8
REMARK VINA RESULT:      -8.0      3.780      7.310
REMARK  Name = 
REMARK  13 active torsions:
REMARK  status: ('A' for Active; 'I' for Inactive)
REMARK    1  A    between atoms: C_1  and  C_2
REMARK    2  A    between atoms: C_2  and  C_3
REMARK    3  A    between atoms: C_2  and  O_4
REMARK    4  A    between atoms: O_4  and  C_5
REMARK    5  A    between atoms: C_7  and  C_8
REMARK    6  A    between atoms: C_8  and  C_9
REMARK    7  A    between atoms: C_8  and  C_16
REMARK    8  A    between atoms: C_19  and  C_20
REMARK    9  A    between atoms: C_20  and  C_21
REMARK   10  A    between atoms: C_20  and  C_22
REMARK   11  A    between atoms: C_20  and  O_23
REMARK   12  A    between atoms: C_28  and  O_29
REMARK   13  A    between atoms: O_29  and  C_30
REMARK                            x       y       z     vdW  Elec       q    Type
REMARK                         _______ _______ _______ _____ _____    ______ ____
ROOT
ATOM      1  C   UNL     1       6.514   5.528  17.682  0.00  0.00    +0.000 C 
ENDROOT
BRANCH   1   2
ATOM      2  C   UNL     1       6.415   5.013  16.252  0.00  0.00    +0.000 C 
ATOM      3  C   UNL     1       5.482   4.209  15.730  0.00  0.00    +0.000 C 
ATOM      4  C   UNL     1       5.522   3.716  14.320  0.00  0.00    +0.000 C 
ATOM      5  C   UNL     1       6.695   4.233  13.489  0.00  0.00    +0.000 C 
ATOM      6  O   UNL     1       6.794   3.886  12.313  0.00  0.00    +0.000 OA
ATOM      7  N   UNL     1       7.610   5.081  14.064  0.00  0.00    +0.000 NA
ATOM      8  C   UNL     1       7.486   5.417  15.306  0.00  0.00    +0.000 C 
ENDBRANCH   1   2
BRANCH   1  11
ATOM      9  C   UNL     1       2.766   6.046  18.479  0.00  0.00    +0.000 A 
ATOM     10  C   UNL     1       4.101   6.353  18.174  0.00  0.00    +0.000 A 
ATOM     11  C   UNL     1       5.134   5.398  18.352  0.00  0.00    +0.000 A 
ATOM     12  C   UNL     1       4.823   4.192  18.999  0.00  0.00    +0.000 A 
ATOM     13  C   UNL     1       3.495   3.856  19.245  0.00  0.00    +0.000 A 
ATOM     14  C   UNL     1       2.475   4.737  18.865  0.00  0.00    +0.000 A 
BRANCH   9  15
ATOM     15  O   UNL     1       1.826   7.002  18.174  0.00  0.00    +0.000 OA
BRANCH  15  17
ATOM     16  C   UNL     1       1.142   9.329  17.946  0.00  0.00    +0.000 C 
ATOM     17  C   UNL     1       2.010   8.332  18.711  0.00  0.00    +0.000 C 
ATOM     18  C   UNL     1       1.556   8.327  20.177  0.00  0.00    +0.000 C 
ENDBRANCH  15  17
ENDBRANCH   9  15
BRANCH  14  19
ATOM     19  O   UNL     1       1.232   4.171  18.727  0.00  0.00    +0.000 OA
BRANCH  19  20
ATOM     20  C   UNL     1       1.210   2.877  19.346  0.00  0.00    +0.000 C 
ATOM     21  F   UNL     1       0.644   2.936  20.578  0.00  0.00    +0.000 F 
ATOM     22  F   UNL     1       0.413   2.079  18.591  0.00  0.00    +0.000 F 
ENDBRANCH  19  20
ENDBRANCH  14  19
ENDBRANCH   1  11
BRANCH   1  23
ATOM     23  C   UNL     1       7.273   6.841  17.838  0.00  0.00    +0.000 A 
ATOM     24  C   UNL     1       8.237   6.996  18.846  0.00  0.00    +0.000 A 
ATOM     25  C   UNL     1       8.861   8.228  19.050  0.00  0.00    +0.000 A 
ATOM     26  C   UNL     1       8.509   9.303  18.239  0.00  0.00    +0.000 A 
ATOM     27  N   UNL     1       7.568   9.177  17.270  0.00  0.00    +0.000 NA
ATOM     28  C   UNL     1       6.973   7.975  17.094  0.00  0.00    +0.000 A 
BRANCH  26  29
ATOM     29  C   UNL     1       9.129  10.687  18.439  0.00  0.00    +0.000 C 
ATOM     30  C   UNL     1       8.203  11.788  17.902  0.00  0.00    +0.000 C 
ATOM     31  C   UNL     1       9.419  10.925  19.923  0.00  0.00    +0.000 C 
BRANCH  29  32
ATOM     32  O   UNL     1      10.375  10.794  17.734  0.00  0.00    +0.000 OA
ATOM     33  H   UNL     1      10.951  11.369  18.267  0.00  0.00    +0.000 HD
ENDBRANCH  29  32
ENDBRANCH  26  29
ENDBRANCH   1  23
TORSDOF 9
ENDMDL
MODEL 9
REMARK VINA RESULT:      -7.9      1.209      1.375
REMARK  Name = 
REMARK  13 active torsions:
REMARK  status: ('A' for Active; 'I' for Inactive)
REMARK    1  A    between atoms: C_1  and  C_2
REMARK    2  A    between atoms: C_2  and  C_3
REMARK    3  A    between atoms: C_2  and  O_4
REMARK    4  A    between atoms: O_4  and  C_5
REMARK    5  A    between atoms: C_7  and  C_8
REMARK    6  A    between atoms: C_8  and  C_9
REMARK    7  A    between atoms: C_8  and  C_16
REMARK    8  A    between atoms: C_19  and  C_20
REMARK    9  A    between atoms: C_20  and  C_21
REMARK   10  A    between atoms: C_20  and  C_22
REMARK   11  A    between atoms: C_20  and  O_23
REMARK   12  A    between atoms: C_28  and  O_29
REMARK   13  A    between atoms: O_29  and  C_30
REMARK                            x       y       z     vdW  Elec       q    Type
REMARK                         _______ _______ _______ _____ _____    ______ ____
ROOT
ATOM      1  C   UNL     1       2.793   6.048  17.921  0.00  0.00    +0.000 C 
ENDROOT
BRANCH   1   2
ATOM      2  C   UNL     1       2.064   4.796  18.391  0.00  0.00    +0.000 C 
ATOM      3  C   UNL     1       1.395   4.614  19.536  0.00  0.00    +0.000 C 
ATOM      4  C   UNL     1       0.768   3.314  19.921  0.00  0.00    +0.000 C 
ATOM      5  C   UNL     1       0.907   2.199  18.885  0.00  0.00    +0.000 C 
ATOM      6  O   UNL     1       0.408   1.100  19.118  0.00  0.00    +0.000 OA
ATOM      7  N   UNL     1       1.579   2.446  17.712  0.00  0.00    +0.000 NA
ATOM      8  C   UNL     1       2.105   3.607  17.502  0.00  0.00    +0.000 C 
ENDBRANCH   1   2
BRANCH   1  11
ATOM      9  C   UNL     1       6.463   5.888  16.714  0.00  0.00    +0.000 A 
ATOM     10  C   UNL     1       5.063   5.791  16.686  0.00  0.00    +0.000 A 
ATOM     11  C   UNL     1       4.303   5.758  17.884  0.00  0.00    +0.000 A 
ATOM     12  C   UNL     1       4.988   5.652  19.104  0.00  0.00    +0.000 A 
ATOM     13  C   UNL     1       6.370   5.811  19.143  0.00  0.00    +0.000 A 
ATOM     14  C   UNL     1       7.075   6.053  17.958  0.00  0.00    +0.000 A 
BRANCH   9  15
ATOM     15  O   UNL     1       7.098   6.019  15.502  0.00  0.00    +0.000 OA
BRANCH  15  17
ATOM     16  C   UNL     1       5.908   4.166  14.463  0.00  0.00    +0.000 C 
ATOM     17  C   UNL     1       7.262   4.834  14.689  0.00  0.00    +0.000 C 
ATOM     18  C   UNL     1       7.822   5.259  13.324  0.00  0.00    +0.000 C 
ENDBRANCH  15  17
ENDBRANCH   9  15
BRANCH  14  19
ATOM     19  O   UNL     1       8.311   6.627  18.116  0.00  0.00    +0.000 OA
BRANCH  19  20
ATOM     20  C   UNL     1       8.173   8.040  18.323  0.00  0.00    +0.000 C 
ATOM     21  F   UNL     1       9.185   8.522  19.090  0.00  0.00    +0.000 F 
ATOM     22  F   UNL     1       8.285   8.641  17.112  0.00  0.00    +0.000 F 
ENDBRANCH  19  20
ENDBRANCH  14  19
ENDBRANCH   1  11
BRANCH   1  23
ATOM     23  C   UNL     1       2.320   7.344  18.569  0.00  0.00    +0.000 A 
ATOM     24  C   UNL     1       2.070   7.405  19.949  0.00  0.00    +0.000 A 
ATOM     25  C   UNL     1       1.544   8.563  20.526  0.00  0.00    +0.000 A 
ATOM     26  C   UNL     1       1.268   9.656  19.709  0.00  0.00    +0.000 A 
ATOM     27  N   UNL     1       1.488   9.610  18.371  0.00  0.00    +0.000 NA
ATOM     28  C   UNL     1       1.993   8.476  17.834  0.00  0.00    +0.000 A 
BRANCH  26  29
ATOM     29  C   UNL     1       0.655  10.937  20.277  0.00  0.00    +0.000 C 
ATOM     30  C   UNL     1       1.305  12.181  19.651  0.00  0.00    +0.000 C 
ATOM     31  C   UNL     1      -0.854  10.956  20.027  0.00  0.00    +0.000 C 
BRANCH  29  32
ATOM     32  O   UNL     1       0.859  11.016  21.695  0.00  0.00    +0.000 OA
ATOM     33  H   UNL     1       1.792  11.256  21.833  0.00  0.00    +0.000 HD
ENDBRANCH  29  32
ENDBRANCH  26  29
ENDBRANCH   1  23
TORSDOF 9
ENDMDL
