MODEL 1
REMARK VINA RESULT:      -7.6      0.000      0.000
REMARK  Name = 
REMARK  12 active torsions:
REMARK  status: ('A' for Active; 'I' for Inactive)
REMARK    1  A    between atoms: C_1  and  C_2
REMARK    2  A    between atoms: C_2  and  O_3
REMARK    3  A    between atoms: O_3  and  C_4
REMARK    4  A    between atoms: C_7  and  C_8
REMARK    5  A    between atoms: N_10  and  C_11
REMARK    6  A    between atoms: C_11  and  C_12
REMARK    7  A    between atoms: C_11  and  C_23
REMARK    8  A    between atoms: N_14  and  C_15
REMARK    9  A    between atoms: C_20  and  O_21
REMARK   10  A    between atoms: O_21  and  C_22
REMARK   11  A    between atoms: C_23  and  C_24
REMARK   12  A    between atoms: C_23  and  C_25
REMARK                            x       y       z     vdW  Elec       q    Type
REMARK                         _______ _______ _______ _____ _____    ______ ____
ROOT
ATOM      1  C   UNL     1       7.194   4.989  17.587  0.00  0.00    +0.000 C 
ENDROOT
BRANCH   1   4
ATOM      2  C   UNL     1       7.236   4.790  15.063  0.00  0.00    +0.000 C 
ATOM      3  O   UNL     1       8.144   5.590  14.918  0.00  0.00    +0.000 OA
ATOM      4  N   UNL     1       6.829   4.335  16.310  0.00  0.00    +0.000 N 
ATOM      5  H   UNL     1       6.072   3.683  16.378  0.00  0.00    +0.000 HD
BRANCH   2   9
ATOM      6  C   UNL     1       5.019   3.102  11.716  0.00  0.00    +0.000 A 
ATOM      7  C   UNL     1       4.369   3.489  12.892  0.00  0.00    +0.000 A 
ATOM      8  C   UNL     1       5.088   4.067  13.956  0.00  0.00    +0.000 A 
ATOM      9  C   UNL     1       6.471   4.257  13.865  0.00  0.00    +0.000 A 
ATOM     10  C   UNL     1       7.108   3.890  12.666  0.00  0.00    +0.000 A 
ATOM     11  C   UNL     1       6.394   3.299  11.615  0.00  0.00    +0.000 A 
BRANCH   6  12
ATOM     12  O   UNL     1       4.229   2.548  10.751  0.00  0.00    +0.000 OA
BRANCH  12  14
ATOM     13  C   UNL     1       3.015   4.188   9.502  0.00  0.00    +0.000 C 
ATOM     14  C   UNL     1       2.928   3.120  10.577  0.00  0.00    +0.000 C 
ENDBRANCH  12  14
ENDBRANCH   6  12
ENDBRANCH   2   9
ENDBRANCH   1   4
BRANCH   1  15
ATOM     15  C   UNL     1       6.172   4.690  18.711  0.00  0.00    +0.000 C 
ATOM     16  O   UNL     1       6.428   4.938  19.889  0.00  0.00    +0.000 OA
ATOM     17  N   UNL     1       4.919   4.301  18.254  0.00  0.00    +0.000 N 
ATOM     18  H   UNL     1       4.944   3.704  17.438  0.00  0.00    +0.000 HD
BRANCH  17  19
ATOM     19  C   UNL     1       3.825   4.156  19.138  0.00  0.00    +0.000 A 
ATOM     20  C   UNL     1       3.604   2.900  19.729  0.00  0.00    +0.000 A 
ATOM     21  C   UNL     1       2.605   2.721  20.690  0.00  0.00    +0.000 A 
ATOM     22  C   UNL     1       1.795   3.791  21.050  0.00  0.00    +0.000 A 
ATOM     23  C   UNL     1       2.003   5.042  20.463  0.00  0.00    +0.000 A 
ATOM     24  C   UNL     1       3.020   5.240  19.517  0.00  0.00    +0.000 A 
BRANCH  24  25
ATOM     25  O   UNL     1       3.126   6.534  19.084  0.00  0.00    +0.000 OA
ATOM     26  C   UNL     1       2.172   7.472  19.575  0.00  0.00    +0.000 C 
ENDBRANCH  24  25
ENDBRANCH  17  19
ENDBRANCH   1  15
BRANCH   1  27
ATOM     27  C   UNL     1       7.257   6.536  17.371  0.00  0.00    +0.000 C 
ATOM     28  C   UNL     1       5.874   7.200  17.311  0.00  0.00    +0.000 C 
ATOM     29  C   UNL     1       8.072   7.241  18.464  0.00  0.00    +0.000 C 
ENDBRANCH   1  27
TORSDOF 8
ENDMDL
MODEL 2
REMARK VINA RESULT:      -7.6      2.898      8.055
REMARK  Name = 
REMARK  12 active torsions:
REMARK  status: ('A' for Active; 'I' for Inactive)
REMARK    1  A    between atoms: C_1  and  C_2
REMARK    2  A    between atoms: C_2  and  O_3
REMARK    3  A    between atoms: O_3  and  C_4
REMARK    4  A    between atoms: C_7  and  C_8
REMARK    5  A    between atoms: N_10  and  C_11
REMARK    6  A    between atoms: C_11  and  C_12
REMARK    7  A    between atoms: C_11  and  C_23
REMARK    8  A    between atoms: N_14  and  C_15
REMARK    9  A    between atoms: C_20  and  O_21
REMARK   10  A    between atoms: O_21  and  C_22
REMARK   11  A    between atoms: C_23  and  C_24
REMARK   12  A    between atoms: C_23  and  C_25
REMARK                            x       y       z     vdW  Elec       q    Type
REMARK                         _______ _______ _______ _____ _____    ______ ____
ROOT
ATOM      1  C   UNL     1       3.095   5.019  19.779  0.00  0.00    +0.000 C 
ENDROOT
BRANCH   1   4
ATOM      2  C   UNL     1       1.835   7.135  20.368  0.00  0.00    +0.000 C 
ATOM      3  O   UNL     1       1.250   6.638  21.314  0.00  0.00    +0.000 OA
ATOM      4  N   UNL     1       2.844   6.474  19.679  0.00  0.00    +0.000 N 
ATOM      5  H   UNL     1       3.290   6.921  18.903  0.00  0.00    +0.000 HD
BRANCH   2   9
ATOM      6  C   UNL     1       0.612  11.053  18.914  0.00  0.00    +0.000 A 
ATOM      7  C   UNL     1       0.312  10.639  20.215  0.00  0.00    +0.000 A 
ATOM      8  C   UNL     1       0.742   9.385  20.689  0.00  0.00    +0.000 A 
ATOM      9  C   UNL     1       1.469   8.520  19.866  0.00  0.00    +0.000 A 
ATOM     10  C   UNL     1       1.789   8.960  18.569  0.00  0.00    +0.000 A 
ATOM     11  C   UNL     1       1.345  10.201  18.093  0.00  0.00    +0.000 A 
BRANCH   6  12
ATOM     12  O   UNL     1       0.143  12.284  18.555  0.00  0.00    +0.000 OA
BRANCH  12  14
ATOM     13  C   UNL     1      -1.998  11.738  17.638  0.00  0.00    +0.000 C 
ATOM     14  C   UNL     1      -1.262  12.510  18.717  0.00  0.00    +0.000 C 
ENDBRANCH  12  14
ENDBRANCH   6  12
ENDBRANCH   2   9
ENDBRANCH   1   4
BRANCH   1  15
ATOM     15  C   UNL     1       4.217   4.551  18.819  0.00  0.00    +0.000 C 
ATOM     16  O   UNL     1       4.719   3.432  18.921  0.00  0.00    +0.000 OA
ATOM     17  N   UNL     1       4.460   5.418  17.761  0.00  0.00    +0.000 N 
ATOM     18  H   UNL     1       4.396   6.396  18.006  0.00  0.00    +0.000 HD
BRANCH  17  19
ATOM     19  C   UNL     1       5.328   5.063  16.703  0.00  0.00    +0.000 A 
ATOM     20  C   UNL     1       4.778   4.454  15.561  0.00  0.00    +0.000 A 
ATOM     21  C   UNL     1       5.567   4.176  14.442  0.00  0.00    +0.000 A 
ATOM     22  C   UNL     1       6.924   4.478  14.461  0.00  0.00    +0.000 A 
ATOM     23  C   UNL     1       7.481   5.077  15.595  0.00  0.00    +0.000 A 
ATOM     24  C   UNL     1       6.693   5.385  16.714  0.00  0.00    +0.000 A 
BRANCH  24  25
ATOM     25  O   UNL     1       7.380   6.020  17.713  0.00  0.00    +0.000 OA
ATOM     26  C   UNL     1       7.573   7.426  17.588  0.00  0.00    +0.000 C 
ENDBRANCH  24  25
ENDBRANCH  17  19
ENDBRANCH   1  15
BRANCH   1  27
ATOM     27  C   UNL     1       1.783   4.247  19.423  0.00  0.00    +0.000 C 
ATOM     28  C   UNL     1       1.678   3.875  17.937  0.00  0.00    +0.000 C 
ATOM     29  C   UNL     1       1.627   2.959  20.243  0.00  0.00    +0.000 C 
ENDBRANCH   1  27
TORSDOF 8
ENDMDL
MODEL 3
REMARK VINA RESULT:      -7.5      0.422      1.016
REMARK  Name = 
REMARK  12 active torsions:
REMARK  status: ('A' for Active; 'I' for Inactive)
REMARK    1  A    between atoms: C_1  and  C_2
REMARK    2  A    between atoms: C_2  and  O_3
REMARK    3  A    between atoms: O_3  and  C_4
REMARK    4  A    between atoms: C_7  and  C_8
REMARK    5  A    between atoms: N_10  and  C_11
REMARK    6  A    between atoms: C_11  and  C_12
REMARK    7  A    between atoms: C_11  and  C_23
REMARK    8  A    between atoms: N_14  and  C_15
REMARK    9  A    between atoms: C_20  and  O_21
REMARK   10  A    between atoms: O_21  and  C_22
REMARK   11  A    between atoms: C_23  and  C_24
REMARK   12  A    between atoms: C_23  and  C_25
REMARK                            x       y       z     vdW  Elec       q    Type
REMARK                         _______ _______ _______ _____ _____    ______ ____
ROOT
ATOM      1  C   UNL     1       7.133   4.899  17.586  0.00  0.00    +0.000 C 
ENDROOT
BRANCH   1   4
ATOM      2  C   UNL     1       7.109   4.686  15.063  0.00  0.00    +0.000 C 
ATOM      3  O   UNL     1       7.964   5.536  14.886  0.00  0.00    +0.000 OA
ATOM      4  N   UNL     1       6.766   4.217  16.324  0.00  0.00    +0.000 N 
ATOM      5  H   UNL     1       6.052   3.523  16.419  0.00  0.00    +0.000 HD
BRANCH   2   9
ATOM      6  C   UNL     1       4.921   3.165  11.618  0.00  0.00    +0.000 A 
ATOM      7  C   UNL     1       6.309   3.327  11.579  0.00  0.00    +0.000 A 
ATOM      8  C   UNL     1       7.013   3.786  12.708  0.00  0.00    +0.000 A 
ATOM      9  C   UNL     1       6.339   4.101  13.892  0.00  0.00    +0.000 A 
ATOM     10  C   UNL     1       4.947   3.906  13.928  0.00  0.00    +0.000 A 
ATOM     11  C   UNL     1       4.246   3.467  12.797  0.00  0.00    +0.000 A 
BRANCH   6  12
ATOM     12  O   UNL     1       4.338   2.721  10.466  0.00  0.00    +0.000 OA
BRANCH  12  14
ATOM     13  C   UNL     1       2.905   4.372   9.497  0.00  0.00    +0.000 C 
ATOM     14  C   UNL     1       2.963   3.065  10.265  0.00  0.00    +0.000 C 
ENDBRANCH  12  14
ENDBRANCH   6  12
ENDBRANCH   2   9
ENDBRANCH   1   4
BRANCH   1  15
ATOM     15  C   UNL     1       6.116   4.617  18.720  0.00  0.00    +0.000 C 
ATOM     16  O   UNL     1       6.263   5.100  19.842  0.00  0.00    +0.000 OA
ATOM     17  N   UNL     1       4.975   3.941  18.308  0.00  0.00    +0.000 N 
ATOM     18  H   UNL     1       5.145   3.231  17.609  0.00  0.00    +0.000 HD
BRANCH  17  19
ATOM     19  C   UNL     1       3.875   3.756  19.177  0.00  0.00    +0.000 A 
ATOM     20  C   UNL     1       3.933   2.712  20.117  0.00  0.00    +0.000 A 
ATOM     21  C   UNL     1       2.926   2.544  21.071  0.00  0.00    +0.000 A 
ATOM     22  C   UNL     1       1.833   3.401  21.078  0.00  0.00    +0.000 A 
ATOM     23  C   UNL     1       1.763   4.439  20.144  0.00  0.00    +0.000 A 
ATOM     24  C   UNL     1       2.781   4.633  19.198  0.00  0.00    +0.000 A 
BRANCH  24  25
ATOM     25  O   UNL     1       2.586   5.725  18.396  0.00  0.00    +0.000 OA
ATOM     26  C   UNL     1       2.549   7.003  19.024  0.00  0.00    +0.000 C 
ENDBRANCH  24  25
ENDBRANCH  17  19
ENDBRANCH   1  15
BRANCH   1  27
ATOM     27  C   UNL     1       7.185   6.442  17.338  0.00  0.00    +0.000 C 
ATOM     28  C   UNL     1       5.798   7.099  17.291  0.00  0.00    +0.000 C 
ATOM     29  C   UNL     1       8.017   7.172  18.400  0.00  0.00    +0.000 C 
ENDBRANCH   1  27
TORSDOF 8
ENDMDL
MODEL 4
REMARK VINA RESULT:      -7.5      2.968      8.806
REMARK  Name = 
REMARK  12 active torsions:
REMARK  status: ('A' for Active; 'I' for Inactive)
REMARK    1  A    between atoms: C_1  and  C_2
REMARK    2  A    between atoms: C_2  and  O_3
REMARK    3  A    between atoms: O_3  and  C_4
REMARK    4  A    between atoms: C_7  and  C_8
REMARK    5  A    between atoms: N_10  and  C_11
REMARK    6  A    between atoms: C_11  and  C_12
REMARK    7  A    between atoms: C_11  and  C_23
REMARK    8  A    between atoms: N_14  and  C_15
REMARK    9  A    between atoms: C_20  and  O_21
REMARK   10  A    between atoms: O_21  and  C_22
REMARK   11  A    between atoms: C_23  and  C_24
REMARK   12  A    between atoms: C_23  and  C_25
REMARK                            x       y       z     vdW  Elec       q    Type
REMARK                         _______ _______ _______ _____ _____    ______ ____
ROOT
ATOM      1  C   UNL     1       2.511   4.459  19.989  0.00  0.00    +0.000 C 
ENDROOT
BRANCH   1   4
ATOM      2  C   UNL     1       2.265   6.966  19.731  0.00  0.00    +0.000 C 
ATOM      3  O   UNL     1       3.276   7.094  19.063  0.00  0.00    +0.000 OA
ATOM      4  N   UNL     1       1.750   5.725  20.083  0.00  0.00    +0.000 N 
ATOM      5  H   UNL     1       0.920   5.671  20.640  0.00  0.00    +0.000 HD
BRANCH   2   9
ATOM      6  C   UNL     1      -0.044  10.350  21.209  0.00  0.00    +0.000 A 
ATOM      7  C   UNL     1       0.283   9.277  22.045  0.00  0.00    +0.000 A 
ATOM      8  C   UNL     1       1.060   8.204  21.569  0.00  0.00    +0.000 A 
ATOM      9  C   UNL     1       1.513   8.180  20.246  0.00  0.00    +0.000 A 
ATOM     10  C   UNL     1       1.202   9.278  19.425  0.00  0.00    +0.000 A 
ATOM     11  C   UNL     1       0.414  10.337  19.895  0.00  0.00    +0.000 A 
BRANCH   6  12
ATOM     12  O   UNL     1      -0.806  11.334  21.771  0.00  0.00    +0.000 OA
BRANCH  12  14
ATOM     13  C   UNL     1      -2.520  12.008  23.296  0.00  0.00    +0.000 C 
ATOM     14  C   UNL     1      -1.354  11.065  23.066  0.00  0.00    +0.000 C 
ENDBRANCH  12  14
ENDBRANCH   6  12
ENDBRANCH   2   9
ENDBRANCH   1   4
BRANCH   1  15
ATOM     15  C   UNL     1       3.185   4.282  18.605  0.00  0.00    +0.000 C 
ATOM     16  O   UNL     1       2.525   4.313  17.567  0.00  0.00    +0.000 OA
ATOM     17  N   UNL     1       4.573   4.270  18.644  0.00  0.00    +0.000 N 
ATOM     18  H   UNL     1       4.959   3.791  19.446  0.00  0.00    +0.000 HD
BRANCH  17  19
ATOM     19  C   UNL     1       5.343   4.288  17.458  0.00  0.00    +0.000 A 
ATOM     20  C   UNL     1       4.677   4.161  16.226  0.00  0.00    +0.000 A 
ATOM     21  C   UNL     1       5.370   4.277  15.018  0.00  0.00    +0.000 A 
ATOM     22  C   UNL     1       6.742   4.493  15.027  0.00  0.00    +0.000 A 
ATOM     23  C   UNL     1       7.414   4.614  16.247  0.00  0.00    +0.000 A 
ATOM     24  C   UNL     1       6.725   4.526  17.466  0.00  0.00    +0.000 A 
BRANCH  24  25
ATOM     25  O   UNL     1       7.519   4.723  18.563  0.00  0.00    +0.000 OA
ATOM     26  C   UNL     1       7.801   6.068  18.937  0.00  0.00    +0.000 C 
ENDBRANCH  24  25
ENDBRANCH  17  19
ENDBRANCH   1  15
BRANCH   1  27
ATOM     27  C   UNL     1       1.539   3.257  20.224  0.00  0.00    +0.000 C 
ATOM     28  C   UNL     1       1.867   2.029  19.363  0.00  0.00    +0.000 C 
ATOM     29  C   UNL     1       1.514   2.811  21.693  0.00  0.00    +0.000 C 
ENDBRANCH   1  27
TORSDOF 8
ENDMDL
MODEL 5
REMARK VINA RESULT:      -7.5      3.055      8.277
REMARK  Name = 
REMARK  12 active torsions:
REMARK  status: ('A' for Active; 'I' for Inactive)
REMARK    1  A    between atoms: C_1  and  C_2
REMARK    2  A    between atoms: C_2  and  O_3
REMARK    3  A    between atoms: O_3  and  C_4
REMARK    4  A    between atoms: C_7  and  C_8
REMARK    5  A    between atoms: N_10  and  C_11
REMARK    6  A    between atoms: C_11  and  C_12
REMARK    7  A    between atoms: C_11  and  C_23
REMARK    8  A    between atoms: N_14  and  C_15
REMARK    9  A    between atoms: C_20  and  O_21
REMARK   10  A    between atoms: O_21  and  C_22
REMARK   11  A    between atoms: C_23  and  C_24
REMARK   12  A    between atoms: C_23  and  C_25
REMARK                            x       y       z     vdW  Elec       q    Type
REMARK                         _______ _______ _______ _____ _____    ______ ____
ROOT
ATOM      1  C   UNL     1       2.795   5.099  20.069  0.00  0.00    +0.000 C 
ENDROOT
BRANCH   1   4
ATOM      2  C   UNL     1       1.638   7.300  20.548  0.00  0.00    +0.000 C 
ATOM      3  O   UNL     1       0.971   6.860  21.468  0.00  0.00    +0.000 OA
ATOM      4  N   UNL     1       2.640   6.564  19.929  0.00  0.00    +0.000 N 
ATOM      5  H   UNL     1       3.156   6.967  19.171  0.00  0.00    +0.000 HD
BRANCH   2   9
ATOM      6  C   UNL     1       0.740  11.259  18.971  0.00  0.00    +0.000 A 
ATOM      7  C   UNL     1       0.439  10.922  20.294  0.00  0.00    +0.000 A 
ATOM      8  C   UNL     1       0.764   9.652  20.806  0.00  0.00    +0.000 A 
ATOM      9  C   UNL     1       1.387   8.693  20.000  0.00  0.00    +0.000 A 
ATOM     10  C   UNL     1       1.710   9.055  18.680  0.00  0.00    +0.000 A 
ATOM     11  C   UNL     1       1.370  10.313  18.167  0.00  0.00    +0.000 A 
BRANCH   6  12
ATOM     12  O   UNL     1       0.376  12.514  18.575  0.00  0.00    +0.000 OA
BRANCH  12  14
ATOM     13  C   UNL     1       1.035  14.743  19.138  0.00  0.00    +0.000 C 
ATOM     14  C   UNL     1       1.430  13.469  18.414  0.00  0.00    +0.000 C 
ENDBRANCH  12  14
ENDBRANCH   6  12
ENDBRANCH   2   9
ENDBRANCH   1   4
BRANCH   1  15
ATOM     15  C   UNL     1       3.915   4.539  19.158  0.00  0.00    +0.000 C 
ATOM     16  O   UNL     1       4.217   3.346  19.177  0.00  0.00    +0.000 OA
ATOM     17  N   UNL     1       4.399   5.447  18.224  0.00  0.00    +0.000 N 
ATOM     18  H   UNL     1       4.470   6.395  18.569  0.00  0.00    +0.000 HD
BRANCH  17  19
ATOM     19  C   UNL     1       5.298   5.050  17.208  0.00  0.00    +0.000 A 
ATOM     20  C   UNL     1       4.844   5.041  15.878  0.00  0.00    +0.000 A 
ATOM     21  C   UNL     1       5.714   4.760  14.821  0.00  0.00    +0.000 A 
ATOM     22  C   UNL     1       7.044   4.455  15.084  0.00  0.00    +0.000 A 
ATOM     23  C   UNL     1       7.503   4.455  16.404  0.00  0.00    +0.000 A 
ATOM     24  C   UNL     1       6.646   4.762  17.471  0.00  0.00    +0.000 A 
BRANCH  24  25
ATOM     25  O   UNL     1       7.266   4.773  18.691  0.00  0.00    +0.000 OA
ATOM     26  C   UNL     1       7.890   5.987  19.100  0.00  0.00    +0.000 C 
ENDBRANCH  24  25
ENDBRANCH  17  19
ENDBRANCH   1  15
BRANCH   1  27
ATOM     27  C   UNL     1       1.449   4.403  19.685  0.00  0.00    +0.000 C 
ATOM     28  C   UNL     1       1.382   3.973  18.212  0.00  0.00    +0.000 C 
ATOM     29  C   UNL     1       1.167   3.167  20.550  0.00  0.00    +0.000 C 
ENDBRANCH   1  27
TORSDOF 8
ENDMDL
MODEL 6
REMARK VINA RESULT:      -7.4      3.321      8.100
REMARK  Name = 
REMARK  12 active torsions:
REMARK  status: ('A' for Active; 'I' for Inactive)
REMARK    1  A    between atoms: C_1  and  C_2
REMARK    2  A    between atoms: C_2  and  O_3
REMARK    3  A    between atoms: O_3  and  C_4
REMARK    4  A    between atoms: C_7  and  C_8
REMARK    5  A    between atoms: N_10  and  C_11
REMARK    6  A    between atoms: C_11  and  C_12
REMARK    7  A    between atoms: C_11  and  C_23
REMARK    8  A    between atoms: N_14  and  C_15
REMARK    9  A    between atoms: C_20  and  O_21
REMARK   10  A    between atoms: O_21  and  C_22
REMARK   11  A    between atoms: C_23  and  C_24
REMARK   12  A    between atoms: C_23  and  C_25
REMARK                            x       y       z     vdW  Elec       q    Type
REMARK                         _______ _______ _______ _____ _____    ______ ____
ROOT
ATOM      1  C   UNL     1       2.843   5.783  20.329  0.00  0.00    +0.000 C 
ENDROOT
BRANCH   1   4
ATOM      2  C   UNL     1       1.651   8.003  20.581  0.00  0.00    +0.000 C 
ATOM      3  O   UNL     1       1.695   7.998  21.799  0.00  0.00    +0.000 OA
ATOM      4  N   UNL     1       2.309   7.060  19.803  0.00  0.00    +0.000 N 
ATOM      5  H   UNL     1       2.236   7.101  18.805  0.00  0.00    +0.000 HD
BRANCH   2   9
ATOM      6  C   UNL     1      -0.824  10.886  18.454  0.00  0.00    +0.000 A 
ATOM      7  C   UNL     1      -0.963  10.691  19.831  0.00  0.00    +0.000 A 
ATOM      8  C   UNL     1      -0.135   9.783  20.518  0.00  0.00    +0.000 A 
ATOM      9  C   UNL     1       0.838   9.046  19.836  0.00  0.00    +0.000 A 
ATOM     10  C   UNL     1       0.987   9.273  18.455  0.00  0.00    +0.000 A 
ATOM     11  C   UNL     1       0.151  10.164  17.771  0.00  0.00    +0.000 A 
BRANCH   6  12
ATOM     12  O   UNL     1      -1.682  11.785  17.887  0.00  0.00    +0.000 OA
BRANCH  12  14
ATOM     13  C   UNL     1      -3.950  11.355  17.260  0.00  0.00    +0.000 C 
ATOM     14  C   UNL     1      -2.500  11.307  16.814  0.00  0.00    +0.000 C 
ENDBRANCH  12  14
ENDBRANCH   6  12
ENDBRANCH   2   9
ENDBRANCH   1   4
BRANCH   1  15
ATOM     15  C   UNL     1       3.996   5.228  19.457  0.00  0.00    +0.000 C 
ATOM     16  O   UNL     1       4.556   4.168  19.739  0.00  0.00    +0.000 OA
ATOM     17  N   UNL     1       4.203   5.925  18.273  0.00  0.00    +0.000 N 
ATOM     18  H   UNL     1       4.085   6.925  18.357  0.00  0.00    +0.000 HD
BRANCH  17  19
ATOM     19  C   UNL     1       5.099   5.451  17.287  0.00  0.00    +0.000 A 
ATOM     20  C   UNL     1       4.594   4.635  16.260  0.00  0.00    +0.000 A 
ATOM     21  C   UNL     1       5.406   4.224  15.201  0.00  0.00    +0.000 A 
ATOM     22  C   UNL     1       6.744   4.599  15.171  0.00  0.00    +0.000 A 
ATOM     23  C   UNL     1       7.257   5.405  16.191  0.00  0.00    +0.000 A 
ATOM     24  C   UNL     1       6.445   5.847  17.245  0.00  0.00    +0.000 A 
BRANCH  24  25
ATOM     25  O   UNL     1       7.086   6.673  18.128  0.00  0.00    +0.000 OA
ATOM     26  C   UNL     1       7.696   7.849  17.602  0.00  0.00    +0.000 C 
ENDBRANCH  24  25
ENDBRANCH  17  19
ENDBRANCH   1  15
BRANCH   1  27
ATOM     27  C   UNL     1       1.694   4.723  20.365  0.00  0.00    +0.000 C 
ATOM     28  C   UNL     1       1.462   4.028  19.016  0.00  0.00    +0.000 C 
ATOM     29  C   UNL     1       1.941   3.636  21.420  0.00  0.00    +0.000 C 
ENDBRANCH   1  27
TORSDOF 8
ENDMDL
MODEL 7
REMARK VINA RESULT:      -7.4      5.779      9.115
REMARK  Name = 
REMARK  12 active torsions:
REMARK  status: ('A' for Active; 'I' for Inactive)
REMARK    1  A    between atoms: C_1  and  C_2
REMARK    2  A    between atoms: C_2  and  O_3
REMARK    3  A    between atoms: O_3  and  C_4
REMARK    4  A    between atoms: C_7  and  C_8
REMARK    5  A    between atoms: N_10  and  C_11
REMARK    6  A    between atoms: C_11  and  C_12
REMARK    7  A    between atoms: C_11  and  C_23
REMARK    8  A    between atoms: N_14  and  C_15
REMARK    9  A    between atoms: C_20  and  O_21
REMARK   10  A    between atoms: O_21  and  C_22
REMARK   11  A    between atoms: C_23  and  C_24
REMARK   12  A    between atoms: C_23  and  C_25
REMARK                            x       y       z     vdW  Elec       q    Type
REMARK                         _______ _______ _______ _____ _____    ______ ____
ROOT
ATOM      1  C   UNL     1       0.694  11.943  19.431  0.00  0.00    +0.000 C 
ENDROOT
BRANCH   1   4
ATOM      2  C   UNL     1       1.037   9.439  19.581  0.00  0.00    +0.000 C 
ATOM      3  O   UNL     1       0.272   9.292  20.517  0.00  0.00    +0.000 OA
ATOM      4  N   UNL     1       1.178  10.646  18.908  0.00  0.00    +0.000 N 
ATOM      5  H   UNL     1       1.826  10.719  18.149  0.00  0.00    +0.000 HD
BRANCH   2   9
ATOM      6  C   UNL     1       3.678   6.205  18.341  0.00  0.00    +0.000 A 
ATOM      7  C   UNL     1       2.969   6.139  19.545  0.00  0.00    +0.000 A 
ATOM      8  C   UNL     1       2.091   7.172  19.921  0.00  0.00    +0.000 A 
ATOM      9  C   UNL     1       1.914   8.294  19.106  0.00  0.00    +0.000 A 
ATOM     10  C   UNL     1       2.610   8.335  17.884  0.00  0.00    +0.000 A 
ATOM     11  C   UNL     1       3.498   7.314  17.519  0.00  0.00    +0.000 A 
BRANCH   6  12
ATOM     12  O   UNL     1       4.506   5.153  18.076  0.00  0.00    +0.000 OA
BRANCH  12  14
ATOM     13  C   UNL     1       3.472   3.083  17.469  0.00  0.00    +0.000 C 
ATOM     14  C   UNL     1       4.112   3.877  18.593  0.00  0.00    +0.000 C 
ENDBRANCH  12  14
ENDBRANCH   6  12
ENDBRANCH   2   9
ENDBRANCH   1   4
BRANCH   1  15
ATOM     15  C   UNL     1      -0.693  12.325  18.857  0.00  0.00    +0.000 C 
ATOM     16  O   UNL     1      -0.827  13.285  18.098  0.00  0.00    +0.000 OA
ATOM     17  N   UNL     1      -1.696  11.403  19.128  0.00  0.00    +0.000 N 
ATOM     18  H   UNL     1      -1.640  10.990  20.048  0.00  0.00    +0.000 HD
BRANCH  17  19
ATOM     19  C   UNL     1      -2.976  11.512  18.535  0.00  0.00    +0.000 A 
ATOM     20  C   UNL     1      -4.007  12.113  19.277  0.00  0.00    +0.000 A 
ATOM     21  C   UNL     1      -5.263  12.344  18.709  0.00  0.00    +0.000 A 
ATOM     22  C   UNL     1      -5.511  11.950  17.400  0.00  0.00    +0.000 A 
ATOM     23  C   UNL     1      -4.493  11.346  16.656  0.00  0.00    +0.000 A 
ATOM     24  C   UNL     1      -3.221  11.133  17.207  0.00  0.00    +0.000 A 
BRANCH  24  25
ATOM     25  O   UNL     1      -2.325  10.584  16.330  0.00  0.00    +0.000 OA
ATOM     26  C   UNL     1      -2.814  10.191  15.051  0.00  0.00    +0.000 C 
ENDBRANCH  24  25
ENDBRANCH  17  19
ENDBRANCH   1  15
BRANCH   1  27
ATOM     27  C   UNL     1       1.715  13.063  19.048  0.00  0.00    +0.000 C 
ATOM     28  C   UNL     1       2.491  13.619  20.251  0.00  0.00    +0.000 C 
ATOM     29  C   UNL     1       2.737  12.586  18.008  0.00  0.00    +0.000 C 
ENDBRANCH   1  27
TORSDOF 8
ENDMDL
MODEL 8
REMARK VINA RESULT:      -7.4      2.938      8.717
REMARK  Name = 
REMARK  12 active torsions:
REMARK  status: ('A' for Active; 'I' for Inactive)
REMARK    1  A    between atoms: C_1  and  C_2
REMARK    2  A    between atoms: C_2  and  O_3
REMARK    3  A    between atoms: O_3  and  C_4
REMARK    4  A    between atoms: C_7  and  C_8
REMARK    5  A    between atoms: N_10  and  C_11
REMARK    6  A    between atoms: C_11  and  C_12
REMARK    7  A    between atoms: C_11  and  C_23
REMARK    8  A    between atoms: N_14  and  C_15
REMARK    9  A    between atoms: C_20  and  O_21
REMARK   10  A    between atoms: O_21  and  C_22
REMARK   11  A    between atoms: C_23  and  C_24
REMARK   12  A    between atoms: C_23  and  C_25
REMARK                            x       y       z     vdW  Elec       q    Type
REMARK                         _______ _______ _______ _____ _____    ______ ____
ROOT
ATOM      1  C   UNL     1       3.001   4.535  19.840  0.00  0.00    +0.000 C 
ENDROOT
BRANCH   1   4
ATOM      2  C   UNL     1       2.379   6.971  19.543  0.00  0.00    +0.000 C 
ATOM      3  O   UNL     1       3.354   7.237  18.862  0.00  0.00    +0.000 OA
ATOM      4  N   UNL     1       2.059   5.674  19.921  0.00  0.00    +0.000 N 
ATOM      5  H   UNL     1       1.251   5.507  20.488  0.00  0.00    +0.000 HD
BRANCH   2   9
ATOM      6  C   UNL     1      -0.117  10.222  21.015  0.00  0.00    +0.000 A 
ATOM      7  C   UNL     1       0.479  10.284  19.752  0.00  0.00    +0.000 A 
ATOM      8  C   UNL     1       1.256   9.214  19.269  0.00  0.00    +0.000 A 
ATOM      9  C   UNL     1       1.458   8.068  20.046  0.00  0.00    +0.000 A 
ATOM     10  C   UNL     1       0.828   8.006  21.302  0.00  0.00    +0.000 A 
ATOM     11  C   UNL     1       0.070   9.080  21.789  0.00  0.00    +0.000 A 
BRANCH   6  12
ATOM     12  O   UNL     1      -0.844  11.316  21.387  0.00  0.00    +0.000 OA
BRANCH  12  14
ATOM     13  C   UNL     1      -2.407  11.886  23.106  0.00  0.00    +0.000 C 
ATOM     14  C   UNL     1      -0.957  11.567  22.792  0.00  0.00    +0.000 C 
ENDBRANCH  12  14
ENDBRANCH   6  12
ENDBRANCH   2   9
ENDBRANCH   1   4
BRANCH   1  15
ATOM     15  C   UNL     1       3.596   4.368  18.420  0.00  0.00    +0.000 C 
ATOM     16  O   UNL     1       2.874   4.154  17.447  0.00  0.00    +0.000 OA
ATOM     17  N   UNL     1       4.953   4.655  18.333  0.00  0.00    +0.000 N 
ATOM     18  H   UNL     1       5.491   4.352  19.133  0.00  0.00    +0.000 HD
BRANCH  17  19
ATOM     19  C   UNL     1       5.613   4.718  17.084  0.00  0.00    +0.000 A 
ATOM     20  C   UNL     1       5.449   3.649  16.186  0.00  0.00    +0.000 A 
ATOM     21  C   UNL     1       5.989   3.701  14.898  0.00  0.00    +0.000 A 
ATOM     22  C   UNL     1       6.726   4.811  14.503  0.00  0.00    +0.000 A 
ATOM     23  C   UNL     1       6.900   5.876  15.391  0.00  0.00    +0.000 A 
ATOM     24  C   UNL     1       6.340   5.846  16.677  0.00  0.00    +0.000 A 
BRANCH  24  25
ATOM     25  O   UNL     1       6.555   6.990  17.398  0.00  0.00    +0.000 OA
ATOM     26  C   UNL     1       7.809   7.122  18.062  0.00  0.00    +0.000 C 
ENDBRANCH  24  25
ENDBRANCH  17  19
ENDBRANCH   1  15
BRANCH   1  27
ATOM     27  C   UNL     1       2.247   3.219  20.220  0.00  0.00    +0.000 C 
ATOM     28  C   UNL     1       2.528   2.746  21.653  0.00  0.00    +0.000 C 
ATOM     29  C   UNL     1       0.727   3.352  20.056  0.00  0.00    +0.000 C 
ENDBRANCH   1  27
TORSDOF 8
ENDMDL
MODEL 9
REMARK VINA RESULT:      -7.3      3.262      8.175
REMARK  Name = 
REMARK  12 active torsions:
REMARK  status: ('A' for Active; 'I' for Inactive)
REMARK    1  A    between atoms: C_1  and  C_2
REMARK    2  A    between atoms: C_2  and  O_3
REMARK    3  A    between atoms: O_3  and  C_4
REMARK    4  A    between atoms: C_7  and  C_8
REMARK    5  A    between atoms: N_10  and  C_11
REMARK    6  A    between atoms: C_11  and  C_12
REMARK    7  A    between atoms: C_11  and  C_23
REMARK    8  A    between atoms: N_14  and  C_15
REMARK    9  A    between atoms: C_20  and  O_21
REMARK   10  A    between atoms: O_21  and  C_22
REMARK   11  A    between atoms: C_23  and  C_24
REMARK   12  A    between atoms: C_23  and  C_25
REMARK                            x       y       z     vdW  Elec       q    Type
REMARK                         _______ _______ _______ _____ _____    ______ ____
ROOT
ATOM      1  C   UNL     1       2.758   5.606  20.237  0.00  0.00    +0.000 C 
ENDROOT
BRANCH   1   4
ATOM      2  C   UNL     1       1.684   7.876  20.558  0.00  0.00    +0.000 C 
ATOM      3  O   UNL     1       1.884   7.908  21.759  0.00  0.00    +0.000 OA
ATOM      4  N   UNL     1       2.204   6.884  19.737  0.00  0.00    +0.000 N 
ATOM      5  H   UNL     1       2.005   6.896  18.756  0.00  0.00    +0.000 HD
BRANCH   2   9
ATOM      6  C   UNL     1      -0.658  10.993  18.618  0.00  0.00    +0.000 A 
ATOM      7  C   UNL     1       0.266  10.229  17.898  0.00  0.00    +0.000 A 
ATOM      8  C   UNL     1       0.993   9.200  18.525  0.00  0.00    +0.000 A 
ATOM      9  C   UNL     1       0.817   8.924  19.884  0.00  0.00    +0.000 A 
ATOM     10  C   UNL     1      -0.137   9.680  20.590  0.00  0.00    +0.000 A 
ATOM     11  C   UNL     1      -0.847  10.716  19.968  0.00  0.00    +0.000 A 
BRANCH   6  12
ATOM     12  O   UNL     1      -1.304  11.968  17.914  0.00  0.00    +0.000 OA
BRANCH  12  14
ATOM     13  C   UNL     1      -3.640  11.470  17.774  0.00  0.00    +0.000 C 
ATOM     14  C   UNL     1      -2.330  11.540  17.011  0.00  0.00    +0.000 C 
ENDBRANCH  12  14
ENDBRANCH   6  12
ENDBRANCH   2   9
ENDBRANCH   1   4
BRANCH   1  15
ATOM     15  C   UNL     1       3.935   5.098  19.367  0.00  0.00    +0.000 C 
ATOM     16  O   UNL     1       4.522   4.051  19.636  0.00  0.00    +0.000 OA
ATOM     17  N   UNL     1       4.132   5.821  18.197  0.00  0.00    +0.000 N 
ATOM     18  H   UNL     1       3.985   6.816  18.296  0.00  0.00    +0.000 HD
BRANCH  17  19
ATOM     19  C   UNL     1       5.050   5.389  17.211  0.00  0.00    +0.000 A 
ATOM     20  C   UNL     1       4.561   4.656  16.116  0.00  0.00    +0.000 A 
ATOM     21  C   UNL     1       5.399   4.293  15.059  0.00  0.00    +0.000 A 
ATOM     22  C   UNL     1       6.746   4.634  15.097  0.00  0.00    +0.000 A 
ATOM     23  C   UNL     1       7.243   5.358  16.185  0.00  0.00    +0.000 A 
ATOM     24  C   UNL     1       6.405   5.751  17.240  0.00  0.00    +0.000 A 
BRANCH  24  25
ATOM     25  O   UNL     1       7.036   6.500  18.195  0.00  0.00    +0.000 OA
ATOM     26  C   UNL     1       7.733   5.803  19.223  0.00  0.00    +0.000 C 
ENDBRANCH  24  25
ENDBRANCH  17  19
ENDBRANCH   1  15
BRANCH   1  27
ATOM     27  C   UNL     1       1.633   4.521  20.230  0.00  0.00    +0.000 C 
ATOM     28  C   UNL     1       1.440   3.850  18.862  0.00  0.00    +0.000 C 
ATOM     29  C   UNL     1       1.885   3.417  21.266  0.00  0.00    +0.000 C 
ENDBRANCH   1  27
TORSDOF 8
ENDMDL
