MODEL 1
REMARK VINA RESULT:      -7.3      0.000      0.000
REMARK  Name = 
REMARK  8 active torsions:
REMARK  status: ('A' for Active; 'I' for Inactive)
REMARK    1  A    between atoms: C_1  and  O_2
REMARK    2  A    between atoms: O_2  and  C_3
REMARK    3  A    between atoms: C_6  and  N_7
REMARK    4  A    between atoms: C_11  and  C_12
REMARK    5  A    between atoms: N_14  and  C_15
REMARK    6  A    between atoms: C_15  and  C_16
REMARK    7  A    between atoms: C_16  and  O_17
REMARK    8  A    between atoms: O_17  and  C_18
REMARK                            x       y       z     vdW  Elec       q    Type
REMARK                         _______ _______ _______ _____ _____    ______ ____
ROOT
ATOM      1  C   UNL     1       5.917   5.862  18.434  0.00  0.00    +0.000 C 
ATOM      2  O   UNL     1       6.651   5.442  19.326  0.00  0.00    +0.000 OA
ATOM      3  N   UNL     1       6.369   6.729  17.466  0.00  0.00    +0.000 N 
ATOM      4  H   UNL     1       5.670   7.178  16.881  0.00  0.00    +0.000 HD
ENDROOT
BRANCH   1  10
ATOM      5  C   UNL     1       3.390   6.210  17.988  0.00  0.00    +0.000 A 
ATOM      6  C   UNL     1       2.104   5.642  17.939  0.00  0.00    +0.000 A 
ATOM      7  C   UNL     1       1.899   4.294  18.238  0.00  0.00    +0.000 A 
ATOM      8  C   UNL     1       2.983   3.497  18.607  0.00  0.00    +0.000 A 
ATOM      9  C   UNL     1       4.268   4.045  18.679  0.00  0.00    +0.000 A 
ATOM     10  C   UNL     1       4.487   5.404  18.369  0.00  0.00    +0.000 A 
BRANCH   8  11
ATOM     11  N   UNL     1       2.768   2.077  18.914  0.00  0.00    +0.000 N 
ATOM     12  O   UNL     1       3.537   1.257  18.394  0.00  0.00    +0.000 OA
ATOM     13  O   UNL     1       1.835   1.784  19.673  0.00  0.00    +0.000 OA
ENDBRANCH   8  11
BRANCH   5  15
ATOM     14  C   UNL     1       2.515   8.428  17.900  0.00  0.00    +0.000 C 
ATOM     15  O   UNL     1       3.616   7.539  17.717  0.00  0.00    +0.000 OA
ENDBRANCH   5  15
ENDBRANCH   1  10
BRANCH   3  16
ATOM     16  C   UNL     1       7.732   7.236  17.467  0.00  0.00    +0.000 C 
BRANCH  16  17
ATOM     17  C   UNL     1       7.792   8.729  17.786  0.00  0.00    +0.000 C 
BRANCH  17  18
ATOM     18  O   UNL     1       8.660   8.945  18.902  0.00  0.00    +0.000 OA
BRANCH  18  19
ATOM     19  C   UNL     1       9.205  10.197  19.003  0.00  0.00    +0.000 A 
ATOM     20  C   UNL     1       9.455  10.636  20.307  0.00  0.00    +0.000 A 
ATOM     21  C   UNL     1      10.005  11.899  20.538  0.00  0.00    +0.000 A 
ATOM     22  C   UNL     1      10.324  12.719  19.459  0.00  0.00    +0.000 A 
ATOM     23 CL   UNL     1      10.993  14.280  19.734  0.00  0.00    +0.000 Cl
ATOM     24  C   UNL     1      10.105  12.281  18.157  0.00  0.00    +0.000 A 
ATOM     25  C   UNL     1       9.548  11.018  17.928  0.00  0.00    +0.000 A 
ENDBRANCH  18  19
ENDBRANCH  17  18
ENDBRANCH  16  17
ENDBRANCH   3  16
TORSDOF 7
ENDMDL
MODEL 2
REMARK VINA RESULT:      -7.3      1.970      2.295
REMARK  Name = 
REMARK  8 active torsions:
REMARK  status: ('A' for Active; 'I' for Inactive)
REMARK    1  A    between atoms: C_1  and  O_2
REMARK    2  A    between atoms: O_2  and  C_3
REMARK    3  A    between atoms: C_6  and  N_7
REMARK    4  A    between atoms: C_11  and  C_12
REMARK    5  A    between atoms: N_14  and  C_15
REMARK    6  A    between atoms: C_15  and  C_16
REMARK    7  A    between atoms: C_16  and  O_17
REMARK    8  A    between atoms: O_17  and  C_18
REMARK                            x       y       z     vdW  Elec       q    Type
REMARK                         _______ _______ _______ _____ _____    ______ ____
ROOT
ATOM      1  C   UNL     1       6.404   5.664  18.881  0.00  0.00    +0.000 C 
ATOM      2  O   UNL     1       7.041   5.256  19.849  0.00  0.00    +0.000 OA
ATOM      3  N   UNL     1       6.873   6.672  18.072  0.00  0.00    +0.000 N 
ATOM      4  H   UNL     1       6.217   7.083  17.413  0.00  0.00    +0.000 HD
ENDROOT
BRANCH   1  10
ATOM      5  C   UNL     1       4.657   4.673  17.246  0.00  0.00    +0.000 A 
ATOM      6  C   UNL     1       3.402   4.062  17.078  0.00  0.00    +0.000 A 
ATOM      7  C   UNL     1       2.578   3.791  18.173  0.00  0.00    +0.000 A 
ATOM      8  C   UNL     1       2.999   4.146  19.455  0.00  0.00    +0.000 A 
ATOM      9  C   UNL     1       4.236   4.769  19.644  0.00  0.00    +0.000 A 
ATOM     10  C   UNL     1       5.080   5.038  18.545  0.00  0.00    +0.000 A 
BRANCH   8  11
ATOM     11  N   UNL     1       2.136   3.853  20.607  0.00  0.00    +0.000 N 
ATOM     12  O   UNL     1       2.540   3.018  21.427  0.00  0.00    +0.000 OA
ATOM     13  O   UNL     1       1.059   4.459  20.693  0.00  0.00    +0.000 OA
ENDBRANCH   8  11
BRANCH   5  15
ATOM     14  C   UNL     1       6.170   3.873  15.584  0.00  0.00    +0.000 C 
ATOM     15  O   UNL     1       5.478   4.968  16.183  0.00  0.00    +0.000 OA
ENDBRANCH   5  15
ENDBRANCH   1  10
BRANCH   3  16
ATOM     16  C   UNL     1       8.135   7.345  18.339  0.00  0.00    +0.000 C 
BRANCH  16  17
ATOM     17  C   UNL     1       8.098   8.819  17.938  0.00  0.00    +0.000 C 
BRANCH  17  18
ATOM     18  O   UNL     1       8.872   9.586  18.864  0.00  0.00    +0.000 OA
BRANCH  18  19
ATOM     19  C   UNL     1       9.323  10.796  18.410  0.00  0.00    +0.000 A 
ATOM     20  C   UNL     1      10.711  10.960  18.426  0.00  0.00    +0.000 A 
ATOM     21  C   UNL     1      11.291  12.154  17.991  0.00  0.00    +0.000 A 
ATOM     22  C   UNL     1      10.478  13.182  17.519  0.00  0.00    +0.000 A 
ATOM     23 CL   UNL     1      11.183  14.660  16.991  0.00  0.00    +0.000 Cl
ATOM     24  C   UNL     1       9.098  13.019  17.473  0.00  0.00    +0.000 A 
ATOM     25  C   UNL     1       8.519  11.824  17.915  0.00  0.00    +0.000 A 
ENDBRANCH  18  19
ENDBRANCH  17  18
ENDBRANCH  16  17
ENDBRANCH   3  16
TORSDOF 7
ENDMDL
MODEL 3
REMARK VINA RESULT:      -7.2      4.482      6.861
REMARK  Name = 
REMARK  8 active torsions:
REMARK  status: ('A' for Active; 'I' for Inactive)
REMARK    1  A    between atoms: C_1  and  O_2
REMARK    2  A    between atoms: O_2  and  C_3
REMARK    3  A    between atoms: C_6  and  N_7
REMARK    4  A    between atoms: C_11  and  C_12
REMARK    5  A    between atoms: N_14  and  C_15
REMARK    6  A    between atoms: C_15  and  C_16
REMARK    7  A    between atoms: C_16  and  O_17
REMARK    8  A    between atoms: O_17  and  C_18
REMARK                            x       y       z     vdW  Elec       q    Type
REMARK                         _______ _______ _______ _____ _____    ______ ____
ROOT
ATOM      1  C   UNL     1       3.741   3.620  17.281  0.00  0.00    +0.000 C 
ATOM      2  O   UNL     1       2.698   3.473  16.649  0.00  0.00    +0.000 OA
ATOM      3  N   UNL     1       3.831   3.322  18.621  0.00  0.00    +0.000 N 
ATOM      4  H   UNL     1       4.659   3.644  19.114  0.00  0.00    +0.000 HD
ENDROOT
BRANCH   1  10
ATOM      5  C   UNL     1       6.047   4.798  17.196  0.00  0.00    +0.000 A 
ATOM      6  C   UNL     1       7.157   5.178  16.422  0.00  0.00    +0.000 A 
ATOM      7  C   UNL     1       7.226   4.875  15.060  0.00  0.00    +0.000 A 
ATOM      8  C   UNL     1       6.169   4.198  14.452  0.00  0.00    +0.000 A 
ATOM      9  C   UNL     1       5.048   3.824  15.199  0.00  0.00    +0.000 A 
ATOM     10  C   UNL     1       4.973   4.117  16.578  0.00  0.00    +0.000 A 
BRANCH   8  11
ATOM     11  N   UNL     1       6.245   3.872  13.022  0.00  0.00    +0.000 N 
ATOM     12  O   UNL     1       7.217   4.303  12.387  0.00  0.00    +0.000 OA
ATOM     13  O   UNL     1       5.336   3.184  12.536  0.00  0.00    +0.000 OA
ENDBRANCH   8  11
BRANCH   5  15
ATOM     14  C   UNL     1       7.109   5.644  19.158  0.00  0.00    +0.000 C 
ATOM     15  O   UNL     1       5.947   5.101  18.533  0.00  0.00    +0.000 OA
ENDBRANCH   5  15
ENDBRANCH   1  10
BRANCH   3  16
ATOM     16  C   UNL     1       2.682   2.856  19.380  0.00  0.00    +0.000 C 
BRANCH  16  17
ATOM     17  C   UNL     1       1.830   4.011  19.904  0.00  0.00    +0.000 C 
BRANCH  17  18
ATOM     18  O   UNL     1       2.681   5.093  20.295  0.00  0.00    +0.000 OA
BRANCH  18  19
ATOM     19  C   UNL     1       2.354   6.323  19.790  0.00  0.00    +0.000 A 
ATOM     20  C   UNL     1       1.760   7.203  20.699  0.00  0.00    +0.000 A 
ATOM     21  C   UNL     1       1.378   8.486  20.300  0.00  0.00    +0.000 A 
ATOM     22  C   UNL     1       1.610   8.898  18.990  0.00  0.00    +0.000 A 
ATOM     23 CL   UNL     1       1.134  10.473  18.487  0.00  0.00    +0.000 Cl
ATOM     24  C   UNL     1       2.226   8.040  18.085  0.00  0.00    +0.000 A 
ATOM     25  C   UNL     1       2.602   6.752  18.485  0.00  0.00    +0.000 A 
ENDBRANCH  18  19
ENDBRANCH  17  18
ENDBRANCH  16  17
ENDBRANCH   3  16
TORSDOF 7
ENDMDL
MODEL 4
REMARK VINA RESULT:      -7.1      4.551      6.868
REMARK  Name = 
REMARK  8 active torsions:
REMARK  status: ('A' for Active; 'I' for Inactive)
REMARK    1  A    between atoms: C_1  and  O_2
REMARK    2  A    between atoms: O_2  and  C_3
REMARK    3  A    between atoms: C_6  and  N_7
REMARK    4  A    between atoms: C_11  and  C_12
REMARK    5  A    between atoms: N_14  and  C_15
REMARK    6  A    between atoms: C_15  and  C_16
REMARK    7  A    between atoms: C_16  and  O_17
REMARK    8  A    between atoms: O_17  and  C_18
REMARK                            x       y       z     vdW  Elec       q    Type
REMARK                         _______ _______ _______ _____ _____    ______ ____
ROOT
ATOM      1  C   UNL     1       3.673   3.863  17.745  0.00  0.00    +0.000 C 
ATOM      2  O   UNL     1       2.637   3.671  17.112  0.00  0.00    +0.000 OA
ATOM      3  N   UNL     1       3.710   3.799  19.119  0.00  0.00    +0.000 N 
ATOM      4  H   UNL     1       4.545   4.151  19.578  0.00  0.00    +0.000 HD
ENDROOT
BRANCH   1  10
ATOM      5  C   UNL     1       6.174   4.525  17.616  0.00  0.00    +0.000 A 
ATOM      6  C   UNL     1       7.305   4.736  16.808  0.00  0.00    +0.000 A 
ATOM      7  C   UNL     1       7.245   4.564  15.423  0.00  0.00    +0.000 A 
ATOM      8  C   UNL     1       6.040   4.191  14.827  0.00  0.00    +0.000 A 
ATOM      9  C   UNL     1       4.899   3.992  15.609  0.00  0.00    +0.000 A 
ATOM     10  C   UNL     1       4.951   4.154  17.010  0.00  0.00    +0.000 A 
BRANCH   8  11
ATOM     11  N   UNL     1       5.980   4.002  13.372  0.00  0.00    +0.000 N 
ATOM     12  O   UNL     1       4.904   3.626  12.887  0.00  0.00    +0.000 OA
ATOM     13  O   UNL     1       7.005   4.231  12.715  0.00  0.00    +0.000 OA
ENDBRANCH   8  11
BRANCH   5  15
ATOM     14  C   UNL     1       7.199   5.589  19.489  0.00  0.00    +0.000 C 
ATOM     15  O   UNL     1       6.201   4.706  18.978  0.00  0.00    +0.000 OA
ENDBRANCH   5  15
ENDBRANCH   1  10
BRANCH   3  16
ATOM     16  C   UNL     1       2.515   3.542  19.907  0.00  0.00    +0.000 C 
BRANCH  16  17
ATOM     17  C   UNL     1       1.863   4.833  20.402  0.00  0.00    +0.000 C 
BRANCH  17  18
ATOM     18  O   UNL     1       2.768   5.925  20.219  0.00  0.00    +0.000 OA
BRANCH  18  19
ATOM     19  C   UNL     1       2.196   7.134  19.925  0.00  0.00    +0.000 A 
ATOM     20  C   UNL     1       2.399   7.589  18.619  0.00  0.00    +0.000 A 
ATOM     21  C   UNL     1       1.868   8.813  18.203  0.00  0.00    +0.000 A 
ATOM     22  C   UNL     1       1.114   9.574  19.092  0.00  0.00    +0.000 A 
ATOM     23 CL   UNL     1       0.464  11.086  18.591  0.00  0.00    +0.000 Cl
ATOM     24  C   UNL     1       0.882   9.117  20.385  0.00  0.00    +0.000 A 
ATOM     25  C   UNL     1       1.421   7.894  20.802  0.00  0.00    +0.000 A 
ENDBRANCH  18  19
ENDBRANCH  17  18
ENDBRANCH  16  17
ENDBRANCH   3  16
TORSDOF 7
ENDMDL
MODEL 5
REMARK VINA RESULT:      -7.1      0.841      1.387
REMARK  Name = 
REMARK  8 active torsions:
REMARK  status: ('A' for Active; 'I' for Inactive)
REMARK    1  A    between atoms: C_1  and  O_2
REMARK    2  A    between atoms: O_2  and  C_3
REMARK    3  A    between atoms: C_6  and  N_7
REMARK    4  A    between atoms: C_11  and  C_12
REMARK    5  A    between atoms: N_14  and  C_15
REMARK    6  A    between atoms: C_15  and  C_16
REMARK    7  A    between atoms: C_16  and  O_17
REMARK    8  A    between atoms: O_17  and  C_18
REMARK                            x       y       z     vdW  Elec       q    Type
REMARK                         _______ _______ _______ _____ _____    ______ ____
ROOT
ATOM      1  C   UNL     1       6.596   6.245  18.273  0.00  0.00    +0.000 C 
ATOM      2  O   UNL     1       7.516   5.916  19.018  0.00  0.00    +0.000 OA
ATOM      3  N   UNL     1       6.746   7.220  17.315  0.00  0.00    +0.000 N 
ATOM      4  H   UNL     1       5.901   7.569  16.870  0.00  0.00    +0.000 HD
ENDROOT
BRANCH   1  10
ATOM      5  C   UNL     1       4.015   6.137  18.079  0.00  0.00    +0.000 A 
ATOM      6  C   UNL     1       2.848   5.362  18.194  0.00  0.00    +0.000 A 
ATOM      7  C   UNL     1       2.907   4.022  18.585  0.00  0.00    +0.000 A 
ATOM      8  C   UNL     1       4.142   3.444  18.880  0.00  0.00    +0.000 A 
ATOM      9  C   UNL     1       5.315   4.201  18.786  0.00  0.00    +0.000 A 
ATOM     10  C   UNL     1       5.266   5.553  18.384  0.00  0.00    +0.000 A 
BRANCH   8  11
ATOM     11  N   UNL     1       4.205   2.033  19.282  0.00  0.00    +0.000 N 
ATOM     12  O   UNL     1       3.588   1.213  18.589  0.00  0.00    +0.000 OA
ATOM     13  O   UNL     1       4.872   1.746  20.285  0.00  0.00    +0.000 OA
ENDBRANCH   8  11
BRANCH   5  15
ATOM     14  C   UNL     1       2.717   8.118  17.792  0.00  0.00    +0.000 C 
ATOM     15  O   UNL     1       3.982   7.462  17.715  0.00  0.00    +0.000 OA
ENDBRANCH   5  15
ENDBRANCH   1  10
BRANCH   3  16
ATOM     16  C   UNL     1       7.993   7.952  17.155  0.00  0.00    +0.000 C 
BRANCH  16  17
ATOM     17  C   UNL     1       7.953   9.315  17.844  0.00  0.00    +0.000 C 
BRANCH  17  18
ATOM     18  O   UNL     1       8.805   9.295  18.992  0.00  0.00    +0.000 OA
BRANCH  18  19
ATOM     19  C   UNL     1       9.478  10.458  19.259  0.00  0.00    +0.000 A 
ATOM     20  C   UNL     1       9.920  11.163  18.136  0.00  0.00    +0.000 A 
ATOM     21  C   UNL     1      10.623  12.362  18.281  0.00  0.00    +0.000 A 
ATOM     22  C   UNL     1      10.867  12.867  19.556  0.00  0.00    +0.000 A 
ATOM     23 CL   UNL     1      11.740  14.337  19.744  0.00  0.00    +0.000 Cl
ATOM     24  C   UNL     1      10.408  12.187  20.679  0.00  0.00    +0.000 A 
ATOM     25  C   UNL     1       9.709  10.983  20.531  0.00  0.00    +0.000 A 
ENDBRANCH  18  19
ENDBRANCH  17  18
ENDBRANCH  16  17
ENDBRANCH   3  16
TORSDOF 7
ENDMDL
MODEL 6
REMARK VINA RESULT:      -7.1      0.805      1.112
REMARK  Name = 
REMARK  8 active torsions:
REMARK  status: ('A' for Active; 'I' for Inactive)
REMARK    1  A    between atoms: C_1  and  O_2
REMARK    2  A    between atoms: O_2  and  C_3
REMARK    3  A    between atoms: C_6  and  N_7
REMARK    4  A    between atoms: C_11  and  C_12
REMARK    5  A    between atoms: N_14  and  C_15
REMARK    6  A    between atoms: C_15  and  C_16
REMARK    7  A    between atoms: C_16  and  O_17
REMARK    8  A    between atoms: O_17  and  C_18
REMARK                            x       y       z     vdW  Elec       q    Type
REMARK                         _______ _______ _______ _____ _____    ______ ____
ROOT
ATOM      1  C   UNL     1       5.986   5.671  18.327  0.00  0.00    +0.000 C 
ATOM      2  O   UNL     1       6.805   4.966  18.912  0.00  0.00    +0.000 OA
ATOM      3  N   UNL     1       6.349   6.833  17.687  0.00  0.00    +0.000 N 
ATOM      4  H   UNL     1       5.601   7.455  17.392  0.00  0.00    +0.000 HD
ENDROOT
BRANCH   1  10
ATOM      5  C   UNL     1       3.459   6.099  17.953  0.00  0.00    +0.000 A 
ATOM      6  C   UNL     1       2.158   5.567  17.914  0.00  0.00    +0.000 A 
ATOM      7  C   UNL     1       1.924   4.214  18.174  0.00  0.00    +0.000 A 
ATOM      8  C   UNL     1       2.995   3.379  18.492  0.00  0.00    +0.000 A 
ATOM      9  C   UNL     1       4.295   3.890  18.551  0.00  0.00    +0.000 A 
ATOM     10  C   UNL     1       4.543   5.253  18.281  0.00  0.00    +0.000 A 
BRANCH   8  11
ATOM     11  N   UNL     1       2.749   1.955  18.756  0.00  0.00    +0.000 N 
ATOM     12  O   UNL     1       3.646   1.154  18.458  0.00  0.00    +0.000 OA
ATOM     13  O   UNL     1       1.664   1.639  19.263  0.00  0.00    +0.000 OA
ENDBRANCH   8  11
BRANCH   5  15
ATOM     14  C   UNL     1       2.593   8.312  17.743  0.00  0.00    +0.000 C 
ATOM     15  O   UNL     1       3.714   7.430  17.720  0.00  0.00    +0.000 OA
ENDBRANCH   5  15
ENDBRANCH   1  10
BRANCH   3  16
ATOM     16  C   UNL     1       7.720   7.319  17.700  0.00  0.00    +0.000 C 
BRANCH  16  17
ATOM     17  C   UNL     1       7.790   8.845  17.676  0.00  0.00    +0.000 C 
BRANCH  17  18
ATOM     18  O   UNL     1       8.705   9.297  18.678  0.00  0.00    +0.000 OA
BRANCH  18  19
ATOM     19  C   UNL     1       9.215  10.555  18.499  0.00  0.00    +0.000 A 
ATOM     20  C   UNL     1       8.355  11.466  17.879  0.00  0.00    +0.000 A 
ATOM     21  C   UNL     1       8.765  12.780  17.638  0.00  0.00    +0.000 A 
ATOM     22  C   UNL     1      10.035  13.189  18.038  0.00  0.00    +0.000 A 
ATOM     23 CL   UNL     1      10.552  14.802  17.736  0.00  0.00    +0.000 Cl
ATOM     24  C   UNL     1      10.888  12.298  18.680  0.00  0.00    +0.000 A 
ATOM     25  C   UNL     1      10.478  10.981  18.915  0.00  0.00    +0.000 A 
ENDBRANCH  18  19
ENDBRANCH  17  18
ENDBRANCH  16  17
ENDBRANCH   3  16
TORSDOF 7
ENDMDL
MODEL 7
REMARK VINA RESULT:      -7.1      2.109      2.773
REMARK  Name = 
REMARK  8 active torsions:
REMARK  status: ('A' for Active; 'I' for Inactive)
REMARK    1  A    between atoms: C_1  and  O_2
REMARK    2  A    between atoms: O_2  and  C_3
REMARK    3  A    between atoms: C_6  and  N_7
REMARK    4  A    between atoms: C_11  and  C_12
REMARK    5  A    between atoms: N_14  and  C_15
REMARK    6  A    between atoms: C_15  and  C_16
REMARK    7  A    between atoms: C_16  and  O_17
REMARK    8  A    between atoms: O_17  and  C_18
REMARK                            x       y       z     vdW  Elec       q    Type
REMARK                         _______ _______ _______ _____ _____    ______ ____
ROOT
ATOM      1  C   UNL     1       7.215   5.983  18.605  0.00  0.00    +0.000 C 
ATOM      2  O   UNL     1       7.752   5.576  19.633  0.00  0.00    +0.000 OA
ATOM      3  N   UNL     1       7.577   7.171  18.014  0.00  0.00    +0.000 N 
ATOM      4  H   UNL     1       6.968   7.532  17.284  0.00  0.00    +0.000 HD
ENDROOT
BRANCH   1  10
ATOM      5  C   UNL     1       6.215   4.618  16.643  0.00  0.00    +0.000 A 
ATOM      6  C   UNL     1       5.152   3.833  16.164  0.00  0.00    +0.000 A 
ATOM      7  C   UNL     1       4.040   3.560  16.963  0.00  0.00    +0.000 A 
ATOM      8  C   UNL     1       3.973   4.086  18.253  0.00  0.00    +0.000 A 
ATOM      9  C   UNL     1       5.012   4.883  18.745  0.00  0.00    +0.000 A 
ATOM     10  C   UNL     1       6.144   5.157  17.948  0.00  0.00    +0.000 A 
BRANCH   8  11
ATOM     11  N   UNL     1       2.807   3.792  19.097  0.00  0.00    +0.000 N 
ATOM     12  O   UNL     1       1.695   3.773  18.550  0.00  0.00    +0.000 OA
ATOM     13  O   UNL     1       3.003   3.578  20.301  0.00  0.00    +0.000 OA
ENDBRANCH   8  11
BRANCH   5  15
ATOM     14  C   UNL     1       7.124   4.904  14.455  0.00  0.00    +0.000 C 
ATOM     15  O   UNL     1       7.312   4.918  15.870  0.00  0.00    +0.000 OA
ENDBRANCH   5  15
ENDBRANCH   1  10
BRANCH   3  16
ATOM     16  C   UNL     1       8.589   8.039  18.595  0.00  0.00    +0.000 C 
BRANCH  16  17
ATOM     17  C   UNL     1       8.411   9.496  18.169  0.00  0.00    +0.000 C 
BRANCH  17  18
ATOM     18  O   UNL     1       9.083  10.350  19.099  0.00  0.00    +0.000 OA
BRANCH  18  19
ATOM     19  C   UNL     1       9.511  11.553  18.605  0.00  0.00    +0.000 A 
ATOM     20  C   UNL     1      10.664  11.499  17.816  0.00  0.00    +0.000 A 
ATOM     21  C   UNL     1      11.201  12.663  17.261  0.00  0.00    +0.000 A 
ATOM     22  C   UNL     1      10.569  13.885  17.479  0.00  0.00    +0.000 A 
ATOM     23 CL   UNL     1      11.228  15.325  16.806  0.00  0.00    +0.000 Cl
ATOM     24  C   UNL     1       9.406  13.946  18.239  0.00  0.00    +0.000 A 
ATOM     25  C   UNL     1       8.873  12.780  18.800  0.00  0.00    +0.000 A 
ENDBRANCH  18  19
ENDBRANCH  17  18
ENDBRANCH  16  17
ENDBRANCH   3  16
TORSDOF 7
ENDMDL
MODEL 8
REMARK VINA RESULT:      -7.0      5.620      8.512
REMARK  Name = 
REMARK  8 active torsions:
REMARK  status: ('A' for Active; 'I' for Inactive)
REMARK    1  A    between atoms: C_1  and  O_2
REMARK    2  A    between atoms: O_2  and  C_3
REMARK    3  A    between atoms: C_6  and  N_7
REMARK    4  A    between atoms: C_11  and  C_12
REMARK    5  A    between atoms: N_14  and  C_15
REMARK    6  A    between atoms: C_15  and  C_16
REMARK    7  A    between atoms: C_16  and  O_17
REMARK    8  A    between atoms: O_17  and  C_18
REMARK                            x       y       z     vdW  Elec       q    Type
REMARK                         _______ _______ _______ _____ _____    ______ ____
ROOT
ATOM      1  C   UNL     1       2.557   6.909  18.932  0.00  0.00    +0.000 C 
ATOM      2  O   UNL     1       2.273   6.692  20.107  0.00  0.00    +0.000 OA
ATOM      3  N   UNL     1       2.225   8.089  18.307  0.00  0.00    +0.000 N 
ATOM      4  H   UNL     1       2.322   8.122  17.296  0.00  0.00    +0.000 HD
ENDROOT
BRANCH   1  10
ATOM      5  C   UNL     1       2.774   4.651  17.681  0.00  0.00    +0.000 A 
ATOM      6  C   UNL     1       3.584   3.787  16.924  0.00  0.00    +0.000 A 
ATOM      7  C   UNL     1       4.902   4.126  16.607  0.00  0.00    +0.000 A 
ATOM      8  C   UNL     1       5.429   5.336  17.059  0.00  0.00    +0.000 A 
ATOM      9  C   UNL     1       4.646   6.204  17.827  0.00  0.00    +0.000 A 
ATOM     10  C   UNL     1       3.311   5.874  18.145  0.00  0.00    +0.000 A 
BRANCH   8  11
ATOM     11  N   UNL     1       6.811   5.696  16.718  0.00  0.00    +0.000 N 
ATOM     12  O   UNL     1       7.597   4.774  16.462  0.00  0.00    +0.000 OA
ATOM     13  O   UNL     1       7.109   6.899  16.704  0.00  0.00    +0.000 OA
ENDBRANCH   8  11
BRANCH   5  15
ATOM     14  C   UNL     1       1.295   3.144  18.791  0.00  0.00    +0.000 C 
ATOM     15  O   UNL     1       1.481   4.332  18.023  0.00  0.00    +0.000 OA
ENDBRANCH   5  15
ENDBRANCH   1  10
BRANCH   3  16
ATOM     16  C   UNL     1       1.479   9.134  18.990  0.00  0.00    +0.000 C 
BRANCH  16  17
ATOM     17  C   UNL     1       0.728  10.037  18.012  0.00  0.00    +0.000 C 
BRANCH  17  18
ATOM     18  O   UNL     1      -0.421   9.349  17.513  0.00  0.00    +0.000 OA
BRANCH  18  19
ATOM     19  C   UNL     1      -1.587  10.067  17.489  0.00  0.00    +0.000 A 
ATOM     20  C   UNL     1      -2.346   9.936  16.323  0.00  0.00    +0.000 A 
ATOM     21  C   UNL     1      -3.553  10.625  16.180  0.00  0.00    +0.000 A 
ATOM     22  C   UNL     1      -4.012  11.433  17.217  0.00  0.00    +0.000 A 
ATOM     23 CL   UNL     1      -5.493  12.293  17.046  0.00  0.00    +0.000 Cl
ATOM     24  C   UNL     1      -3.278  11.549  18.393  0.00  0.00    +0.000 A 
ATOM     25  C   UNL     1      -2.066  10.863  18.532  0.00  0.00    +0.000 A 
ENDBRANCH  18  19
ENDBRANCH  17  18
ENDBRANCH  16  17
ENDBRANCH   3  16
TORSDOF 7
ENDMDL
MODEL 9
REMARK VINA RESULT:      -7.0      5.562      8.369
REMARK  Name = 
REMARK  8 active torsions:
REMARK  status: ('A' for Active; 'I' for Inactive)
REMARK    1  A    between atoms: C_1  and  O_2
REMARK    2  A    between atoms: O_2  and  C_3
REMARK    3  A    between atoms: C_6  and  N_7
REMARK    4  A    between atoms: C_11  and  C_12
REMARK    5  A    between atoms: N_14  and  C_15
REMARK    6  A    between atoms: C_15  and  C_16
REMARK    7  A    between atoms: C_16  and  O_17
REMARK    8  A    between atoms: O_17  and  C_18
REMARK                            x       y       z     vdW  Elec       q    Type
REMARK                         _______ _______ _______ _____ _____    ______ ____
ROOT
ATOM      1  C   UNL     1       2.898   6.606  18.722  0.00  0.00    +0.000 C 
ATOM      2  O   UNL     1       2.612   6.309  19.880  0.00  0.00    +0.000 OA
ATOM      3  N   UNL     1       2.524   7.807  18.164  0.00  0.00    +0.000 N 
ATOM      4  H   UNL     1       2.628   7.904  17.158  0.00  0.00    +0.000 HD
ENDROOT
BRANCH   1  10
ATOM      5  C   UNL     1       3.277   4.357  17.494  0.00  0.00    +0.000 A 
ATOM      6  C   UNL     1       4.116   3.578  16.677  0.00  0.00    +0.000 A 
ATOM      7  C   UNL     1       5.345   4.068  16.228  0.00  0.00    +0.000 A 
ATOM      8  C   UNL     1       5.756   5.346  16.608  0.00  0.00    +0.000 A 
ATOM      9  C   UNL     1       4.946   6.132  17.433  0.00  0.00    +0.000 A 
ATOM     10  C   UNL     1       3.698   5.649  17.884  0.00  0.00    +0.000 A 
BRANCH   8  11
ATOM     11  N   UNL     1       7.044   5.864  16.129  0.00  0.00    +0.000 N 
ATOM     12  O   UNL     1       7.581   6.764  16.790  0.00  0.00    +0.000 OA
ATOM     13  O   UNL     1       7.519   5.371  15.097  0.00  0.00    +0.000 OA
ENDBRANCH   8  11
BRANCH   5  15
ATOM     14  C   UNL     1       2.106   2.698  18.745  0.00  0.00    +0.000 C 
ATOM     15  O   UNL     1       2.073   3.891  17.964  0.00  0.00    +0.000 OA
ENDBRANCH   5  15
ENDBRANCH   1  10
BRANCH   3  16
ATOM     16  C   UNL     1       1.732   8.780  18.899  0.00  0.00    +0.000 C 
BRANCH  16  17
ATOM     17  C   UNL     1       0.921   9.682  17.970  0.00  0.00    +0.000 C 
BRANCH  17  18
ATOM     18  O   UNL     1       0.289  10.711  18.736  0.00  0.00    +0.000 OA
BRANCH  18  19
ATOM     19  C   UNL     1      -1.050  10.888  18.511  0.00  0.00    +0.000 A 
ATOM     20  C   UNL     1      -1.612  10.043  17.550  0.00  0.00    +0.000 A 
ATOM     21  C   UNL     1      -2.969  10.132  17.230  0.00  0.00    +0.000 A 
ATOM     22  C   UNL     1      -3.772  11.059  17.891  0.00  0.00    +0.000 A 
ATOM     23 CL   UNL     1      -5.443  11.182  17.498  0.00  0.00    +0.000 Cl
ATOM     24  C   UNL     1      -3.230  11.885  18.869  0.00  0.00    +0.000 A 
ATOM     25  C   UNL     1      -1.868  11.798  19.183  0.00  0.00    +0.000 A 
ENDBRANCH  18  19
ENDBRANCH  17  18
ENDBRANCH  16  17
ENDBRANCH   3  16
TORSDOF 7
ENDMDL
