MODEL 1
REMARK VINA RESULT:      -7.8      0.000      0.000
REMARK  Name = 
REMARK  12 active torsions:
REMARK  status: ('A' for Active; 'I' for Inactive)
REMARK    1  A    between atoms: C_1  and  C_2
REMARK    2  A    between atoms: C_2  and  C_3
REMARK    3  A    between atoms: C_2  and  N_4
REMARK    4  A    between atoms: C_5  and  C_6
REMARK    5  A    between atoms: C_7  and  C_8
REMARK    6  A    between atoms: C_8  and  O_9
REMARK    7  A    between atoms: C_8  and  C_10
REMARK    8  A    between atoms: C_10  and  C_11
REMARK    9  A    between atoms: C_11  and  O_12
REMARK   10  A    between atoms: C_11  and  C_13
REMARK   11  A    between atoms: C_13  and  C_14
REMARK   12  A    between atoms: C_17  and  C_18
REMARK                            x       y       z     vdW  Elec       q    Type
REMARK                         _______ _______ _______ _____ _____    ______ ____
ROOT
ATOM      1  N   UNL     1       4.575   4.615  17.060  0.00  0.00    +0.000 N 
ATOM      2  C   UNL     1       4.286   5.947  17.302  0.00  0.00    +0.000 A 
ATOM      3  C   UNL     1       3.082   6.022  18.005  0.00  0.00    +0.000 A 
ATOM      4  C   UNL     1       2.611   4.679  18.168  0.00  0.00    +0.000 A 
ATOM      5  C   UNL     1       1.490   4.103  18.812  0.00  0.00    +0.000 A 
ATOM      6  C   UNL     1       1.297   2.721  18.799  0.00  0.00    +0.000 A 
ATOM      7  C   UNL     1       2.212   1.895  18.163  0.00  0.00    +0.000 A 
ATOM      8  C   UNL     1       3.342   2.430  17.537  0.00  0.00    +0.000 A 
ATOM      9  C   UNL     1       3.535   3.826  17.556  0.00  0.00    +0.000 A 
ENDROOT
BRANCH   3  10
ATOM     10  C   UNL     1       2.481   7.274  18.495  0.00  0.00    +0.000 A 
ATOM     11  C   UNL     1       2.117   7.415  19.845  0.00  0.00    +0.000 A 
ATOM     12  C   UNL     1       1.531   8.597  20.314  0.00  0.00    +0.000 A 
ATOM     13  C   UNL     1       1.266   9.633  19.428  0.00  0.00    +0.000 A 
ATOM     14  F   UNL     1       0.661  10.744  19.866  0.00  0.00    +0.000 F 
ATOM     15  C   UNL     1       1.622   9.528  18.094  0.00  0.00    +0.000 A 
ATOM     16  C   UNL     1       2.256   8.368  17.642  0.00  0.00    +0.000 A 
ENDBRANCH   3  10
BRANCH   1  18
ATOM     17  C   UNL     1       5.822   4.453  14.926  0.00  0.00    +0.000 C 
ATOM     18  C   UNL     1       5.759   4.044  16.397  0.00  0.00    +0.000 C 
ATOM     19  C   UNL     1       7.109   4.277  17.088  0.00  0.00    +0.000 C 
ENDBRANCH   1  18
BRANCH   2  20
ATOM     20  C   UNL     1       5.230   6.955  16.993  0.00  0.00    +0.000 C 
ATOM     21  C   UNL     1       6.207   7.333  17.830  0.00  0.00    +0.000 C 
BRANCH  21  22
ATOM     22  C   UNL     1       7.385   8.170  17.390  0.00  0.00    +0.000 C 
BRANCH  22  23
ATOM     23  O   UNL     1       8.193   7.397  16.524  0.00  0.00    +0.000 OA
ATOM     24  H   UNL     1       8.354   6.544  16.964  0.00  0.00    +0.000 HD
ENDBRANCH  22  23
BRANCH  22  25
ATOM     25  C   UNL     1       8.187   8.735  18.573  0.00  0.00    +0.000 C 
BRANCH  25  26
ATOM     26  C   UNL     1       9.064   9.967  18.336  0.00  0.00    +0.000 C 
BRANCH  26  27
ATOM     27  O   UNL     1       9.546  10.291  19.648  0.00  0.00    +0.000 OA
ATOM     28  H   UNL     1       9.224   9.626  20.278  0.00  0.00    +0.000 HD
ENDBRANCH  26  27
BRANCH  26  29
ATOM     29  C   UNL     1       8.260  11.102  17.737  0.00  0.00    +0.000 C 
BRANCH  29  30
ATOM     30  C   UNL     1       8.800  12.517  17.739  0.00  0.00    +0.000 C 
ATOM     31  O   UNL     1       8.021  13.475  17.881  0.00  0.00    +0.000 OA
ATOM     32  O   UNL     1      10.078  12.516  17.611  0.00  0.00    +0.000 OA
ENDBRANCH  29  30
ENDBRANCH  26  29
ENDBRANCH  25  26
ENDBRANCH  22  25
ENDBRANCH  21  22
ENDBRANCH   2  20
TORSDOF 10
ENDMDL
MODEL 2
REMARK VINA RESULT:      -7.7      0.999      1.253
REMARK  Name = 
REMARK  12 active torsions:
REMARK  status: ('A' for Active; 'I' for Inactive)
REMARK    1  A    between atoms: C_1  and  C_2
REMARK    2  A    between atoms: C_2  and  C_3
REMARK    3  A    between atoms: C_2  and  N_4
REMARK    4  A    between atoms: C_5  and  C_6
REMARK    5  A    between atoms: C_7  and  C_8
REMARK    6  A    between atoms: C_8  and  O_9
REMARK    7  A    between atoms: C_8  and  C_10
REMARK    8  A    between atoms: C_10  and  C_11
REMARK    9  A    between atoms: C_11  and  O_12
REMARK   10  A    between atoms: C_11  and  C_13
REMARK   11  A    between atoms: C_13  and  C_14
REMARK   12  A    between atoms: C_17  and  C_18
REMARK                            x       y       z     vdW  Elec       q    Type
REMARK                         _______ _______ _______ _____ _____    ______ ____
ROOT
ATOM      1  N   UNL     1       4.567   4.610  17.140  0.00  0.00    +0.000 N 
ATOM      2  C   UNL     1       4.284   5.947  17.362  0.00  0.00    +0.000 A 
ATOM      3  C   UNL     1       3.074   6.038  18.051  0.00  0.00    +0.000 A 
ATOM      4  C   UNL     1       2.593   4.700  18.225  0.00  0.00    +0.000 A 
ATOM      5  C   UNL     1       1.462   4.139  18.866  0.00  0.00    +0.000 A 
ATOM      6  C   UNL     1       1.261   2.758  18.868  0.00  0.00    +0.000 A 
ATOM      7  C   UNL     1       2.177   1.919  18.253  0.00  0.00    +0.000 A 
ATOM      8  C   UNL     1       3.316   2.438  17.632  0.00  0.00    +0.000 A 
ATOM      9  C   UNL     1       3.518   3.833  17.634  0.00  0.00    +0.000 A 
ENDROOT
BRANCH   3  10
ATOM     10  C   UNL     1       2.475   7.300  18.518  0.00  0.00    +0.000 A 
ATOM     11  C   UNL     1       2.121   7.469  19.867  0.00  0.00    +0.000 A 
ATOM     12  C   UNL     1       1.537   8.661  20.315  0.00  0.00    +0.000 A 
ATOM     13  C   UNL     1       1.264   9.677  19.409  0.00  0.00    +0.000 A 
ATOM     14  F   UNL     1       0.662  10.797  19.827  0.00  0.00    +0.000 F 
ATOM     15  C   UNL     1       1.610   9.544  18.074  0.00  0.00    +0.000 A 
ATOM     16  C   UNL     1       2.242   8.374  17.643  0.00  0.00    +0.000 A 
ENDBRANCH   3  10
BRANCH   1  18
ATOM     17  C   UNL     1       5.809   4.373  15.010  0.00  0.00    +0.000 C 
ATOM     18  C   UNL     1       5.755   4.024  16.497  0.00  0.00    +0.000 C 
ATOM     19  C   UNL     1       7.105   4.298  17.173  0.00  0.00    +0.000 C 
ENDBRANCH   1  18
BRANCH   2  20
ATOM     20  C   UNL     1       5.237   6.945  17.049  0.00  0.00    +0.000 C 
ATOM     21  C   UNL     1       6.235   7.296  17.873  0.00  0.00    +0.000 C 
BRANCH  21  22
ATOM     22  C   UNL     1       7.417   8.122  17.422  0.00  0.00    +0.000 C 
BRANCH  22  23
ATOM     23  O   UNL     1       8.154   7.379  16.471  0.00  0.00    +0.000 OA
ATOM     24  H   UNL     1       8.510   6.597  16.927  0.00  0.00    +0.000 HD
ENDBRANCH  22  23
BRANCH  22  25
ATOM     25  C   UNL     1       8.297   8.588  18.593  0.00  0.00    +0.000 C 
BRANCH  25  26
ATOM     26  C   UNL     1       8.660  10.072  18.686  0.00  0.00    +0.000 C 
BRANCH  26  27
ATOM     27  O   UNL     1       9.432  10.302  17.497  0.00  0.00    +0.000 OA
ATOM     28  H   UNL     1       9.303  11.219  17.207  0.00  0.00    +0.000 HD
ENDBRANCH  26  27
BRANCH  26  29
ATOM     29  C   UNL     1       9.460  10.361  19.939  0.00  0.00    +0.000 C 
BRANCH  29  30
ATOM     30  C   UNL     1      10.440  11.516  19.982  0.00  0.00    +0.000 C 
ATOM     31  O   UNL     1      11.149  11.760  18.992  0.00  0.00    +0.000 OA
ATOM     32  O   UNL     1      10.368  12.130  21.108  0.00  0.00    +0.000 OA
ENDBRANCH  29  30
ENDBRANCH  26  29
ENDBRANCH  25  26
ENDBRANCH  22  25
ENDBRANCH  21  22
ENDBRANCH   2  20
TORSDOF 10
ENDMDL
MODEL 3
REMARK VINA RESULT:      -7.6      0.355      1.104
REMARK  Name = 
REMARK  12 active torsions:
REMARK  status: ('A' for Active; 'I' for Inactive)
REMARK    1  A    between atoms: C_1  and  C_2
REMARK    2  A    between atoms: C_2  and  C_3
REMARK    3  A    between atoms: C_2  and  N_4
REMARK    4  A    between atoms: C_5  and  C_6
REMARK    5  A    between atoms: C_7  and  C_8
REMARK    6  A    between atoms: C_8  and  O_9
REMARK    7  A    between atoms: C_8  and  C_10
REMARK    8  A    between atoms: C_10  and  C_11
REMARK    9  A    between atoms: C_11  and  O_12
REMARK   10  A    between atoms: C_11  and  C_13
REMARK   11  A    between atoms: C_13  and  C_14
REMARK   12  A    between atoms: C_17  and  C_18
REMARK                            x       y       z     vdW  Elec       q    Type
REMARK                         _______ _______ _______ _____ _____    ______ ____
ROOT
ATOM      1  N   UNL     1       4.775   4.692  17.050  0.00  0.00    +0.000 N 
ATOM      2  C   UNL     1       4.454   6.013  17.311  0.00  0.00    +0.000 A 
ATOM      3  C   UNL     1       3.207   6.054  17.936  0.00  0.00    +0.000 A 
ATOM      4  C   UNL     1       2.744   4.701  18.029  0.00  0.00    +0.000 A 
ATOM      5  C   UNL     1       1.591   4.094  18.583  0.00  0.00    +0.000 A 
ATOM      6  C   UNL     1       1.418   2.711  18.517  0.00  0.00    +0.000 A 
ATOM      7  C   UNL     1       2.382   1.914  17.919  0.00  0.00    +0.000 A 
ATOM      8  C   UNL     1       3.543   2.480  17.382  0.00  0.00    +0.000 A 
ATOM      9  C   UNL     1       3.716   3.877  17.454  0.00  0.00    +0.000 A 
ENDROOT
BRANCH   3  10
ATOM     10  C   UNL     1       2.559   7.284  18.422  0.00  0.00    +0.000 A 
ATOM     11  C   UNL     1       2.386   8.388  17.570  0.00  0.00    +0.000 A 
ATOM     12  C   UNL     1       1.786   9.566  18.031  0.00  0.00    +0.000 A 
ATOM     13  C   UNL     1       1.390   9.665  19.358  0.00  0.00    +0.000 A 
ATOM     14  F   UNL     1       0.861  10.808  19.812  0.00  0.00    +0.000 F 
ATOM     15  C   UNL     1       1.539   8.591  20.220  0.00  0.00    +0.000 A 
ATOM     16  C   UNL     1       2.089   7.399  19.742  0.00  0.00    +0.000 A 
ENDBRANCH   3  10
BRANCH   1  18
ATOM     17  C   UNL     1       6.149   4.590  14.990  0.00  0.00    +0.000 C 
ATOM     18  C   UNL     1       6.007   4.154  16.449  0.00  0.00    +0.000 C 
ATOM     19  C   UNL     1       7.310   4.399  17.222  0.00  0.00    +0.000 C 
ENDBRANCH   1  18
BRANCH   2  20
ATOM     20  C   UNL     1       5.403   7.041  17.092  0.00  0.00    +0.000 C 
ATOM     21  C   UNL     1       6.353   7.368  17.980  0.00  0.00    +0.000 C 
BRANCH  21  22
ATOM     22  C   UNL     1       7.540   8.233  17.627  0.00  0.00    +0.000 C 
BRANCH  22  23
ATOM     23  O   UNL     1       8.217   7.650  16.530  0.00  0.00    +0.000 OA
ATOM     24  H   UNL     1       8.869   7.026  16.891  0.00  0.00    +0.000 HD
ENDBRANCH  22  23
BRANCH  22  25
ATOM     25  C   UNL     1       8.479   8.469  18.821  0.00  0.00    +0.000 C 
BRANCH  25  26
ATOM     26  C   UNL     1       9.273   9.776  18.876  0.00  0.00    +0.000 C 
BRANCH  26  27
ATOM     27  O   UNL     1       9.158  10.179  20.249  0.00  0.00    +0.000 OA
ATOM     28  H   UNL     1       8.452   9.665  20.672  0.00  0.00    +0.000 HD
ENDBRANCH  26  27
BRANCH  26  29
ATOM     29  C   UNL     1       8.688  10.810  17.937  0.00  0.00    +0.000 C 
BRANCH  29  30
ATOM     30  C   UNL     1       9.272  12.206  17.863  0.00  0.00    +0.000 C 
ATOM     31  O   UNL     1      10.369  12.387  17.309  0.00  0.00    +0.000 OA
ATOM     32  O   UNL     1       8.476  13.059  18.400  0.00  0.00    +0.000 OA
ENDBRANCH  29  30
ENDBRANCH  26  29
ENDBRANCH  25  26
ENDBRANCH  22  25
ENDBRANCH  21  22
ENDBRANCH   2  20
TORSDOF 10
ENDMDL
MODEL 4
REMARK VINA RESULT:      -7.4      1.003      1.162
REMARK  Name = 
REMARK  12 active torsions:
REMARK  status: ('A' for Active; 'I' for Inactive)
REMARK    1  A    between atoms: C_1  and  C_2
REMARK    2  A    between atoms: C_2  and  C_3
REMARK    3  A    between atoms: C_2  and  N_4
REMARK    4  A    between atoms: C_5  and  C_6
REMARK    5  A    between atoms: C_7  and  C_8
REMARK    6  A    between atoms: C_8  and  O_9
REMARK    7  A    between atoms: C_8  and  C_10
REMARK    8  A    between atoms: C_10  and  C_11
REMARK    9  A    between atoms: C_11  and  O_12
REMARK   10  A    between atoms: C_11  and  C_13
REMARK   11  A    between atoms: C_13  and  C_14
REMARK   12  A    between atoms: C_17  and  C_18
REMARK                            x       y       z     vdW  Elec       q    Type
REMARK                         _______ _______ _______ _____ _____    ______ ____
ROOT
ATOM      1  N   UNL     1       4.048   4.536  17.600  0.00  0.00    +0.000 N 
ATOM      2  C   UNL     1       3.786   5.894  17.653  0.00  0.00    +0.000 A 
ATOM      3  C   UNL     1       2.675   6.103  18.471  0.00  0.00    +0.000 A 
ATOM      4  C   UNL     1       2.231   4.812  18.906  0.00  0.00    +0.000 A 
ATOM      5  C   UNL     1       1.197   4.367  19.764  0.00  0.00    +0.000 A 
ATOM      6  C   UNL     1       1.008   3.004  20.001  0.00  0.00    +0.000 A 
ATOM      7  C   UNL     1       1.844   2.071  19.405  0.00  0.00    +0.000 A 
ATOM      8  C   UNL     1       2.889   2.478  18.571  0.00  0.00    +0.000 A 
ATOM      9  C   UNL     1       3.078   3.855  18.337  0.00  0.00    +0.000 A 
ENDROOT
BRANCH   3  10
ATOM     10  C   UNL     1       2.132   7.428  18.817  0.00  0.00    +0.000 A 
ATOM     11  C   UNL     1       1.824   7.751  20.149  0.00  0.00    +0.000 A 
ATOM     12  C   UNL     1       1.293   9.003  20.482  0.00  0.00    +0.000 A 
ATOM     13  C   UNL     1       1.027   9.927  19.480  0.00  0.00    +0.000 A 
ATOM     14  F   UNL     1       0.474  11.106  19.792  0.00  0.00    +0.000 F 
ATOM     15  C   UNL     1       1.327   9.641  18.159  0.00  0.00    +0.000 A 
ATOM     16  C   UNL     1       1.908   8.411  17.838  0.00  0.00    +0.000 A 
ENDBRANCH   3  10
BRANCH   1  18
ATOM     17  C   UNL     1       5.128   4.143  15.405  0.00  0.00    +0.000 C 
ATOM     18  C   UNL     1       5.147   3.846  16.904  0.00  0.00    +0.000 C 
ATOM     19  C   UNL     1       6.555   4.043  17.483  0.00  0.00    +0.000 C 
ENDBRANCH   1  18
BRANCH   2  20
ATOM     20  C   UNL     1       4.683   6.823  17.072  0.00  0.00    +0.000 C 
ATOM     21  C   UNL     1       5.774   7.286  17.700  0.00  0.00    +0.000 C 
BRANCH  21  22
ATOM     22  C   UNL     1       6.882   8.020  16.983  0.00  0.00    +0.000 C 
BRANCH  22  23
ATOM     23  O   UNL     1       7.876   7.087  16.606  0.00  0.00    +0.000 OA
ATOM     24  H   UNL     1       8.436   6.930  17.386  0.00  0.00    +0.000 HD
ENDBRANCH  22  23
BRANCH  22  25
ATOM     25  C   UNL     1       7.464   9.176  17.813  0.00  0.00    +0.000 C 
BRANCH  25  26
ATOM     26  C   UNL     1       8.860   9.008  18.417  0.00  0.00    +0.000 C 
BRANCH  26  27
ATOM     27  O   UNL     1       8.766   7.769  19.137  0.00  0.00    +0.000 OA
ATOM     28  H   UNL     1       8.015   7.815  19.751  0.00  0.00    +0.000 HD
ENDBRANCH  26  27
BRANCH  26  29
ATOM     29  C   UNL     1       9.200  10.165  19.334  0.00  0.00    +0.000 C 
BRANCH  29  30
ATOM     30  C   UNL     1      10.017  11.336  18.829  0.00  0.00    +0.000 C 
ATOM     31  O   UNL     1       9.498  12.167  18.066  0.00  0.00    +0.000 OA
ATOM     32  O   UNL     1      11.204  11.307  19.320  0.00  0.00    +0.000 OA
ENDBRANCH  29  30
ENDBRANCH  26  29
ENDBRANCH  25  26
ENDBRANCH  22  25
ENDBRANCH  21  22
ENDBRANCH   2  20
TORSDOF 10
ENDMDL
MODEL 5
REMARK VINA RESULT:      -7.3      0.918      1.483
REMARK  Name = 
REMARK  12 active torsions:
REMARK  status: ('A' for Active; 'I' for Inactive)
REMARK    1  A    between atoms: C_1  and  C_2
REMARK    2  A    between atoms: C_2  and  C_3
REMARK    3  A    between atoms: C_2  and  N_4
REMARK    4  A    between atoms: C_5  and  C_6
REMARK    5  A    between atoms: C_7  and  C_8
REMARK    6  A    between atoms: C_8  and  O_9
REMARK    7  A    between atoms: C_8  and  C_10
REMARK    8  A    between atoms: C_10  and  C_11
REMARK    9  A    between atoms: C_11  and  O_12
REMARK   10  A    between atoms: C_11  and  C_13
REMARK   11  A    between atoms: C_13  and  C_14
REMARK   12  A    between atoms: C_17  and  C_18
REMARK                            x       y       z     vdW  Elec       q    Type
REMARK                         _______ _______ _______ _____ _____    ______ ____
ROOT
ATOM      1  N   UNL     1       4.805   4.687  17.136  0.00  0.00    +0.000 N 
ATOM      2  C   UNL     1       4.464   6.011  17.350  0.00  0.00    +0.000 A 
ATOM      3  C   UNL     1       3.231   6.054  18.002  0.00  0.00    +0.000 A 
ATOM      4  C   UNL     1       2.796   4.698  18.160  0.00  0.00    +0.000 A 
ATOM      5  C   UNL     1       1.669   4.093  18.765  0.00  0.00    +0.000 A 
ATOM      6  C   UNL     1       1.521   2.705  18.760  0.00  0.00    +0.000 A 
ATOM      7  C   UNL     1       2.487   1.903  18.172  0.00  0.00    +0.000 A 
ATOM      8  C   UNL     1       3.624   2.468  17.587  0.00  0.00    +0.000 A 
ATOM      9  C   UNL     1       3.772   3.869  17.597  0.00  0.00    +0.000 A 
ENDROOT
BRANCH   3  10
ATOM     10  C   UNL     1       2.570   7.292  18.452  0.00  0.00    +0.000 A 
ATOM     11  C   UNL     1       2.369   8.361  17.564  0.00  0.00    +0.000 A 
ATOM     12  C   UNL     1       1.756   9.546  17.990  0.00  0.00    +0.000 A 
ATOM     13  C   UNL     1       1.376   9.686  19.318  0.00  0.00    +0.000 A 
ATOM     14  F   UNL     1       0.834  10.836  19.738  0.00  0.00    +0.000 F 
ATOM     15  C   UNL     1       1.552   8.646  20.215  0.00  0.00    +0.000 A 
ATOM     16  C   UNL     1       2.115   7.446  19.773  0.00  0.00    +0.000 A 
ENDBRANCH   3  10
BRANCH   1  18
ATOM     17  C   UNL     1       6.159   4.569  15.064  0.00  0.00    +0.000 C 
ATOM     18  C   UNL     1       6.033   4.148  16.529  0.00  0.00    +0.000 C 
ATOM     19  C   UNL     1       7.342   4.407  17.287  0.00  0.00    +0.000 C 
ENDBRANCH   1  18
BRANCH   2  20
ATOM     20  C   UNL     1       5.387   7.046  17.067  0.00  0.00    +0.000 C 
ATOM     21  C   UNL     1       6.392   7.383  17.890  0.00  0.00    +0.000 C 
BRANCH  21  22
ATOM     22  C   UNL     1       7.545   8.258  17.458  0.00  0.00    +0.000 C 
BRANCH  22  23
ATOM     23  O   UNL     1       8.337   7.540  16.531  0.00  0.00    +0.000 OA
ATOM     24  H   UNL     1       7.784   6.826  16.170  0.00  0.00    +0.000 HD
ENDBRANCH  22  23
BRANCH  22  25
ATOM     25  C   UNL     1       8.375   8.775  18.643  0.00  0.00    +0.000 C 
BRANCH  25  26
ATOM     26  C   UNL     1       8.652  10.277  18.739  0.00  0.00    +0.000 C 
BRANCH  26  27
ATOM     27  O   UNL     1       7.978  10.815  17.592  0.00  0.00    +0.000 OA
ATOM     28  H   UNL     1       7.671  10.083  17.032  0.00  0.00    +0.000 HD
ENDBRANCH  26  27
BRANCH  26  29
ATOM     29  C   UNL     1      10.139  10.561  18.700  0.00  0.00    +0.000 C 
BRANCH  29  30
ATOM     30  C   UNL     1      10.746  11.629  19.586  0.00  0.00    +0.000 C 
ATOM     31  O   UNL     1      10.457  11.666  20.794  0.00  0.00    +0.000 OA
ATOM     32  O   UNL     1      11.546  12.377  18.913  0.00  0.00    +0.000 OA
ENDBRANCH  29  30
ENDBRANCH  26  29
ENDBRANCH  25  26
ENDBRANCH  22  25
ENDBRANCH  21  22
ENDBRANCH   2  20
TORSDOF 10
ENDMDL
MODEL 6
REMARK VINA RESULT:      -7.0      1.369      1.808
REMARK  Name = 
REMARK  12 active torsions:
REMARK  status: ('A' for Active; 'I' for Inactive)
REMARK    1  A    between atoms: C_1  and  C_2
REMARK    2  A    between atoms: C_2  and  C_3
REMARK    3  A    between atoms: C_2  and  N_4
REMARK    4  A    between atoms: C_5  and  C_6
REMARK    5  A    between atoms: C_7  and  C_8
REMARK    6  A    between atoms: C_8  and  O_9
REMARK    7  A    between atoms: C_8  and  C_10
REMARK    8  A    between atoms: C_10  and  C_11
REMARK    9  A    between atoms: C_11  and  O_12
REMARK   10  A    between atoms: C_11  and  C_13
REMARK   11  A    between atoms: C_13  and  C_14
REMARK   12  A    between atoms: C_17  and  C_18
REMARK                            x       y       z     vdW  Elec       q    Type
REMARK                         _______ _______ _______ _____ _____    ______ ____
ROOT
ATOM      1  N   UNL     1       4.230   4.735  18.392  0.00  0.00    +0.000 N 
ATOM      2  C   UNL     1       3.880   6.057  18.182  0.00  0.00    +0.000 A 
ATOM      3  C   UNL     1       2.751   6.347  18.950  0.00  0.00    +0.000 A 
ATOM      4  C   UNL     1       2.389   5.139  19.630  0.00  0.00    +0.000 A 
ATOM      5  C   UNL     1       1.380   4.802  20.564  0.00  0.00    +0.000 A 
ATOM      6  C   UNL     1       1.280   3.502  21.062  0.00  0.00    +0.000 A 
ATOM      7  C   UNL     1       2.178   2.528  20.654  0.00  0.00    +0.000 A 
ATOM      8  C   UNL     1       3.201   2.833  19.751  0.00  0.00    +0.000 A 
ATOM      9  C   UNL     1       3.301   4.148  19.253  0.00  0.00    +0.000 A 
ENDROOT
BRANCH   3  10
ATOM     10  C   UNL     1       2.120   7.675  19.035  0.00  0.00    +0.000 A 
ATOM     11  C   UNL     1       2.021   8.496  17.899  0.00  0.00    +0.000 A 
ATOM     12  C   UNL     1       1.437   9.766  17.977  0.00  0.00    +0.000 A 
ATOM     13  C   UNL     1       0.984  10.242  19.199  0.00  0.00    +0.000 A 
ATOM     14  F   UNL     1       0.470  11.476  19.284  0.00  0.00    +0.000 F 
ATOM     15  C   UNL     1       1.059   9.454  20.335  0.00  0.00    +0.000 A 
ATOM     16  C   UNL     1       1.593   8.166  20.242  0.00  0.00    +0.000 A 
ENDBRANCH   3  10
BRANCH   1  18
ATOM     17  C   UNL     1       5.292   3.902  16.315  0.00  0.00    +0.000 C 
ATOM     18  C   UNL     1       5.377   3.996  17.838  0.00  0.00    +0.000 C 
ATOM     19  C   UNL     1       6.770   4.462  18.280  0.00  0.00    +0.000 C 
ENDBRANCH   1  18
BRANCH   2  20
ATOM     20  C   UNL     1       4.718   6.912  17.427  0.00  0.00    +0.000 C 
ATOM     21  C   UNL     1       5.844   7.456  17.911  0.00  0.00    +0.000 C 
BRANCH  21  22
ATOM     22  C   UNL     1       6.886   8.102  17.029  0.00  0.00    +0.000 C 
BRANCH  22  23
ATOM     23  O   UNL     1       7.805   7.112  16.610  0.00  0.00    +0.000 OA
ATOM     24  H   UNL     1       8.243   6.768  17.408  0.00  0.00    +0.000 HD
ENDBRANCH  22  23
BRANCH  22  25
ATOM     25  C   UNL     1       7.590   9.287  17.711  0.00  0.00    +0.000 C 
BRANCH  25  26
ATOM     26  C   UNL     1       8.919   9.031  18.425  0.00  0.00    +0.000 C 
BRANCH  26  27
ATOM     27  O   UNL     1       8.682   7.814  19.148  0.00  0.00    +0.000 OA
ATOM     28  H   UNL     1       9.293   7.768  19.901  0.00  0.00    +0.000 HD
ENDBRANCH  26  27
BRANCH  26  29
ATOM     29  C   UNL     1       9.269  10.176  19.353  0.00  0.00    +0.000 C 
BRANCH  29  30
ATOM     30  C   UNL     1      10.238  11.256  18.918  0.00  0.00    +0.000 C 
ATOM     31  O   UNL     1      10.183  11.704  17.761  0.00  0.00    +0.000 OA
ATOM     32  O   UNL     1      11.012  11.588  19.888  0.00  0.00    +0.000 OA
ENDBRANCH  29  30
ENDBRANCH  26  29
ENDBRANCH  25  26
ENDBRANCH  22  25
ENDBRANCH  21  22
ENDBRANCH   2  20
TORSDOF 10
ENDMDL
MODEL 7
REMARK VINA RESULT:      -7.0      6.342     10.176
REMARK  Name = 
REMARK  12 active torsions:
REMARK  status: ('A' for Active; 'I' for Inactive)
REMARK    1  A    between atoms: C_1  and  C_2
REMARK    2  A    between atoms: C_2  and  C_3
REMARK    3  A    between atoms: C_2  and  N_4
REMARK    4  A    between atoms: C_5  and  C_6
REMARK    5  A    between atoms: C_7  and  C_8
REMARK    6  A    between atoms: C_8  and  O_9
REMARK    7  A    between atoms: C_8  and  C_10
REMARK    8  A    between atoms: C_10  and  C_11
REMARK    9  A    between atoms: C_11  and  O_12
REMARK   10  A    between atoms: C_11  and  C_13
REMARK   11  A    between atoms: C_13  and  C_14
REMARK   12  A    between atoms: C_17  and  C_18
REMARK                            x       y       z     vdW  Elec       q    Type
REMARK                         _______ _______ _______ _____ _____    ______ ____
ROOT
ATOM      1  N   UNL     1      -3.737  12.820  21.256  0.00  0.00    +0.000 N 
ATOM      2  C   UNL     1      -3.030  12.274  20.198  0.00  0.00    +0.000 A 
ATOM      3  C   UNL     1      -3.937  11.867  19.218  0.00  0.00    +0.000 A 
ATOM      4  C   UNL     1      -5.248  12.154  19.720  0.00  0.00    +0.000 A 
ATOM      5  C   UNL     1      -6.554  12.012  19.192  0.00  0.00    +0.000 A 
ATOM      6  C   UNL     1      -7.667  12.393  19.944  0.00  0.00    +0.000 A 
ATOM      7  C   UNL     1      -7.503  12.927  21.213  0.00  0.00    +0.000 A 
ATOM      8  C   UNL     1      -6.226  13.102  21.754  0.00  0.00    +0.000 A 
ATOM      9  C   UNL     1      -5.104  12.720  20.991  0.00  0.00    +0.000 A 
ENDROOT
BRANCH   3  10
ATOM     10  C   UNL     1      -3.555  11.295  17.915  0.00  0.00    +0.000 A 
ATOM     11  C   UNL     1      -4.249  11.647  16.746  0.00  0.00    +0.000 A 
ATOM     12  C   UNL     1      -3.901  11.094  15.507  0.00  0.00    +0.000 A 
ATOM     13  C   UNL     1      -2.882  10.153  15.435  0.00  0.00    +0.000 A 
ATOM     14  F   UNL     1      -2.581   9.587  14.260  0.00  0.00    +0.000 F 
ATOM     15  C   UNL     1      -2.174   9.792  16.569  0.00  0.00    +0.000 A 
ATOM     16  C   UNL     1      -2.489  10.387  17.793  0.00  0.00    +0.000 A 
ENDBRANCH   3  10
BRANCH   1  18
ATOM     17  C   UNL     1      -3.609  14.896  22.602  0.00  0.00    +0.000 C 
ATOM     18  C   UNL     1      -3.209  13.424  22.489  0.00  0.00    +0.000 C 
ATOM     19  C   UNL     1      -3.500  12.677  23.798  0.00  0.00    +0.000 C 
ENDBRANCH   1  18
BRANCH   2  20
ATOM     20  C   UNL     1      -1.617  12.343  20.165  0.00  0.00    +0.000 C 
ATOM     21  C   UNL     1      -0.821  11.447  20.766  0.00  0.00    +0.000 C 
BRANCH  21  22
ATOM     22  C   UNL     1       0.658  11.339  20.476  0.00  0.00    +0.000 C 
BRANCH  22  23
ATOM     23  O   UNL     1       1.358  12.187  21.366  0.00  0.00    +0.000 OA
ATOM     24  H   UNL     1       1.344  13.082  20.985  0.00  0.00    +0.000 HD
ENDBRANCH  22  23
BRANCH  22  25
ATOM     25  C   UNL     1       0.998  11.641  19.008  0.00  0.00    +0.000 C 
BRANCH  25  26
ATOM     26  C   UNL     1       2.143  10.866  18.351  0.00  0.00    +0.000 C 
BRANCH  26  27
ATOM     27  O   UNL     1       2.528  11.705  17.253  0.00  0.00    +0.000 OA
ATOM     28  H   UNL     1       2.240  12.615  17.432  0.00  0.00    +0.000 HD
ENDBRANCH  26  27
BRANCH  26  29
ATOM     29  C   UNL     1       1.679   9.503  17.880  0.00  0.00    +0.000 C 
BRANCH  29  30
ATOM     30  C   UNL     1       2.360   8.242  18.371  0.00  0.00    +0.000 C 
ATOM     31  O   UNL     1       3.183   7.662  17.644  0.00  0.00    +0.000 OA
ATOM     32  O   UNL     1       1.976   7.954  19.563  0.00  0.00    +0.000 OA
ENDBRANCH  29  30
ENDBRANCH  26  29
ENDBRANCH  25  26
ENDBRANCH  22  25
ENDBRANCH  21  22
ENDBRANCH   2  20
TORSDOF 10
ENDMDL
MODEL 8
REMARK VINA RESULT:      -6.9      1.096      1.721
REMARK  Name = 
REMARK  12 active torsions:
REMARK  status: ('A' for Active; 'I' for Inactive)
REMARK    1  A    between atoms: C_1  and  C_2
REMARK    2  A    between atoms: C_2  and  C_3
REMARK    3  A    between atoms: C_2  and  N_4
REMARK    4  A    between atoms: C_5  and  C_6
REMARK    5  A    between atoms: C_7  and  C_8
REMARK    6  A    between atoms: C_8  and  O_9
REMARK    7  A    between atoms: C_8  and  C_10
REMARK    8  A    between atoms: C_10  and  C_11
REMARK    9  A    between atoms: C_11  and  O_12
REMARK   10  A    between atoms: C_11  and  C_13
REMARK   11  A    between atoms: C_13  and  C_14
REMARK   12  A    between atoms: C_17  and  C_18
REMARK                            x       y       z     vdW  Elec       q    Type
REMARK                         _______ _______ _______ _____ _____    ______ ____
ROOT
ATOM      1  N   UNL     1       4.863   5.081  17.056  0.00  0.00    +0.000 N 
ATOM      2  C   UNL     1       4.476   6.371  17.374  0.00  0.00    +0.000 A 
ATOM      3  C   UNL     1       3.212   6.326  17.964  0.00  0.00    +0.000 A 
ATOM      4  C   UNL     1       2.808   4.951  17.975  0.00  0.00    +0.000 A 
ATOM      5  C   UNL     1       1.670   4.267  18.465  0.00  0.00    +0.000 A 
ATOM      6  C   UNL     1       1.561   2.882  18.324  0.00  0.00    +0.000 A 
ATOM      7  C   UNL     1       2.576   2.161  17.714  0.00  0.00    +0.000 A 
ATOM      8  C   UNL     1       3.723   2.803  17.240  0.00  0.00    +0.000 A 
ATOM      9  C   UNL     1       3.832   4.201  17.387  0.00  0.00    +0.000 A 
ENDROOT
BRANCH   3  10
ATOM     10  C   UNL     1       2.497   7.500  18.493  0.00  0.00    +0.000 A 
ATOM     11  C   UNL     1       2.215   8.600  17.667  0.00  0.00    +0.000 A 
ATOM     12  C   UNL     1       1.550   9.726  18.168  0.00  0.00    +0.000 A 
ATOM     13  C   UNL     1       1.198   9.777  19.509  0.00  0.00    +0.000 A 
ATOM     14  F   UNL     1       0.606  10.873  20.001  0.00  0.00    +0.000 F 
ATOM     15  C   UNL     1       1.454   8.705  20.348  0.00  0.00    +0.000 A 
ATOM     16  C   UNL     1       2.070   7.562  19.831  0.00  0.00    +0.000 A 
ENDBRANCH   3  10
BRANCH   1  18
ATOM     17  C   UNL     1       7.120   4.182  17.542  0.00  0.00    +0.000 C 
ATOM     18  C   UNL     1       6.133   4.630  16.464  0.00  0.00    +0.000 C 
ATOM     19  C   UNL     1       6.034   3.584  15.345  0.00  0.00    +0.000 C 
ENDBRANCH   1  18
BRANCH   2  20
ATOM     20  C   UNL     1       5.383   7.450  17.235  0.00  0.00    +0.000 C 
ATOM     21  C   UNL     1       6.540   7.532  17.908  0.00  0.00    +0.000 C 
BRANCH  21  22
ATOM     22  C   UNL     1       7.636   8.502  17.537  0.00  0.00    +0.000 C 
BRANCH  22  23
ATOM     23  O   UNL     1       8.458   7.904  16.553  0.00  0.00    +0.000 OA
ATOM     24  H   UNL     1       8.643   8.582  15.880  0.00  0.00    +0.000 HD
ENDBRANCH  22  23
BRANCH  22  25
ATOM     25  C   UNL     1       8.448   8.975  18.754  0.00  0.00    +0.000 C 
BRANCH  25  26
ATOM     26  C   UNL     1       8.848  10.450  18.834  0.00  0.00    +0.000 C 
BRANCH  26  27
ATOM     27  O   UNL     1       9.806  10.595  17.776  0.00  0.00    +0.000 OA
ATOM     28  H   UNL     1      10.473   9.895  17.853  0.00  0.00    +0.000 HD
ENDBRANCH  26  27
BRANCH  26  29
ATOM     29  C   UNL     1       9.449  10.779  20.185  0.00  0.00    +0.000 C 
BRANCH  29  30
ATOM     30  C   UNL     1      10.231  12.060  20.391  0.00  0.00    +0.000 C 
ATOM     31  O   UNL     1      10.860  12.559  19.443  0.00  0.00    +0.000 OA
ATOM     32  O   UNL     1      10.097  12.484  21.597  0.00  0.00    +0.000 OA
ENDBRANCH  29  30
ENDBRANCH  26  29
ENDBRANCH  25  26
ENDBRANCH  22  25
ENDBRANCH  21  22
ENDBRANCH   2  20
TORSDOF 10
ENDMDL
MODEL 9
REMARK VINA RESULT:      -6.9      1.189      1.618
REMARK  Name = 
REMARK  12 active torsions:
REMARK  status: ('A' for Active; 'I' for Inactive)
REMARK    1  A    between atoms: C_1  and  C_2
REMARK    2  A    between atoms: C_2  and  C_3
REMARK    3  A    between atoms: C_2  and  N_4
REMARK    4  A    between atoms: C_5  and  C_6
REMARK    5  A    between atoms: C_7  and  C_8
REMARK    6  A    between atoms: C_8  and  O_9
REMARK    7  A    between atoms: C_8  and  C_10
REMARK    8  A    between atoms: C_10  and  C_11
REMARK    9  A    between atoms: C_11  and  O_12
REMARK   10  A    between atoms: C_11  and  C_13
REMARK   11  A    between atoms: C_13  and  C_14
REMARK   12  A    between atoms: C_17  and  C_18
REMARK                            x       y       z     vdW  Elec       q    Type
REMARK                         _______ _______ _______ _____ _____    ______ ____
ROOT
ATOM      1  N   UNL     1       4.911   5.094  17.056  0.00  0.00    +0.000 N 
ATOM      2  C   UNL     1       4.523   6.382  17.384  0.00  0.00    +0.000 A 
ATOM      3  C   UNL     1       3.255   6.330  17.967  0.00  0.00    +0.000 A 
ATOM      4  C   UNL     1       2.851   4.956  17.963  0.00  0.00    +0.000 A 
ATOM      5  C   UNL     1       1.711   4.267  18.440  0.00  0.00    +0.000 A 
ATOM      6  C   UNL     1       1.602   2.883  18.287  0.00  0.00    +0.000 A 
ATOM      7  C   UNL     1       2.621   2.168  17.676  0.00  0.00    +0.000 A 
ATOM      8  C   UNL     1       3.771   2.814  17.214  0.00  0.00    +0.000 A 
ATOM      9  C   UNL     1       3.878   4.211  17.374  0.00  0.00    +0.000 A 
ENDROOT
BRANCH   3  10
ATOM     10  C   UNL     1       2.537   7.500  18.502  0.00  0.00    +0.000 A 
ATOM     11  C   UNL     1       2.133   7.539  19.847  0.00  0.00    +0.000 A 
ATOM     12  C   UNL     1       1.436   8.641  20.358  0.00  0.00    +0.000 A 
ATOM     13  C   UNL     1       1.101   9.694  19.518  0.00  0.00    +0.000 A 
ATOM     14  F   UNL     1       0.392  10.725  19.993  0.00  0.00    +0.000 F 
ATOM     15  C   UNL     1       1.492   9.689  18.189  0.00  0.00    +0.000 A 
ATOM     16  C   UNL     1       2.235   8.611  17.697  0.00  0.00    +0.000 A 
ENDBRANCH   3  10
BRANCH   1  18
ATOM     17  C   UNL     1       7.159   4.175  17.546  0.00  0.00    +0.000 C 
ATOM     18  C   UNL     1       6.185   4.648  16.467  0.00  0.00    +0.000 C 
ATOM     19  C   UNL     1       6.092   3.625  15.327  0.00  0.00    +0.000 C 
ENDBRANCH   1  18
BRANCH   2  20
ATOM     20  C   UNL     1       5.430   7.461  17.259  0.00  0.00    +0.000 C 
ATOM     21  C   UNL     1       6.574   7.546  17.953  0.00  0.00    +0.000 C 
BRANCH  21  22
ATOM     22  C   UNL     1       7.676   8.518  17.599  0.00  0.00    +0.000 C 
BRANCH  22  23
ATOM     23  O   UNL     1       8.491   7.937  16.601  0.00  0.00    +0.000 OA
ATOM     24  H   UNL     1       9.278   8.502  16.504  0.00  0.00    +0.000 HD
ENDBRANCH  22  23
BRANCH  22  25
ATOM     25  C   UNL     1       8.493   8.960  18.824  0.00  0.00    +0.000 C 
BRANCH  25  26
ATOM     26  C   UNL     1       8.899  10.431  18.936  0.00  0.00    +0.000 C 
BRANCH  26  27
ATOM     27  O   UNL     1       9.626  10.671  17.722  0.00  0.00    +0.000 OA
ATOM     28  H   UNL     1       9.054  11.148  17.099  0.00  0.00    +0.000 HD
ENDBRANCH  26  27
BRANCH  26  29
ATOM     29  C   UNL     1       9.758  10.668  20.161  0.00  0.00    +0.000 C 
BRANCH  29  30
ATOM     30  C   UNL     1       9.526  11.875  21.046  0.00  0.00    +0.000 C 
ATOM     31  O   UNL     1      10.280  12.859  20.957  0.00  0.00    +0.000 OA
ATOM     32  O   UNL     1       8.496  11.700  21.793  0.00  0.00    +0.000 OA
ENDBRANCH  29  30
ENDBRANCH  26  29
ENDBRANCH  25  26
ENDBRANCH  22  25
ENDBRANCH  21  22
ENDBRANCH   2  20
TORSDOF 10
ENDMDL
