MODEL 1
REMARK VINA RESULT:      -8.4      0.000      0.000
REMARK  Name = 
REMARK  8 active torsions:
REMARK  status: ('A' for Active; 'I' for Inactive)
REMARK    1  A    between atoms: C_1  and  C_2
REMARK    2  A    between atoms: C_2  and  C_3
REMARK    3  A    between atoms: C_3  and  N_4
REMARK    4  A    between atoms: C_6  and  C_7
REMARK    5  A    between atoms: C_7  and  O_9
REMARK    6  A    between atoms: C_13  and  O_14
REMARK    7  A    between atoms: C_15  and  C_16
REMARK    8  A    between atoms: C_16  and  C_17
REMARK                            x       y       z     vdW  Elec       q    Type
REMARK                         _______ _______ _______ _____ _____    ______ ____
ROOT
ATOM      1  N   UNL     1      -0.929  11.259  19.245  0.00  0.00    +0.000 N 
ATOM      2  C   UNL     1      -1.283  11.817  20.469  0.00  0.00    +0.000 A 
ATOM      3  C   UNL     1      -0.852  11.441  21.678  0.00  0.00    +0.000 A 
ATOM      4  C   UNL     1       0.056  10.286  21.718  0.00  0.00    +0.000 A 
ATOM      5  O   UNL     1       0.432   9.835  22.803  0.00  0.00    +0.000 OA
ATOM      6  C   UNL     1       0.520   9.690  20.442  0.00  0.00    +0.000 A 
ATOM      7  C   UNL     1       1.455   8.634  20.473  0.00  0.00    +0.000 A 
ATOM      8  C   UNL     1       1.951   8.089  19.289  0.00  0.00    +0.000 A 
ATOM      9  C   UNL     1       1.470   8.599  18.077  0.00  0.00    +0.000 A 
ATOM     10  C   UNL     1       0.527   9.637  18.047  0.00  0.00    +0.000 A 
ATOM     11  C   UNL     1       0.022  10.211  19.222  0.00  0.00    +0.000 A 
ENDROOT
BRANCH   3  12
ATOM     12  C   UNL     1      -1.286  12.194  22.871  0.00  0.00    +0.000 C 
ATOM     13  O   UNL     1      -0.619  13.078  23.388  0.00  0.00    +0.000 OA
BRANCH  12  14
ATOM     14  O   UNL     1      -2.483  11.813  23.369  0.00  0.00    +0.000 OA
ATOM     15  H   UNL     1      -3.253  12.072  22.810  0.00  0.00    +0.000 HD
ENDBRANCH  12  14
ENDBRANCH   3  12
BRANCH   7  16
ATOM     16  O   UNL     1       1.920   8.099  21.650  0.00  0.00    +0.000 OA
ATOM     17  H   UNL     1       2.753   7.613  21.468  0.00  0.00    +0.000 HD
ENDBRANCH   7  16
BRANCH   1  18
ATOM     18  C   UNL     1      -1.520  11.792  17.997  0.00  0.00    +0.000 C 
BRANCH  18  20
ATOM     19  C   UNL     1      -3.164   9.961  17.422  0.00  0.00    +0.000 C 
ATOM     20  C   UNL     1      -2.998  11.401  17.882  0.00  0.00    +0.000 C 
ENDBRANCH  18  20
ENDBRANCH   1  18
BRANCH   8  21
ATOM     21  C   UNL     1       2.943   6.945  19.287  0.00  0.00    +0.000 C 
BRANCH  21  22
ATOM     22  C   UNL     1       2.270   5.601  19.162  0.00  0.00    +0.000 A 
ATOM     23  C   UNL     1       1.950   5.074  17.901  0.00  0.00    +0.000 A 
ATOM     24  C   UNL     1       1.425   3.785  17.782  0.00  0.00    +0.000 A 
ATOM     25  C   UNL     1       1.212   3.009  18.922  0.00  0.00    +0.000 A 
ATOM     26  C   UNL     1       1.509   3.530  20.179  0.00  0.00    +0.000 A 
ATOM     27 CL   UNL     1       1.252   2.564  21.581  0.00  0.00    +0.000 Cl
ATOM     28  C   UNL     1       2.031   4.819  20.297  0.00  0.00    +0.000 A 
ATOM     29  F   UNL     1       2.324   5.319  21.509  0.00  0.00    +0.000 F 
ENDBRANCH  21  22
ENDBRANCH   8  21
TORSDOF 7
ENDMDL
MODEL 2
REMARK VINA RESULT:      -7.9      4.230      8.028
REMARK  Name = 
REMARK  8 active torsions:
REMARK  status: ('A' for Active; 'I' for Inactive)
REMARK    1  A    between atoms: C_1  and  C_2
REMARK    2  A    between atoms: C_2  and  C_3
REMARK    3  A    between atoms: C_3  and  N_4
REMARK    4  A    between atoms: C_6  and  C_7
REMARK    5  A    between atoms: C_7  and  O_9
REMARK    6  A    between atoms: C_13  and  O_14
REMARK    7  A    between atoms: C_15  and  C_16
REMARK    8  A    between atoms: C_16  and  C_17
REMARK                            x       y       z     vdW  Elec       q    Type
REMARK                         _______ _______ _______ _____ _____    ______ ____
ROOT
ATOM      1  N   UNL     1       4.325   5.674  17.229  0.00  0.00    +0.000 N 
ATOM      2  C   UNL     1       4.442   4.373  17.707  0.00  0.00    +0.000 A 
ATOM      3  C   UNL     1       3.886   3.871  18.816  0.00  0.00    +0.000 A 
ATOM      4  C   UNL     1       3.106   4.807  19.637  0.00  0.00    +0.000 A 
ATOM      5  O   UNL     1       2.630   4.435  20.712  0.00  0.00    +0.000 OA
ATOM      6  C   UNL     1       2.892   6.190  19.146  0.00  0.00    +0.000 A 
ATOM      7  C   UNL     1       2.077   7.068  19.891  0.00  0.00    +0.000 A 
ATOM      8  C   UNL     1       1.813   8.358  19.427  0.00  0.00    +0.000 A 
ATOM      9  C   UNL     1       2.405   8.760  18.225  0.00  0.00    +0.000 A 
ATOM     10  C   UNL     1       3.230   7.892  17.493  0.00  0.00    +0.000 A 
ATOM     11  C   UNL     1       3.500   6.587  17.929  0.00  0.00    +0.000 A 
ENDROOT
BRANCH   3  12
ATOM     12  C   UNL     1       4.065   2.442  19.136  0.00  0.00    +0.000 C 
ATOM     13  O   UNL     1       3.336   1.560  18.709  0.00  0.00    +0.000 OA
BRANCH  12  14
ATOM     14  O   UNL     1       5.099   2.180  19.966  0.00  0.00    +0.000 OA
ATOM     15  H   UNL     1       5.101   2.721  20.790  0.00  0.00    +0.000 HD
ENDBRANCH  12  14
ENDBRANCH   3  12
BRANCH   7  16
ATOM     16  O   UNL     1       1.508   6.706  21.088  0.00  0.00    +0.000 OA
ATOM     17  H   UNL     1       0.550   6.921  21.060  0.00  0.00    +0.000 HD
ENDBRANCH   7  16
BRANCH   1  18
ATOM     18  C   UNL     1       5.028   6.065  15.987  0.00  0.00    +0.000 C 
BRANCH  18  20
ATOM     19  C   UNL     1       6.129   4.455  14.379  0.00  0.00    +0.000 C 
ATOM     20  C   UNL     1       6.230   5.149  15.728  0.00  0.00    +0.000 C 
ENDBRANCH  18  20
ENDBRANCH   1  18
BRANCH   8  21
ATOM     21  C   UNL     1       0.956   9.331  20.210  0.00  0.00    +0.000 C 
BRANCH  21  22
ATOM     22  C   UNL     1       0.160  10.246  19.314  0.00  0.00    +0.000 A 
ATOM     23  C   UNL     1      -0.887   9.745  18.525  0.00  0.00    +0.000 A 
ATOM     24  C   UNL     1      -1.691  10.610  17.778  0.00  0.00    +0.000 A 
ATOM     25  C   UNL     1      -1.455  11.985  17.810  0.00  0.00    +0.000 A 
ATOM     26  C   UNL     1      -0.406  12.490  18.576  0.00  0.00    +0.000 A 
ATOM     27 CL   UNL     1      -0.127  14.189  18.617  0.00  0.00    +0.000 Cl
ATOM     28  C   UNL     1       0.397  11.625  19.319  0.00  0.00    +0.000 A 
ATOM     29  F   UNL     1       1.405  12.112  20.062  0.00  0.00    +0.000 F 
ENDBRANCH  21  22
ENDBRANCH   8  21
TORSDOF 7
ENDMDL
MODEL 3
REMARK VINA RESULT:      -7.9      4.224      7.725
REMARK  Name = 
REMARK  8 active torsions:
REMARK  status: ('A' for Active; 'I' for Inactive)
REMARK    1  A    between atoms: C_1  and  C_2
REMARK    2  A    between atoms: C_2  and  C_3
REMARK    3  A    between atoms: C_3  and  N_4
REMARK    4  A    between atoms: C_6  and  C_7
REMARK    5  A    between atoms: C_7  and  O_9
REMARK    6  A    between atoms: C_13  and  O_14
REMARK    7  A    between atoms: C_15  and  C_16
REMARK    8  A    between atoms: C_16  and  C_17
REMARK                            x       y       z     vdW  Elec       q    Type
REMARK                         _______ _______ _______ _____ _____    ______ ____
ROOT
ATOM      1  N   UNL     1       2.592   5.845  19.985  0.00  0.00    +0.000 N 
ATOM      2  C   UNL     1       3.520   5.394  19.054  0.00  0.00    +0.000 A 
ATOM      3  C   UNL     1       3.921   6.029  17.946  0.00  0.00    +0.000 A 
ATOM      4  C   UNL     1       3.278   7.319  17.663  0.00  0.00    +0.000 A 
ATOM      5  O   UNL     1       3.541   7.924  16.621  0.00  0.00    +0.000 OA
ATOM      6  C   UNL     1       2.328   7.883  18.653  0.00  0.00    +0.000 A 
ATOM      7  C   UNL     1       1.770   9.158  18.426  0.00  0.00    +0.000 A 
ATOM      8  C   UNL     1       0.916   9.738  19.365  0.00  0.00    +0.000 A 
ATOM      9  C   UNL     1       0.607   9.005  20.516  0.00  0.00    +0.000 A 
ATOM     10  C   UNL     1       1.149   7.728  20.733  0.00  0.00    +0.000 A 
ATOM     11  C   UNL     1       2.020   7.129  19.813  0.00  0.00    +0.000 A 
ENDROOT
BRANCH   3  12
ATOM     12  C   UNL     1       4.969   5.425  17.101  0.00  0.00    +0.000 C 
ATOM     13  O   UNL     1       4.927   4.272  16.697  0.00  0.00    +0.000 OA
BRANCH  12  14
ATOM     14  O   UNL     1       6.005   6.247  16.821  0.00  0.00    +0.000 OA
ATOM     15  H   UNL     1       6.478   6.028  15.985  0.00  0.00    +0.000 HD
ENDBRANCH  12  14
ENDBRANCH   3  12
BRANCH   7  16
ATOM     16  O   UNL     1       2.036   9.885  17.290  0.00  0.00    +0.000 OA
ATOM     17  H   UNL     1       2.695  10.580  17.508  0.00  0.00    +0.000 HD
ENDBRANCH   7  16
BRANCH   1  18
ATOM     18  C   UNL     1       2.251   4.999  21.151  0.00  0.00    +0.000 C 
BRANCH  18  20
ATOM     19  C   UNL     1       1.496   2.624  21.574  0.00  0.00    +0.000 C 
ATOM     20  C   UNL     1       1.278   3.883  20.749  0.00  0.00    +0.000 C 
ENDBRANCH  18  20
ENDBRANCH   1  18
BRANCH   8  21
ATOM     21  C   UNL     1       0.288  11.098  19.144  0.00  0.00    +0.000 C 
BRANCH  21  22
ATOM     22  C   UNL     1      -1.120  11.001  18.611  0.00  0.00    +0.000 A 
ATOM     23  C   UNL     1      -1.442  10.085  17.599  0.00  0.00    +0.000 A 
ATOM     24  C   UNL     1      -2.766   9.922  17.182  0.00  0.00    +0.000 A 
ATOM     25  C   UNL     1      -3.781  10.675  17.772  0.00  0.00    +0.000 A 
ATOM     26  C   UNL     1      -3.469  11.601  18.765  0.00  0.00    +0.000 A 
ATOM     27 CL   UNL     1      -4.729  12.521  19.494  0.00  0.00    +0.000 Cl
ATOM     28  C   UNL     1      -2.147  11.764  19.178  0.00  0.00    +0.000 A 
ATOM     29  F   UNL     1      -1.846  12.653  20.140  0.00  0.00    +0.000 F 
ENDBRANCH  21  22
ENDBRANCH   8  21
TORSDOF 7
ENDMDL
MODEL 4
REMARK VINA RESULT:      -7.7      4.234      7.761
REMARK  Name = 
REMARK  8 active torsions:
REMARK  status: ('A' for Active; 'I' for Inactive)
REMARK    1  A    between atoms: C_1  and  C_2
REMARK    2  A    between atoms: C_2  and  C_3
REMARK    3  A    between atoms: C_3  and  N_4
REMARK    4  A    between atoms: C_6  and  C_7
REMARK    5  A    between atoms: C_7  and  O_9
REMARK    6  A    between atoms: C_13  and  O_14
REMARK    7  A    between atoms: C_15  and  C_16
REMARK    8  A    between atoms: C_16  and  C_17
REMARK                            x       y       z     vdW  Elec       q    Type
REMARK                         _______ _______ _______ _____ _____    ______ ____
ROOT
ATOM      1  N   UNL     1       2.655   5.164  20.166  0.00  0.00    +0.000 N 
ATOM      2  C   UNL     1       3.594   4.570  19.330  0.00  0.00    +0.000 A 
ATOM      3  C   UNL     1       4.142   5.103  18.231  0.00  0.00    +0.000 A 
ATOM      4  C   UNL     1       3.666   6.438  17.845  0.00  0.00    +0.000 A 
ATOM      5  O   UNL     1       4.069   6.958  16.802  0.00  0.00    +0.000 OA
ATOM      6  C   UNL     1       2.713   7.148  18.733  0.00  0.00    +0.000 A 
ATOM      7  C   UNL     1       2.316   8.462  18.409  0.00  0.00    +0.000 A 
ATOM      8  C   UNL     1       1.464   9.176  19.253  0.00  0.00    +0.000 A 
ATOM      9  C   UNL     1       0.994   8.538  20.406  0.00  0.00    +0.000 A 
ATOM     10  C   UNL     1       1.375   7.224  20.719  0.00  0.00    +0.000 A 
ATOM     11  C   UNL     1       2.240   6.490  19.896  0.00  0.00    +0.000 A 
ENDROOT
BRANCH   3  12
ATOM     12  C   UNL     1       5.178   4.350  17.498  0.00  0.00    +0.000 C 
ATOM     13  O   UNL     1       5.054   3.993  16.335  0.00  0.00    +0.000 OA
BRANCH  12  14
ATOM     14  O   UNL     1       6.280   4.061  18.224  0.00  0.00    +0.000 OA
ATOM     15  H   UNL     1       6.108   3.481  19.003  0.00  0.00    +0.000 HD
ENDBRANCH  12  14
ENDBRANCH   3  12
BRANCH   7  16
ATOM     16  O   UNL     1       2.742   9.098  17.268  0.00  0.00    +0.000 OA
ATOM     17  H   UNL     1       3.709   9.257  17.338  0.00  0.00    +0.000 HD
ENDBRANCH   7  16
BRANCH   1  18
ATOM     18  C   UNL     1       2.139   4.418  21.336  0.00  0.00    +0.000 C 
BRANCH  18  20
ATOM     19  C   UNL     1       0.611   3.082  19.829  0.00  0.00    +0.000 C 
ATOM     20  C   UNL     1       1.663   3.019  20.925  0.00  0.00    +0.000 C 
ENDBRANCH  18  20
ENDBRANCH   1  18
BRANCH   8  21
ATOM     21  C   UNL     1       1.005  10.581  18.926  0.00  0.00    +0.000 C 
BRANCH  21  22
ATOM     22  C   UNL     1      -0.440  10.630  18.497  0.00  0.00    +0.000 A 
ATOM     23  C   UNL     1      -0.912   9.795  17.473  0.00  0.00    +0.000 A 
ATOM     24  C   UNL     1      -2.271   9.765  17.150  0.00  0.00    +0.000 A 
ATOM     25  C   UNL     1      -3.172  10.571  17.848  0.00  0.00    +0.000 A 
ATOM     26  C   UNL     1      -2.710  11.416  18.854  0.00  0.00    +0.000 A 
ATOM     27 CL   UNL     1      -3.830  12.401  19.715  0.00  0.00    +0.000 Cl
ATOM     28  C   UNL     1      -1.353  11.447  19.172  0.00  0.00    +0.000 A 
ATOM     29  F   UNL     1      -0.907  12.258  20.147  0.00  0.00    +0.000 F 
ENDBRANCH  21  22
ENDBRANCH   8  21
TORSDOF 7
ENDMDL
MODEL 5
REMARK VINA RESULT:      -7.7      1.326      1.556
REMARK  Name = 
REMARK  8 active torsions:
REMARK  status: ('A' for Active; 'I' for Inactive)
REMARK    1  A    between atoms: C_1  and  C_2
REMARK    2  A    between atoms: C_2  and  C_3
REMARK    3  A    between atoms: C_3  and  N_4
REMARK    4  A    between atoms: C_6  and  C_7
REMARK    5  A    between atoms: C_7  and  O_9
REMARK    6  A    between atoms: C_13  and  O_14
REMARK    7  A    between atoms: C_15  and  C_16
REMARK    8  A    between atoms: C_16  and  C_17
REMARK                            x       y       z     vdW  Elec       q    Type
REMARK                         _______ _______ _______ _____ _____    ______ ____
ROOT
ATOM      1  N   UNL     1      -0.936  11.076  19.013  0.00  0.00    +0.000 N 
ATOM      2  C   UNL     1      -1.348  11.696  20.188  0.00  0.00    +0.000 A 
ATOM      3  C   UNL     1      -0.944  11.412  21.431  0.00  0.00    +0.000 A 
ATOM      4  C   UNL     1       0.002  10.296  21.572  0.00  0.00    +0.000 A 
ATOM      5  O   UNL     1       0.359   9.928  22.693  0.00  0.00    +0.000 OA
ATOM      6  C   UNL     1       0.527   9.639  20.350  0.00  0.00    +0.000 A 
ATOM      7  C   UNL     1       1.496   8.622  20.476  0.00  0.00    +0.000 A 
ATOM      8  C   UNL     1       2.049   8.022  19.344  0.00  0.00    +0.000 A 
ATOM      9  C   UNL     1       1.590   8.437  18.089  0.00  0.00    +0.000 A 
ATOM     10  C   UNL     1       0.613   9.436  17.964  0.00  0.00    +0.000 A 
ATOM     11  C   UNL     1       0.051  10.064  19.085  0.00  0.00    +0.000 A 
ENDROOT
BRANCH   3  12
ATOM     12  C   UNL     1      -1.441  12.222  22.561  0.00  0.00    +0.000 C 
ATOM     13  O   UNL     1      -1.138  13.393  22.733  0.00  0.00    +0.000 OA
BRANCH  12  14
ATOM     14  O   UNL     1      -2.251  11.556  23.413  0.00  0.00    +0.000 OA
ATOM     15  H   UNL     1      -2.574  12.100  24.169  0.00  0.00    +0.000 HD
ENDBRANCH  12  14
ENDBRANCH   3  12
BRANCH   7  16
ATOM     16  O   UNL     1       1.942   8.179  21.698  0.00  0.00    +0.000 OA
ATOM     17  H   UNL     1       1.864   7.200  21.726  0.00  0.00    +0.000 HD
ENDBRANCH   7  16
BRANCH   1  18
ATOM     18  C   UNL     1      -1.505  11.509  17.717  0.00  0.00    +0.000 C 
BRANCH  18  20
ATOM     19  C   UNL     1      -2.810  10.583  15.760  0.00  0.00    +0.000 C 
ATOM     20  C   UNL     1      -2.626  10.562  17.270  0.00  0.00    +0.000 C 
ENDBRANCH  18  20
ENDBRANCH   1  18
BRANCH   8  21
ATOM     21  C   UNL     1       3.079   6.917  19.444  0.00  0.00    +0.000 C 
BRANCH  21  22
ATOM     22  C   UNL     1       2.450   5.547  19.483  0.00  0.00    +0.000 A 
ATOM     23  C   UNL     1       1.467   5.236  20.435  0.00  0.00    +0.000 A 
ATOM     24  C   UNL     1       0.811   4.003  20.402  0.00  0.00    +0.000 A 
ATOM     25  C   UNL     1       1.131   3.068  19.417  0.00  0.00    +0.000 A 
ATOM     26  C   UNL     1       2.118   3.360  18.479  0.00  0.00    +0.000 A 
ATOM     27 CL   UNL     1       2.502   2.203  17.262  0.00  0.00    +0.000 Cl
ATOM     28  C   UNL     1       2.775   4.590  18.515  0.00  0.00    +0.000 A 
ATOM     29  F   UNL     1       3.723   4.875  17.607  0.00  0.00    +0.000 F 
ENDBRANCH  21  22
ENDBRANCH   8  21
TORSDOF 7
ENDMDL
MODEL 6
REMARK VINA RESULT:      -7.6      1.532      1.794
REMARK  Name = 
REMARK  8 active torsions:
REMARK  status: ('A' for Active; 'I' for Inactive)
REMARK    1  A    between atoms: C_1  and  C_2
REMARK    2  A    between atoms: C_2  and  C_3
REMARK    3  A    between atoms: C_3  and  N_4
REMARK    4  A    between atoms: C_6  and  C_7
REMARK    5  A    between atoms: C_7  and  O_9
REMARK    6  A    between atoms: C_13  and  O_14
REMARK    7  A    between atoms: C_15  and  C_16
REMARK    8  A    between atoms: C_16  and  C_17
REMARK                            x       y       z     vdW  Elec       q    Type
REMARK                         _______ _______ _______ _____ _____    ______ ____
ROOT
ATOM      1  N   UNL     1      -0.197  10.770  19.397  0.00  0.00    +0.000 N 
ATOM      2  C   UNL     1      -0.601  10.841  20.726  0.00  0.00    +0.000 A 
ATOM      3  C   UNL     1      -0.227  10.032  21.724  0.00  0.00    +0.000 A 
ATOM      4  C   UNL     1       0.672   8.926  21.366  0.00  0.00    +0.000 A 
ATOM      5  O   UNL     1       0.997   8.096  22.218  0.00  0.00    +0.000 OA
ATOM      6  C   UNL     1       1.188   8.837  19.979  0.00  0.00    +0.000 A 
ATOM      7  C   UNL     1       2.115   7.825  19.651  0.00  0.00    +0.000 A 
ATOM      8  C   UNL     1       2.660   7.749  18.368  0.00  0.00    +0.000 A 
ATOM      9  C   UNL     1       2.236   8.683  17.416  0.00  0.00    +0.000 A 
ATOM     10  C   UNL     1       1.301   9.678  17.738  0.00  0.00    +0.000 A 
ATOM     11  C   UNL     1       0.748   9.785  19.022  0.00  0.00    +0.000 A 
ENDROOT
BRANCH   3  12
ATOM     12  C   UNL     1      -0.708  10.297  23.094  0.00  0.00    +0.000 C 
ATOM     13  O   UNL     1      -1.692  10.979  23.341  0.00  0.00    +0.000 OA
BRANCH  12  14
ATOM     14  O   UNL     1       0.043   9.739  24.068  0.00  0.00    +0.000 OA
ATOM     15  H   UNL     1       0.632  10.376  24.538  0.00  0.00    +0.000 HD
ENDBRANCH  12  14
ENDBRANCH   3  12
BRANCH   7  16
ATOM     16  O   UNL     1       2.524   6.881  20.561  0.00  0.00    +0.000 OA
ATOM     17  H   UNL     1       2.845   6.091  20.072  0.00  0.00    +0.000 HD
ENDBRANCH   7  16
BRANCH   1  18
ATOM     18  C   UNL     1      -0.729  11.742  18.416  0.00  0.00    +0.000 C 
BRANCH  18  20
ATOM     19  C   UNL     1      -3.155  11.246  17.909  0.00  0.00    +0.000 C 
ATOM     20  C   UNL     1      -2.190  12.089  18.728  0.00  0.00    +0.000 C 
ENDBRANCH  18  20
ENDBRANCH   1  18
BRANCH   8  21
ATOM     21  C   UNL     1       3.644   6.666  17.979  0.00  0.00    +0.000 C 
BRANCH  21  22
ATOM     22  C   UNL     1       3.124   5.282  18.280  0.00  0.00    +0.000 A 
ATOM     23  C   UNL     1       1.890   4.853  17.768  0.00  0.00    +0.000 A 
ATOM     24  C   UNL     1       1.461   3.537  17.958  0.00  0.00    +0.000 A 
ATOM     25  C   UNL     1       2.261   2.637  18.663  0.00  0.00    +0.000 A 
ATOM     26  C   UNL     1       3.479   3.059  19.191  0.00  0.00    +0.000 A 
ATOM     27 CL   UNL     1       4.464   1.939  20.052  0.00  0.00    +0.000 Cl
ATOM     28  C   UNL     1       3.905   4.374  19.002  0.00  0.00    +0.000 A 
ATOM     29  F   UNL     1       5.083   4.779  19.506  0.00  0.00    +0.000 F 
ENDBRANCH  21  22
ENDBRANCH   8  21
TORSDOF 7
ENDMDL
MODEL 7
REMARK VINA RESULT:      -7.6      4.033      7.773
REMARK  Name = 
REMARK  8 active torsions:
REMARK  status: ('A' for Active; 'I' for Inactive)
REMARK    1  A    between atoms: C_1  and  C_2
REMARK    2  A    between atoms: C_2  and  C_3
REMARK    3  A    between atoms: C_3  and  N_4
REMARK    4  A    between atoms: C_6  and  C_7
REMARK    5  A    between atoms: C_7  and  O_9
REMARK    6  A    between atoms: C_13  and  O_14
REMARK    7  A    between atoms: C_15  and  C_16
REMARK    8  A    between atoms: C_16  and  C_17
REMARK                            x       y       z     vdW  Elec       q    Type
REMARK                         _______ _______ _______ _____ _____    ______ ____
ROOT
ATOM      1  N   UNL     1       4.316   5.758  17.319  0.00  0.00    +0.000 N 
ATOM      2  C   UNL     1       4.387   4.477  17.857  0.00  0.00    +0.000 A 
ATOM      3  C   UNL     1       3.792   4.040  18.973  0.00  0.00    +0.000 A 
ATOM      4  C   UNL     1       3.018   5.031  19.732  0.00  0.00    +0.000 A 
ATOM      5  O   UNL     1       2.506   4.719  20.809  0.00  0.00    +0.000 OA
ATOM      6  C   UNL     1       2.851   6.396  19.175  0.00  0.00    +0.000 A 
ATOM      7  C   UNL     1       2.042   7.326  19.859  0.00  0.00    +0.000 A 
ATOM      8  C   UNL     1       1.822   8.600  19.332  0.00  0.00    +0.000 A 
ATOM      9  C   UNL     1       2.453   8.932  18.128  0.00  0.00    +0.000 A 
ATOM     10  C   UNL     1       3.273   8.012  17.457  0.00  0.00    +0.000 A 
ATOM     11  C   UNL     1       3.499   6.722  17.957  0.00  0.00    +0.000 A 
ENDROOT
BRANCH   3  12
ATOM     12  C   UNL     1       3.927   2.622  19.360  0.00  0.00    +0.000 C 
ATOM     13  O   UNL     1       3.050   1.790  19.182  0.00  0.00    +0.000 OA
BRANCH  12  14
ATOM     14  O   UNL     1       5.100   2.314  19.955  0.00  0.00    +0.000 OA
ATOM     15  H   UNL     1       5.008   1.754  20.761  0.00  0.00    +0.000 HD
ENDBRANCH  12  14
ENDBRANCH   3  12
BRANCH   7  16
ATOM     16  O   UNL     1       1.435   7.033  21.056  0.00  0.00    +0.000 OA
ATOM     17  H   UNL     1       2.102   6.635  21.658  0.00  0.00    +0.000 HD
ENDBRANCH   7  16
BRANCH   1  18
ATOM     18  C   UNL     1       5.058   6.075  16.078  0.00  0.00    +0.000 C 
BRANCH  18  20
ATOM     19  C   UNL     1       7.207   6.726  17.240  0.00  0.00    +0.000 C 
ATOM     20  C   UNL     1       6.553   5.778  16.246  0.00  0.00    +0.000 C 
ENDBRANCH  18  20
ENDBRANCH   1  18
BRANCH   8  21
ATOM     21  C   UNL     1       0.972   9.628  20.049  0.00  0.00    +0.000 C 
BRANCH  21  22
ATOM     22  C   UNL     1      -0.187  10.102  19.209  0.00  0.00    +0.000 A 
ATOM     23  C   UNL     1      -0.425   9.553  17.940  0.00  0.00    +0.000 A 
ATOM     24  C   UNL     1      -1.559   9.917  17.209  0.00  0.00    +0.000 A 
ATOM     25  C   UNL     1      -2.467  10.835  17.740  0.00  0.00    +0.000 A 
ATOM     26  C   UNL     1      -2.230  11.399  18.991  0.00  0.00    +0.000 A 
ATOM     27 CL   UNL     1      -3.359  12.524  19.643  0.00  0.00    +0.000 Cl
ATOM     28  C   UNL     1      -1.095  11.037  19.718  0.00  0.00    +0.000 A 
ATOM     29  F   UNL     1      -0.870  11.576  20.928  0.00  0.00    +0.000 F 
ENDBRANCH  21  22
ENDBRANCH   8  21
TORSDOF 7
ENDMDL
MODEL 8
REMARK VINA RESULT:      -7.6      0.996      1.207
REMARK  Name = 
REMARK  8 active torsions:
REMARK  status: ('A' for Active; 'I' for Inactive)
REMARK    1  A    between atoms: C_1  and  C_2
REMARK    2  A    between atoms: C_2  and  C_3
REMARK    3  A    between atoms: C_3  and  N_4
REMARK    4  A    between atoms: C_6  and  C_7
REMARK    5  A    between atoms: C_7  and  O_9
REMARK    6  A    between atoms: C_13  and  O_14
REMARK    7  A    between atoms: C_15  and  C_16
REMARK    8  A    between atoms: C_16  and  C_17
REMARK                            x       y       z     vdW  Elec       q    Type
REMARK                         _______ _______ _______ _____ _____    ______ ____
ROOT
ATOM      1  N   UNL     1      -0.771  10.941  18.797  0.00  0.00    +0.000 N 
ATOM      2  C   UNL     1      -1.299  11.516  19.948  0.00  0.00    +0.000 A 
ATOM      3  C   UNL     1      -1.013  11.189  21.214  0.00  0.00    +0.000 A 
ATOM      4  C   UNL     1      -0.074  10.075  21.404  0.00  0.00    +0.000 A 
ATOM      5  O   UNL     1       0.177   9.668  22.541  0.00  0.00    +0.000 OA
ATOM      6  C   UNL     1       0.572   9.465  20.217  0.00  0.00    +0.000 A 
ATOM      7  C   UNL     1       1.535   8.451  20.399  0.00  0.00    +0.000 A 
ATOM      8  C   UNL     1       2.199   7.896  19.304  0.00  0.00    +0.000 A 
ATOM      9  C   UNL     1       1.858   8.354  18.026  0.00  0.00    +0.000 A 
ATOM     10  C   UNL     1       0.887   9.351  17.844  0.00  0.00    +0.000 A 
ATOM     11  C   UNL     1       0.215   9.934  18.927  0.00  0.00    +0.000 A 
ENDROOT
BRANCH   3  12
ATOM     12  C   UNL     1      -1.624  11.954  22.318  0.00  0.00    +0.000 C 
ATOM     13  O   UNL     1      -2.773  12.368  22.295  0.00  0.00    +0.000 OA
BRANCH  12  14
ATOM     14  O   UNL     1      -0.798  12.184  23.363  0.00  0.00    +0.000 OA
ATOM     15  H   UNL     1      -1.257  12.502  24.176  0.00  0.00    +0.000 HD
ENDBRANCH  12  14
ENDBRANCH   3  12
BRANCH   7  16
ATOM     16  O   UNL     1       1.865   7.966  21.641  0.00  0.00    +0.000 OA
ATOM     17  H   UNL     1       1.718   6.995  21.650  0.00  0.00    +0.000 HD
ENDBRANCH   7  16
BRANCH   1  18
ATOM     18  C   UNL     1      -1.217  11.417  17.469  0.00  0.00    +0.000 C 
BRANCH  18  20
ATOM     19  C   UNL     1      -3.138   9.778  17.356  0.00  0.00    +0.000 C 
ATOM     20  C   UNL     1      -2.732  11.243  17.307  0.00  0.00    +0.000 C 
ENDBRANCH  18  20
ENDBRANCH   1  18
BRANCH   8  21
ATOM     21  C   UNL     1       3.225   6.795  19.464  0.00  0.00    +0.000 C 
BRANCH  21  22
ATOM     22  C   UNL     1       2.873   5.561  18.671  0.00  0.00    +0.000 A 
ATOM     23  C   UNL     1       3.577   5.234  17.502  0.00  0.00    +0.000 A 
ATOM     24  C   UNL     1       3.321   4.037  16.830  0.00  0.00    +0.000 A 
ATOM     25  C   UNL     1       2.356   3.154  17.318  0.00  0.00    +0.000 A 
ATOM     26  C   UNL     1       1.639   3.479  18.467  0.00  0.00    +0.000 A 
ATOM     27 CL   UNL     1       0.456   2.380  19.067  0.00  0.00    +0.000 Cl
ATOM     28  C   UNL     1       1.894   4.676  19.136  0.00  0.00    +0.000 A 
ATOM     29  F   UNL     1       1.207   4.986  20.248  0.00  0.00    +0.000 F 
ENDBRANCH  21  22
ENDBRANCH   8  21
TORSDOF 7
ENDMDL
MODEL 9
REMARK VINA RESULT:      -7.5      3.908      7.610
REMARK  Name = 
REMARK  8 active torsions:
REMARK  status: ('A' for Active; 'I' for Inactive)
REMARK    1  A    between atoms: C_1  and  C_2
REMARK    2  A    between atoms: C_2  and  C_3
REMARK    3  A    between atoms: C_3  and  N_4
REMARK    4  A    between atoms: C_6  and  C_7
REMARK    5  A    between atoms: C_7  and  O_9
REMARK    6  A    between atoms: C_13  and  O_14
REMARK    7  A    between atoms: C_15  and  C_16
REMARK    8  A    between atoms: C_16  and  C_17
REMARK                            x       y       z     vdW  Elec       q    Type
REMARK                         _______ _______ _______ _____ _____    ______ ____
ROOT
ATOM      1  N   UNL     1       4.100   5.730  17.600  0.00  0.00    +0.000 N 
ATOM      2  C   UNL     1       4.150   4.523  18.288  0.00  0.00    +0.000 A 
ATOM      3  C   UNL     1       3.562   4.238  19.456  0.00  0.00    +0.000 A 
ATOM      4  C   UNL     1       2.822   5.332  20.099  0.00  0.00    +0.000 A 
ATOM      5  O   UNL     1       2.320   5.165  21.213  0.00  0.00    +0.000 OA
ATOM      6  C   UNL     1       2.679   6.623  19.383  0.00  0.00    +0.000 A 
ATOM      7  C   UNL     1       1.902   7.649  19.959  0.00  0.00    +0.000 A 
ATOM      8  C   UNL     1       1.703   8.855  19.285  0.00  0.00    +0.000 A 
ATOM      9  C   UNL     1       2.323   9.024  18.042  0.00  0.00    +0.000 A 
ATOM     10  C   UNL     1       3.111   8.009  17.477  0.00  0.00    +0.000 A 
ATOM     11  C   UNL     1       3.315   6.784  18.127  0.00  0.00    +0.000 A 
ENDROOT
BRANCH   3  12
ATOM     12  C   UNL     1       3.671   2.874  20.010  0.00  0.00    +0.000 C 
ATOM     13  O   UNL     1       4.715   2.240  20.037  0.00  0.00    +0.000 OA
BRANCH  12  14
ATOM     14  O   UNL     1       2.508   2.365  20.474  0.00  0.00    +0.000 OA
ATOM     15  H   UNL     1       2.619   1.617  21.105  0.00  0.00    +0.000 HD
ENDBRANCH  12  14
ENDBRANCH   3  12
BRANCH   7  16
ATOM     16  O   UNL     1       1.307   7.517  21.191  0.00  0.00    +0.000 OA
ATOM     17  H   UNL     1       2.008   7.487  21.878  0.00  0.00    +0.000 HD
ENDBRANCH   7  16
BRANCH   1  18
ATOM     18  C   UNL     1       4.830   5.877  16.321  0.00  0.00    +0.000 C 
BRANCH  18  20
ATOM     19  C   UNL     1       6.190   4.643  14.585  0.00  0.00    +0.000 C 
ATOM     20  C   UNL     1       5.248   4.508  15.771  0.00  0.00    +0.000 C 
ENDBRANCH  18  20
ENDBRANCH   1  18
BRANCH   8  21
ATOM     21  C   UNL     1       0.888   9.982  19.883  0.00  0.00    +0.000 C 
BRANCH  21  22
ATOM     22  C   UNL     1      -0.343  10.296  19.070  0.00  0.00    +0.000 A 
ATOM     23  C   UNL     1      -0.559   9.678  17.829  0.00  0.00    +0.000 A 
ATOM     24  C   UNL     1      -1.749   9.889  17.128  0.00  0.00    +0.000 A 
ATOM     25  C   UNL     1      -2.735  10.721  17.659  0.00  0.00    +0.000 A 
ATOM     26  C   UNL     1      -2.521  11.354  18.882  0.00  0.00    +0.000 A 
ATOM     27 CL   UNL     1      -3.746  12.373  19.535  0.00  0.00    +0.000 Cl
ATOM     28  C   UNL     1      -1.332  11.145  19.579  0.00  0.00    +0.000 A 
ATOM     29  F   UNL     1      -1.128  11.750  20.762  0.00  0.00    +0.000 F 
ENDBRANCH  21  22
ENDBRANCH   8  21
TORSDOF 7
ENDMDL
