MODEL 1
REMARK VINA RESULT:      -7.6      0.000      0.000
REMARK  Name = 
REMARK  11 active torsions:
REMARK  status: ('A' for Active; 'I' for Inactive)
REMARK    1  A    between atoms: C_1  and  C_2
REMARK    2  A    between atoms: C_2  and  C_3
REMARK    3  A    between atoms: C_3  and  O_4
REMARK    4  A    between atoms: O_4  and  C_5
REMARK    5  A    between atoms: C_11  and  C_12
REMARK    6  A    between atoms: C_14  and  C_15
REMARK    7  A    between atoms: N_17  and  C_18
REMARK    8  A    between atoms: C_21  and  O_22
REMARK    9  A    between atoms: O_22  and  C_23
REMARK   10  A    between atoms: C_24  and  O_25
REMARK   11  A    between atoms: O_25  and  C_26
REMARK                            x       y       z     vdW  Elec       q    Type
REMARK                         _______ _______ _______ _____ _____    ______ ____
ROOT
ATOM      1  C   UNL     1       7.330   6.830  17.600  0.00  0.00    +0.000 A 
ATOM      2  C   UNL     1       7.464   8.237  17.437  0.00  0.00    +0.000 A 
ATOM      3  C   UNL     1       8.334   8.657  18.418  0.00  0.00    +0.000 A 
ATOM      4  N   UNL     1       8.648   7.523  19.113  0.00  0.00    +0.000 N 
ATOM      5  N   UNL     1       8.047   6.416  18.659  0.00  0.00    +0.000 NA
ATOM      6  H   UNL     1       9.270   7.457  19.914  0.00  0.00    +0.000 HD
ENDROOT
BRANCH   1  13
ATOM      7  C   UNL     1       5.222   5.490  17.206  0.00  0.00    +0.000 A 
ATOM      8  C   UNL     1       4.527   4.559  16.417  0.00  0.00    +0.000 A 
ATOM      9  C   UNL     1       5.097   4.037  15.257  0.00  0.00    +0.000 A 
ATOM     10  C   UNL     1       6.361   4.451  14.871  0.00  0.00    +0.000 A 
ATOM     11  F   UNL     1       6.905   3.950  13.755  0.00  0.00    +0.000 F 
ATOM     12  C   UNL     1       7.071   5.371  15.630  0.00  0.00    +0.000 A 
ATOM     13  C   UNL     1       6.520   5.894  16.814  0.00  0.00    +0.000 A 
BRANCH   7  14
ATOM     14  O   UNL     1       4.694   6.051  18.348  0.00  0.00    +0.000 OA
BRANCH  14  15
ATOM     15  C   UNL     1       4.216   5.153  19.348  0.00  0.00    +0.000 C 
BRANCH  15  17
ATOM     16  C   UNL     1       1.822   4.501  19.048  0.00  0.00    +0.000 C 
ATOM     17  C   UNL     1       2.771   5.499  19.692  0.00  0.00    +0.000 C 
ENDBRANCH  15  17
ENDBRANCH  14  15
ENDBRANCH   7  14
ENDBRANCH   1  13
BRANCH   3  18
ATOM     18  C   UNL     1       8.904   9.929  18.780  0.00  0.00    +0.000 C 
ATOM     19  O   UNL     1       9.335  10.098  19.915  0.00  0.00    +0.000 OA
ATOM     20  N   UNL     1       8.881  10.885  17.780  0.00  0.00    +0.000 N 
ATOM     21  H   UNL     1       8.361  10.662  16.942  0.00  0.00    +0.000 HD
BRANCH  20  22
ATOM     22  C   UNL     1       9.417  12.189  17.863  0.00  0.00    +0.000 A 
ATOM     23  C   UNL     1      10.689  12.511  17.399  0.00  0.00    +0.000 A 
ATOM     24  C   UNL     1      11.166  13.809  17.515  0.00  0.00    +0.000 A 
ATOM     25  C   UNL     1      10.396  14.820  18.103  0.00  0.00    +0.000 A 
ATOM     26  C   UNL     1       9.110  14.513  18.581  0.00  0.00    +0.000 A 
ATOM     27  C   UNL     1       8.625  13.199  18.429  0.00  0.00    +0.000 A 
BRANCH  25  28
ATOM     28  O   UNL     1      11.062  16.017  18.115  0.00  0.00    +0.000 OA
ATOM     29  C   UNL     1      11.195  16.748  16.908  0.00  0.00    +0.000 C 
ENDBRANCH  25  28
BRANCH  26  30
ATOM     30  O   UNL     1       8.397  15.509  19.190  0.00  0.00    +0.000 OA
ATOM     31  C   UNL     1       7.476  16.266  18.419  0.00  0.00    +0.000 C 
ENDBRANCH  26  30
ENDBRANCH  20  22
ENDBRANCH   3  18
TORSDOF 8
ENDMDL
MODEL 2
REMARK VINA RESULT:      -7.3      6.456      7.945
REMARK  Name = 
REMARK  11 active torsions:
REMARK  status: ('A' for Active; 'I' for Inactive)
REMARK    1  A    between atoms: C_1  and  C_2
REMARK    2  A    between atoms: C_2  and  C_3
REMARK    3  A    between atoms: C_3  and  O_4
REMARK    4  A    between atoms: O_4  and  C_5
REMARK    5  A    between atoms: C_11  and  C_12
REMARK    6  A    between atoms: C_14  and  C_15
REMARK    7  A    between atoms: N_17  and  C_18
REMARK    8  A    between atoms: C_21  and  O_22
REMARK    9  A    between atoms: O_22  and  C_23
REMARK   10  A    between atoms: C_24  and  O_25
REMARK   11  A    between atoms: O_25  and  C_26
REMARK                            x       y       z     vdW  Elec       q    Type
REMARK                         _______ _______ _______ _____ _____    ______ ____
ROOT
ATOM      1  C   UNL     1       2.896   6.788  18.691  0.00  0.00    +0.000 A 
ATOM      2  C   UNL     1       2.188   7.962  18.312  0.00  0.00    +0.000 A 
ATOM      3  C   UNL     1       1.588   8.436  19.457  0.00  0.00    +0.000 A 
ATOM      4  N   UNL     1       1.933   7.538  20.427  0.00  0.00    +0.000 N 
ATOM      5  N   UNL     1       2.701   6.529  19.995  0.00  0.00    +0.000 NA
ATOM      6  H   UNL     1       1.662   7.572  21.407  0.00  0.00    +0.000 HD
ENDROOT
BRANCH   1  13
ATOM      7  C   UNL     1       3.280   4.602  17.478  0.00  0.00    +0.000 A 
ATOM      8  C   UNL     1       4.132   3.799  16.702  0.00  0.00    +0.000 A 
ATOM      9  C   UNL     1       5.380   4.266  16.294  0.00  0.00    +0.000 A 
ATOM     10  C   UNL     1       5.781   5.544  16.647  0.00  0.00    +0.000 A 
ATOM     11  F   UNL     1       6.979   5.991  16.251  0.00  0.00    +0.000 F 
ATOM     12  C   UNL     1       4.960   6.360  17.412  0.00  0.00    +0.000 A 
ATOM     13  C   UNL     1       3.705   5.899  17.850  0.00  0.00    +0.000 A 
BRANCH   7  14
ATOM     14  O   UNL     1       2.031   4.195  17.888  0.00  0.00    +0.000 OA
BRANCH  14  15
ATOM     15  C   UNL     1       1.974   3.112  18.815  0.00  0.00    +0.000 C 
BRANCH  15  17
ATOM     16  C   UNL     1       1.387   2.900  21.236  0.00  0.00    +0.000 C 
ATOM     17  C   UNL     1       0.925   3.410  19.881  0.00  0.00    +0.000 C 
ENDBRANCH  15  17
ENDBRANCH  14  15
ENDBRANCH   7  14
ENDBRANCH   1  13
BRANCH   3  18
ATOM     18  C   UNL     1       0.770   9.581  19.764  0.00  0.00    +0.000 C 
ATOM     19  O   UNL     1       0.053  10.062  18.895  0.00  0.00    +0.000 OA
ATOM     20  N   UNL     1       0.904  10.064  21.054  0.00  0.00    +0.000 N 
ATOM     21  H   UNL     1       1.641   9.667  21.620  0.00  0.00    +0.000 HD
BRANCH  20  22
ATOM     22  C   UNL     1       0.182  11.140  21.617  0.00  0.00    +0.000 A 
ATOM     23  C   UNL     1      -0.821  10.960  22.564  0.00  0.00    +0.000 A 
ATOM     24  C   UNL     1      -1.502  12.056  23.076  0.00  0.00    +0.000 A 
ATOM     25  C   UNL     1      -1.210  13.359  22.656  0.00  0.00    +0.000 A 
ATOM     26  C   UNL     1      -0.201  13.560  21.697  0.00  0.00    +0.000 A 
ATOM     27  C   UNL     1       0.504  12.443  21.207  0.00  0.00    +0.000 A 
BRANCH  25  28
ATOM     28  O   UNL     1      -2.001  14.281  23.288  0.00  0.00    +0.000 OA
ATOM     29  C   UNL     1      -1.519  14.925  24.454  0.00  0.00    +0.000 C 
ENDBRANCH  25  28
BRANCH  26  30
ATOM     30  O   UNL     1       0.034  14.840  21.272  0.00  0.00    +0.000 OA
ATOM     31  C   UNL     1      -0.664  15.327  20.137  0.00  0.00    +0.000 C 
ENDBRANCH  26  30
ENDBRANCH  20  22
ENDBRANCH   3  18
TORSDOF 8
ENDMDL
MODEL 3
REMARK VINA RESULT:      -7.2      5.452      7.516
REMARK  Name = 
REMARK  11 active torsions:
REMARK  status: ('A' for Active; 'I' for Inactive)
REMARK    1  A    between atoms: C_1  and  C_2
REMARK    2  A    between atoms: C_2  and  C_3
REMARK    3  A    between atoms: C_3  and  O_4
REMARK    4  A    between atoms: O_4  and  C_5
REMARK    5  A    between atoms: C_11  and  C_12
REMARK    6  A    between atoms: C_14  and  C_15
REMARK    7  A    between atoms: N_17  and  C_18
REMARK    8  A    between atoms: C_21  and  O_22
REMARK    9  A    between atoms: O_22  and  C_23
REMARK   10  A    between atoms: C_24  and  O_25
REMARK   11  A    between atoms: O_25  and  C_26
REMARK                            x       y       z     vdW  Elec       q    Type
REMARK                         _______ _______ _______ _____ _____    ______ ____
ROOT
ATOM      1  C   UNL     1       4.655   4.702  16.518  0.00  0.00    +0.000 A 
ATOM      2  C   UNL     1       4.106   5.898  17.057  0.00  0.00    +0.000 A 
ATOM      3  C   UNL     1       3.363   5.520  18.153  0.00  0.00    +0.000 A 
ATOM      4  N   UNL     1       3.478   4.160  18.198  0.00  0.00    +0.000 N 
ATOM      5  N   UNL     1       4.230   3.639  17.220  0.00  0.00    +0.000 NA
ATOM      6  H   UNL     1       3.054   3.539  18.883  0.00  0.00    +0.000 HD
ENDROOT
BRANCH   1  13
ATOM      7  C   UNL     1       6.850   5.035  15.307  0.00  0.00    +0.000 A 
ATOM      8  C   UNL     1       7.604   4.877  14.132  0.00  0.00    +0.000 A 
ATOM      9  C   UNL     1       7.063   4.241  13.015  0.00  0.00    +0.000 A 
ATOM     10  C   UNL     1       5.771   3.747  13.069  0.00  0.00    +0.000 A 
ATOM     11  F   UNL     1       5.256   3.135  11.996  0.00  0.00    +0.000 F 
ATOM     12  C   UNL     1       5.003   3.888  14.217  0.00  0.00    +0.000 A 
ATOM     13  C   UNL     1       5.524   4.545  15.346  0.00  0.00    +0.000 A 
BRANCH   7  14
ATOM     14  O   UNL     1       7.345   5.637  16.442  0.00  0.00    +0.000 OA
BRANCH  14  15
ATOM     15  C   UNL     1       7.670   4.783  17.538  0.00  0.00    +0.000 C 
BRANCH  15  17
ATOM     16  C   UNL     1       8.010   7.056  18.520  0.00  0.00    +0.000 C 
ATOM     17  C   UNL     1       7.702   5.599  18.825  0.00  0.00    +0.000 C 
ENDBRANCH  15  17
ENDBRANCH  14  15
ENDBRANCH   7  14
ENDBRANCH   1  13
BRANCH   3  18
ATOM     18  C   UNL     1       2.591   6.232  19.139  0.00  0.00    +0.000 C 
ATOM     19  O   UNL     1       2.185   5.639  20.132  0.00  0.00    +0.000 OA
ATOM     20  N   UNL     1       2.347   7.561  18.842  0.00  0.00    +0.000 N 
ATOM     21  H   UNL     1       2.610   7.882  17.920  0.00  0.00    +0.000 HD
BRANCH  20  22
ATOM     22  C   UNL     1       1.662   8.484  19.662  0.00  0.00    +0.000 A 
ATOM     23  C   UNL     1       1.503   8.302  21.032  0.00  0.00    +0.000 A 
ATOM     24  C   UNL     1       0.812   9.240  21.786  0.00  0.00    +0.000 A 
ATOM     25  C   UNL     1       0.252  10.380  21.197  0.00  0.00    +0.000 A 
ATOM     26  C   UNL     1       0.397  10.579  19.813  0.00  0.00    +0.000 A 
ATOM     27  C   UNL     1       1.128   9.636  19.064  0.00  0.00    +0.000 A 
BRANCH  25  28
ATOM     28  O   UNL     1      -0.384  11.164  22.123  0.00  0.00    +0.000 OA
ATOM     29  C   UNL     1      -1.092  10.546  23.184  0.00  0.00    +0.000 C 
ENDBRANCH  25  28
BRANCH  26  30
ATOM     30  O   UNL     1      -0.197  11.679  19.257  0.00  0.00    +0.000 OA
ATOM     31  C   UNL     1       0.617  12.763  18.836  0.00  0.00    +0.000 C 
ENDBRANCH  26  30
ENDBRANCH  20  22
ENDBRANCH   3  18
TORSDOF 8
ENDMDL
MODEL 4
REMARK VINA RESULT:      -7.2      6.415      7.967
REMARK  Name = 
REMARK  11 active torsions:
REMARK  status: ('A' for Active; 'I' for Inactive)
REMARK    1  A    between atoms: C_1  and  C_2
REMARK    2  A    between atoms: C_2  and  C_3
REMARK    3  A    between atoms: C_3  and  O_4
REMARK    4  A    between atoms: O_4  and  C_5
REMARK    5  A    between atoms: C_11  and  C_12
REMARK    6  A    between atoms: C_14  and  C_15
REMARK    7  A    between atoms: N_17  and  C_18
REMARK    8  A    between atoms: C_21  and  O_22
REMARK    9  A    between atoms: O_22  and  C_23
REMARK   10  A    between atoms: C_24  and  O_25
REMARK   11  A    between atoms: O_25  and  C_26
REMARK                            x       y       z     vdW  Elec       q    Type
REMARK                         _______ _______ _______ _____ _____    ______ ____
ROOT
ATOM      1  C   UNL     1       3.564   6.220  18.275  0.00  0.00    +0.000 A 
ATOM      2  C   UNL     1       2.851   7.417  17.987  0.00  0.00    +0.000 A 
ATOM      3  C   UNL     1       2.183   7.754  19.143  0.00  0.00    +0.000 A 
ATOM      4  N   UNL     1       2.497   6.761  20.027  0.00  0.00    +0.000 N 
ATOM      5  N   UNL     1       3.307   5.817  19.531  0.00  0.00    +0.000 NA
ATOM      6  H   UNL     1       2.175   6.683  20.989  0.00  0.00    +0.000 HD
ENDROOT
BRANCH   1  13
ATOM      7  C   UNL     1       4.103   4.141  16.939  0.00  0.00    +0.000 A 
ATOM      8  C   UNL     1       5.009   3.446  16.122  0.00  0.00    +0.000 A 
ATOM      9  C   UNL     1       6.222   4.024  15.747  0.00  0.00    +0.000 A 
ATOM     10  C   UNL     1       6.530   5.304  16.175  0.00  0.00    +0.000 A 
ATOM     11  F   UNL     1       7.694   5.856  15.812  0.00  0.00    +0.000 F 
ATOM     12  C   UNL     1       5.653   6.014  16.983  0.00  0.00    +0.000 A 
ATOM     13  C   UNL     1       4.434   5.441  17.388  0.00  0.00    +0.000 A 
BRANCH   7  14
ATOM     14  O   UNL     1       2.885   3.623  17.320  0.00  0.00    +0.000 OA
BRANCH  14  15
ATOM     15  C   UNL     1       2.875   2.283  17.807  0.00  0.00    +0.000 C 
BRANCH  15  17
ATOM     16  C   UNL     1       0.760   3.072  18.883  0.00  0.00    +0.000 C 
ATOM     17  C   UNL     1       1.995   2.201  19.050  0.00  0.00    +0.000 C 
ENDBRANCH  15  17
ENDBRANCH  14  15
ENDBRANCH   7  14
ENDBRANCH   1  13
BRANCH   3  18
ATOM     18  C   UNL     1       1.325   8.845  19.528  0.00  0.00    +0.000 C 
ATOM     19  O   UNL     1       0.761   9.504  18.662  0.00  0.00    +0.000 OA
ATOM     20  N   UNL     1       1.245   9.072  20.890  0.00  0.00    +0.000 N 
ATOM     21  H   UNL     1       1.880   8.553  21.481  0.00  0.00    +0.000 HD
BRANCH  20  22
ATOM     22  C   UNL     1       0.441  10.044  21.525  0.00  0.00    +0.000 A 
ATOM     23  C   UNL     1      -0.376   9.753  22.612  0.00  0.00    +0.000 A 
ATOM     24  C   UNL     1      -1.151  10.749  23.190  0.00  0.00    +0.000 A 
ATOM     25  C   UNL     1      -1.141  12.059  22.698  0.00  0.00    +0.000 A 
ATOM     26  C   UNL     1      -0.325  12.372  21.597  0.00  0.00    +0.000 A 
ATOM     27  C   UNL     1       0.481  11.360  21.039  0.00  0.00    +0.000 A 
BRANCH  25  28
ATOM     28  O   UNL     1      -1.978  12.872  23.415  0.00  0.00    +0.000 OA
ATOM     29  C   UNL     1      -3.321  12.471  23.625  0.00  0.00    +0.000 C 
ENDBRANCH  25  28
BRANCH  26  30
ATOM     30  O   UNL     1      -0.367  13.650  21.110  0.00  0.00    +0.000 OA
ATOM     31  C   UNL     1      -0.743  13.859  19.757  0.00  0.00    +0.000 C 
ENDBRANCH  26  30
ENDBRANCH  20  22
ENDBRANCH   3  18
TORSDOF 8
ENDMDL
MODEL 5
REMARK VINA RESULT:      -7.2      5.030      7.888
REMARK  Name = 
REMARK  11 active torsions:
REMARK  status: ('A' for Active; 'I' for Inactive)
REMARK    1  A    between atoms: C_1  and  C_2
REMARK    2  A    between atoms: C_2  and  C_3
REMARK    3  A    between atoms: C_3  and  O_4
REMARK    4  A    between atoms: O_4  and  C_5
REMARK    5  A    between atoms: C_11  and  C_12
REMARK    6  A    between atoms: C_14  and  C_15
REMARK    7  A    between atoms: N_17  and  C_18
REMARK    8  A    between atoms: C_21  and  O_22
REMARK    9  A    between atoms: O_22  and  C_23
REMARK   10  A    between atoms: C_24  and  O_25
REMARK   11  A    between atoms: O_25  and  C_26
REMARK                            x       y       z     vdW  Elec       q    Type
REMARK                         _______ _______ _______ _____ _____    ______ ____
ROOT
ATOM      1  C   UNL     1       4.138   5.616  17.961  0.00  0.00    +0.000 A 
ATOM      2  C   UNL     1       3.491   6.879  18.058  0.00  0.00    +0.000 A 
ATOM      3  C   UNL     1       2.673   6.808  19.163  0.00  0.00    +0.000 A 
ATOM      4  N   UNL     1       2.845   5.541  19.642  0.00  0.00    +0.000 N 
ATOM      5  N   UNL     1       3.702   4.795  18.932  0.00  0.00    +0.000 NA
ATOM      6  H   UNL     1       2.390   5.135  20.456  0.00  0.00    +0.000 HD
ENDROOT
BRANCH   1  13
ATOM      7  C   UNL     1       6.505   5.129  17.212  0.00  0.00    +0.000 A 
ATOM      8  C   UNL     1       7.374   4.719  16.188  0.00  0.00    +0.000 A 
ATOM      9  C   UNL     1       6.882   4.343  14.939  0.00  0.00    +0.000 A 
ATOM     10  C   UNL     1       5.516   4.363  14.709  0.00  0.00    +0.000 A 
ATOM     11  F   UNL     1       5.047   4.000  13.509  0.00  0.00    +0.000 F 
ATOM     12  C   UNL     1       4.633   4.762  15.702  0.00  0.00    +0.000 A 
ATOM     13  C   UNL     1       5.113   5.163  16.962  0.00  0.00    +0.000 A 
BRANCH   7  14
ATOM     14  O   UNL     1       6.939   5.488  18.468  0.00  0.00    +0.000 OA
BRANCH  14  15
ATOM     15  C   UNL     1       7.941   6.501  18.541  0.00  0.00    +0.000 C 
BRANCH  15  17
ATOM     16  C   UNL     1       8.277   8.930  18.056  0.00  0.00    +0.000 C 
ATOM     17  C   UNL     1       7.558   7.661  17.629  0.00  0.00    +0.000 C 
ENDBRANCH  15  17
ENDBRANCH  14  15
ENDBRANCH   7  14
ENDBRANCH   1  13
BRANCH   3  18
ATOM     18  C   UNL     1       1.787   7.735  19.819  0.00  0.00    +0.000 C 
ATOM     19  O   UNL     1       1.339   7.461  20.927  0.00  0.00    +0.000 OA
ATOM     20  N   UNL     1       1.491   8.874  19.092  0.00  0.00    +0.000 N 
ATOM     21  H   UNL     1       1.806   8.902  18.132  0.00  0.00    +0.000 HD
BRANCH  20  22
ATOM     22  C   UNL     1       0.691   9.954  19.528  0.00  0.00    +0.000 A 
ATOM     23  C   UNL     1       0.822  10.528  20.788  0.00  0.00    +0.000 A 
ATOM     24  C   UNL     1       0.001  11.583  21.164  0.00  0.00    +0.000 A 
ATOM     25  C   UNL     1      -0.976  12.090  20.300  0.00  0.00    +0.000 A 
ATOM     26  C   UNL     1      -1.127  11.520  19.023  0.00  0.00    +0.000 A 
ATOM     27  C   UNL     1      -0.267  10.471  18.642  0.00  0.00    +0.000 A 
BRANCH  25  28
ATOM     28  O   UNL     1      -1.669  13.123  20.874  0.00  0.00    +0.000 OA
ATOM     29  C   UNL     1      -2.234  12.947  22.162  0.00  0.00    +0.000 C 
ENDBRANCH  25  28
BRANCH  26  30
ATOM     30  O   UNL     1      -2.119  12.006  18.216  0.00  0.00    +0.000 OA
ATOM     31  C   UNL     1      -3.354  11.311  18.149  0.00  0.00    +0.000 C 
ENDBRANCH  26  30
ENDBRANCH  20  22
ENDBRANCH   3  18
TORSDOF 8
ENDMDL
MODEL 6
REMARK VINA RESULT:      -7.1      6.642      8.816
REMARK  Name = 
REMARK  11 active torsions:
REMARK  status: ('A' for Active; 'I' for Inactive)
REMARK    1  A    between atoms: C_1  and  C_2
REMARK    2  A    between atoms: C_2  and  C_3
REMARK    3  A    between atoms: C_3  and  O_4
REMARK    4  A    between atoms: O_4  and  C_5
REMARK    5  A    between atoms: C_11  and  C_12
REMARK    6  A    between atoms: C_14  and  C_15
REMARK    7  A    between atoms: N_17  and  C_18
REMARK    8  A    between atoms: C_21  and  O_22
REMARK    9  A    between atoms: O_22  and  C_23
REMARK   10  A    between atoms: C_24  and  O_25
REMARK   11  A    between atoms: O_25  and  C_26
REMARK                            x       y       z     vdW  Elec       q    Type
REMARK                         _______ _______ _______ _____ _____    ______ ____
ROOT
ATOM      1  C   UNL     1       2.860   7.330  18.243  0.00  0.00    +0.000 A 
ATOM      2  C   UNL     1       2.207   7.377  19.506  0.00  0.00    +0.000 A 
ATOM      3  C   UNL     1       1.459   8.533  19.509  0.00  0.00    +0.000 A 
ATOM      4  N   UNL     1       1.713   9.114  18.299  0.00  0.00    +0.000 N 
ATOM      5  N   UNL     1       2.563   8.427  17.526  0.00  0.00    +0.000 NA
ATOM      6  H   UNL     1       1.327   9.991  17.955  0.00  0.00    +0.000 HD
ENDROOT
BRANCH   1  13
ATOM      7  C   UNL     1       3.410   4.944  17.608  0.00  0.00    +0.000 A 
ATOM      8  C   UNL     1       4.359   4.020  17.140  0.00  0.00    +0.000 A 
ATOM      9  C   UNL     1       5.645   4.429  16.790  0.00  0.00    +0.000 A 
ATOM     10  C   UNL     1       5.987   5.767  16.892  0.00  0.00    +0.000 A 
ATOM     11  F   UNL     1       7.222   6.157  16.553  0.00  0.00    +0.000 F 
ATOM     12  C   UNL     1       5.071   6.703  17.350  0.00  0.00    +0.000 A 
ATOM     13  C   UNL     1       3.775   6.306  17.727  0.00  0.00    +0.000 A 
BRANCH   7  14
ATOM     14  O   UNL     1       2.123   4.594  17.946  0.00  0.00    +0.000 OA
BRANCH  14  15
ATOM     15  C   UNL     1       1.962   3.456  18.791  0.00  0.00    +0.000 C 
BRANCH  15  17
ATOM     16  C   UNL     1       1.460   2.878  21.171  0.00  0.00    +0.000 C 
ATOM     17  C   UNL     1       1.186   3.857  20.041  0.00  0.00    +0.000 C 
ENDBRANCH  15  17
ENDBRANCH  14  15
ENDBRANCH   7  14
ENDBRANCH   1  13
BRANCH   3  18
ATOM     18  C   UNL     1       0.560   9.147  20.452  0.00  0.00    +0.000 C 
ATOM     19  O   UNL     1       0.185   8.513  21.431  0.00  0.00    +0.000 OA
ATOM     20  N   UNL     1       0.166  10.434  20.130  0.00  0.00    +0.000 N 
ATOM     21  H   UNL     1       0.430  10.781  19.218  0.00  0.00    +0.000 HD
BRANCH  20  22
ATOM     22  C   UNL     1      -0.666  11.268  20.908  0.00  0.00    +0.000 A 
ATOM     23  C   UNL     1      -0.450  11.495  22.264  0.00  0.00    +0.000 A 
ATOM     24  C   UNL     1      -1.308  12.319  22.980  0.00  0.00    +0.000 A 
ATOM     25  C   UNL     1      -2.408  12.933  22.369  0.00  0.00    +0.000 A 
ATOM     26  C   UNL     1      -2.646  12.712  21.001  0.00  0.00    +0.000 A 
ATOM     27  C   UNL     1      -1.750  11.899  20.279  0.00  0.00    +0.000 A 
BRANCH  25  28
ATOM     28  O   UNL     1      -3.116  13.696  23.260  0.00  0.00    +0.000 OA
ATOM     29  C   UNL     1      -3.844  13.058  24.294  0.00  0.00    +0.000 C 
ENDBRANCH  25  28
BRANCH  26  30
ATOM     30  O   UNL     1      -3.753  13.290  20.441  0.00  0.00    +0.000 OA
ATOM     31  C   UNL     1      -5.004  12.629  20.552  0.00  0.00    +0.000 C 
ENDBRANCH  26  30
ENDBRANCH  20  22
ENDBRANCH   3  18
TORSDOF 8
ENDMDL
MODEL 7
REMARK VINA RESULT:      -7.1      6.647      8.203
REMARK  Name = 
REMARK  11 active torsions:
REMARK  status: ('A' for Active; 'I' for Inactive)
REMARK    1  A    between atoms: C_1  and  C_2
REMARK    2  A    between atoms: C_2  and  C_3
REMARK    3  A    between atoms: C_3  and  O_4
REMARK    4  A    between atoms: O_4  and  C_5
REMARK    5  A    between atoms: C_11  and  C_12
REMARK    6  A    between atoms: C_14  and  C_15
REMARK    7  A    between atoms: N_17  and  C_18
REMARK    8  A    between atoms: C_21  and  O_22
REMARK    9  A    between atoms: O_22  and  C_23
REMARK   10  A    between atoms: C_24  and  O_25
REMARK   11  A    between atoms: O_25  and  C_26
REMARK                            x       y       z     vdW  Elec       q    Type
REMARK                         _______ _______ _______ _____ _____    ______ ____
ROOT
ATOM      1  C   UNL     1       2.511   7.177  18.468  0.00  0.00    +0.000 A 
ATOM      2  C   UNL     1       2.230   7.378  19.848  0.00  0.00    +0.000 A 
ATOM      3  C   UNL     1       1.567   8.582  19.935  0.00  0.00    +0.000 A 
ATOM      4  N   UNL     1       1.510   9.040  18.649  0.00  0.00    +0.000 N 
ATOM      5  N   UNL     1       2.085   8.230  17.750  0.00  0.00    +0.000 NA
ATOM      6  H   UNL     1       1.089   9.910  18.334  0.00  0.00    +0.000 HD
ENDROOT
BRANCH   1  13
ATOM      7  C   UNL     1       2.656   4.745  17.790  0.00  0.00    +0.000 A 
ATOM      8  C   UNL     1       3.398   3.711  17.195  0.00  0.00    +0.000 A 
ATOM      9  C   UNL     1       4.656   3.959  16.646  0.00  0.00    +0.000 A 
ATOM     10  C   UNL     1       5.174   5.243  16.676  0.00  0.00    +0.000 A 
ATOM     11  F   UNL     1       6.381   5.477  16.145  0.00  0.00    +0.000 F 
ATOM     12  C   UNL     1       4.463   6.283  17.255  0.00  0.00    +0.000 A 
ATOM     13  C   UNL     1       3.201   6.050  17.833  0.00  0.00    +0.000 A 
BRANCH   7  14
ATOM     14  O   UNL     1       1.402   4.557  18.327  0.00  0.00    +0.000 OA
BRANCH  14  15
ATOM     15  C   UNL     1       1.228   3.433  19.187  0.00  0.00    +0.000 C 
BRANCH  15  17
ATOM     16  C   UNL     1       1.498   2.709  21.565  0.00  0.00    +0.000 C 
ATOM     17  C   UNL     1       1.274   3.894  20.640  0.00  0.00    +0.000 C 
ENDBRANCH  15  17
ENDBRANCH  14  15
ENDBRANCH   7  14
ENDBRANCH   1  13
BRANCH   3  18
ATOM     18  C   UNL     1       0.989   9.337  21.016  0.00  0.00    +0.000 C 
ATOM     19  O   UNL     1       1.019   8.882  22.154  0.00  0.00    +0.000 OA
ATOM     20  N   UNL     1       0.404  10.534  20.645  0.00  0.00    +0.000 N 
ATOM     21  H   UNL     1       0.316  10.716  19.654  0.00  0.00    +0.000 HD
BRANCH  20  22
ATOM     22  C   UNL     1      -0.185  11.477  21.516  0.00  0.00    +0.000 A 
ATOM     23  C   UNL     1      -1.187  11.143  22.421  0.00  0.00    +0.000 A 
ATOM     24  C   UNL     1      -1.735  12.115  23.247  0.00  0.00    +0.000 A 
ATOM     25  C   UNL     1      -1.308  13.447  23.189  0.00  0.00    +0.000 A 
ATOM     26  C   UNL     1      -0.299  13.805  22.277  0.00  0.00    +0.000 A 
ATOM     27  C   UNL     1       0.271  12.803  21.467  0.00  0.00    +0.000 A 
BRANCH  25  28
ATOM     28  O   UNL     1      -1.983  14.231  24.087  0.00  0.00    +0.000 OA
ATOM     29  C   UNL     1      -3.263  14.732  23.744  0.00  0.00    +0.000 C 
ENDBRANCH  25  28
BRANCH  26  30
ATOM     30  O   UNL     1       0.068  15.121  22.211  0.00  0.00    +0.000 OA
ATOM     31  C   UNL     1      -0.397  15.912  21.129  0.00  0.00    +0.000 C 
ENDBRANCH  26  30
ENDBRANCH  20  22
ENDBRANCH   3  18
TORSDOF 8
ENDMDL
MODEL 8
REMARK VINA RESULT:      -7.1      6.558      8.167
REMARK  Name = 
REMARK  11 active torsions:
REMARK  status: ('A' for Active; 'I' for Inactive)
REMARK    1  A    between atoms: C_1  and  C_2
REMARK    2  A    between atoms: C_2  and  C_3
REMARK    3  A    between atoms: C_3  and  O_4
REMARK    4  A    between atoms: O_4  and  C_5
REMARK    5  A    between atoms: C_11  and  C_12
REMARK    6  A    between atoms: C_14  and  C_15
REMARK    7  A    between atoms: N_17  and  C_18
REMARK    8  A    between atoms: C_21  and  O_22
REMARK    9  A    between atoms: O_22  and  C_23
REMARK   10  A    between atoms: C_24  and  O_25
REMARK   11  A    between atoms: O_25  and  C_26
REMARK                            x       y       z     vdW  Elec       q    Type
REMARK                         _______ _______ _______ _____ _____    ______ ____
ROOT
ATOM      1  C   UNL     1       2.878   6.852  18.649  0.00  0.00    +0.000 A 
ATOM      2  C   UNL     1       2.213   8.041  18.241  0.00  0.00    +0.000 A 
ATOM      3  C   UNL     1       1.596   8.542  19.365  0.00  0.00    +0.000 A 
ATOM      4  N   UNL     1       1.890   7.644  20.351  0.00  0.00    +0.000 N 
ATOM      5  N   UNL     1       2.641   6.610  19.949  0.00  0.00    +0.000 NA
ATOM      6  H   UNL     1       1.594   7.693  21.323  0.00  0.00    +0.000 HD
ENDROOT
BRANCH   1  13
ATOM      7  C   UNL     1       3.251   4.632  17.496  0.00  0.00    +0.000 A 
ATOM      8  C   UNL     1       4.101   3.801  16.747  0.00  0.00    +0.000 A 
ATOM      9  C   UNL     1       5.357   4.246  16.337  0.00  0.00    +0.000 A 
ATOM     10  C   UNL     1       5.766   5.529  16.660  0.00  0.00    +0.000 A 
ATOM     11  F   UNL     1       6.972   5.954  16.262  0.00  0.00    +0.000 F 
ATOM     12  C   UNL     1       4.947   6.372  17.397  0.00  0.00    +0.000 A 
ATOM     13  C   UNL     1       3.685   5.934  17.837  0.00  0.00    +0.000 A 
BRANCH   7  14
ATOM     14  O   UNL     1       1.995   4.248  17.907  0.00  0.00    +0.000 OA
BRANCH  14  15
ATOM     15  C   UNL     1       1.812   2.870  18.230  0.00  0.00    +0.000 C 
BRANCH  15  17
ATOM     16  C   UNL     1       1.059   3.474  20.536  0.00  0.00    +0.000 C 
ATOM     17  C   UNL     1       2.053   2.663  19.721  0.00  0.00    +0.000 C 
ENDBRANCH  15  17
ENDBRANCH  14  15
ENDBRANCH   7  14
ENDBRANCH   1  13
BRANCH   3  18
ATOM     18  C   UNL     1       0.801   9.711  19.641  0.00  0.00    +0.000 C 
ATOM     19  O   UNL     1       0.032  10.134  18.786  0.00  0.00    +0.000 OA
ATOM     20  N   UNL     1       1.017  10.284  20.881  0.00  0.00    +0.000 N 
ATOM     21  H   UNL     1       1.787   9.923  21.427  0.00  0.00    +0.000 HD
BRANCH  20  22
ATOM     22  C   UNL     1       0.335  11.401  21.411  0.00  0.00    +0.000 A 
ATOM     23  C   UNL     1       0.759  12.710  21.205  0.00  0.00    +0.000 A 
ATOM     24  C   UNL     1       0.052  13.769  21.759  0.00  0.00    +0.000 A 
ATOM     25  C   UNL     1      -1.091  13.555  22.537  0.00  0.00    +0.000 A 
ATOM     26  C   UNL     1      -1.534  12.239  22.760  0.00  0.00    +0.000 A 
ATOM     27  C   UNL     1      -0.825  11.175  22.168  0.00  0.00    +0.000 A 
BRANCH  25  28
ATOM     28  O   UNL     1      -1.625  14.736  22.981  0.00  0.00    +0.000 OA
ATOM     29  C   UNL     1      -1.178  15.280  24.210  0.00  0.00    +0.000 C 
ENDBRANCH  25  28
BRANCH  26  30
ATOM     30  O   UNL     1      -2.628  12.057  23.561  0.00  0.00    +0.000 OA
ATOM     31  C   UNL     1      -3.891  12.532  23.120  0.00  0.00    +0.000 C 
ENDBRANCH  26  30
ENDBRANCH  20  22
ENDBRANCH   3  18
TORSDOF 8
ENDMDL
MODEL 9
REMARK VINA RESULT:      -7.0      7.269     10.725
REMARK  Name = 
REMARK  11 active torsions:
REMARK  status: ('A' for Active; 'I' for Inactive)
REMARK    1  A    between atoms: C_1  and  C_2
REMARK    2  A    between atoms: C_2  and  C_3
REMARK    3  A    between atoms: C_3  and  O_4
REMARK    4  A    between atoms: O_4  and  C_5
REMARK    5  A    between atoms: C_11  and  C_12
REMARK    6  A    between atoms: C_14  and  C_15
REMARK    7  A    between atoms: N_17  and  C_18
REMARK    8  A    between atoms: C_21  and  O_22
REMARK    9  A    between atoms: O_22  and  C_23
REMARK   10  A    between atoms: C_24  and  O_25
REMARK   11  A    between atoms: O_25  and  C_26
REMARK                            x       y       z     vdW  Elec       q    Type
REMARK                         _______ _______ _______ _____ _____    ______ ____
ROOT
ATOM      1  C   UNL     1       0.061  10.003  21.558  0.00  0.00    +0.000 A 
ATOM      2  C   UNL     1       0.238   9.083  20.488  0.00  0.00    +0.000 A 
ATOM      3  C   UNL     1       1.301   8.282  20.840  0.00  0.00    +0.000 A 
ATOM      4  N   UNL     1       1.711   8.764  22.051  0.00  0.00    +0.000 N 
ATOM      5  N   UNL     1       1.000   9.807  22.499  0.00  0.00    +0.000 NA
ATOM      6  H   UNL     1       2.482   8.411  22.613  0.00  0.00    +0.000 HD
ENDROOT
BRANCH   1  13
ATOM      7  C   UNL     1      -1.259  11.947  20.623  0.00  0.00    +0.000 A 
ATOM      8  C   UNL     1      -2.197  12.971  20.840  0.00  0.00    +0.000 A 
ATOM      9  C   UNL     1      -2.810  13.127  22.083  0.00  0.00    +0.000 A 
ATOM     10  C   UNL     1      -2.500  12.255  23.113  0.00  0.00    +0.000 A 
ATOM     11  F   UNL     1      -3.092  12.407  24.304  0.00  0.00    +0.000 F 
ATOM     12  C   UNL     1      -1.578  11.234  22.927  0.00  0.00    +0.000 A 
ATOM     13  C   UNL     1      -0.935  11.073  21.687  0.00  0.00    +0.000 A 
BRANCH   7  14
ATOM     14  O   UNL     1      -0.643  11.737  19.411  0.00  0.00    +0.000 OA
BRANCH  14  15
ATOM     15  C   UNL     1      -1.475  11.746  18.251  0.00  0.00    +0.000 C 
BRANCH  15  17
ATOM     16  C   UNL     1      -2.348  10.106  16.580  0.00  0.00    +0.000 C 
ATOM     17  C   UNL     1      -2.086  10.363  18.054  0.00  0.00    +0.000 C 
ENDBRANCH  15  17
ENDBRANCH  14  15
ENDBRANCH   7  14
ENDBRANCH   1  13
BRANCH   3  18
ATOM     18  C   UNL     1       1.961   7.159  20.227  0.00  0.00    +0.000 C 
ATOM     19  O   UNL     1       1.930   6.065  20.779  0.00  0.00    +0.000 OA
ATOM     20  N   UNL     1       2.620   7.443  19.044  0.00  0.00    +0.000 N 
ATOM     21  H   UNL     1       2.693   8.416  18.781  0.00  0.00    +0.000 HD
BRANCH  20  22
ATOM     22  C   UNL     1       3.299   6.513  18.226  0.00  0.00    +0.000 A 
ATOM     23  C   UNL     1       4.337   6.876  17.375  0.00  0.00    +0.000 A 
ATOM     24  C   UNL     1       4.962   5.918  16.588  0.00  0.00    +0.000 A 
ATOM     25  C   UNL     1       4.566   4.576  16.620  0.00  0.00    +0.000 A 
ATOM     26  C   UNL     1       3.515   4.190  17.471  0.00  0.00    +0.000 A 
ATOM     27  C   UNL     1       2.910   5.166  18.288  0.00  0.00    +0.000 A 
BRANCH  25  28
ATOM     28  O   UNL     1       5.314   3.810  15.766  0.00  0.00    +0.000 OA
ATOM     29  C   UNL     1       6.515   4.340  15.232  0.00  0.00    +0.000 C 
ENDBRANCH  25  28
BRANCH  26  30
ATOM     30  O   UNL     1       3.120   2.881  17.450  0.00  0.00    +0.000 OA
ATOM     31  C   UNL     1       1.947   2.504  18.155  0.00  0.00    +0.000 C 
ENDBRANCH  26  30
ENDBRANCH  20  22
ENDBRANCH   3  18
TORSDOF 8
ENDMDL
