MODEL 1
REMARK VINA RESULT:      -7.1      0.000      0.000
REMARK  Name = 
REMARK  4 active torsions:
REMARK  status: ('A' for Active; 'I' for Inactive)
REMARK    1  A    between atoms: C_1  and  C_2
REMARK    2  A    between atoms: C_4  and  C_5
REMARK    3  A    between atoms: C_5  and  C_6
REMARK    4  A    between atoms: C_11  and  C_12
REMARK                            x       y       z     vdW  Elec       q    Type
REMARK                         _______ _______ _______ _____ _____    ______ ____
ROOT
ATOM      1  C   UNL     1       8.072   7.787  18.336  0.00  0.00    +0.000 C 
ATOM      2  O   UNL     1       9.040   7.514  19.055  0.00  0.00    +0.000 OA
ATOM      3  N   UNL     1       7.176   6.805  17.909  0.00  0.00    +0.000 N 
ATOM      4  C   UNL     1       7.198   5.521  18.606  0.00  0.00    +0.000 C 
ATOM      5  C   UNL     1       6.747   4.354  17.730  0.00  0.00    +0.000 C 
ATOM      6  C   UNL     1       5.432   4.627  16.991  0.00  0.00    +0.000 C 
ATOM      7  C   UNL     1       5.538   5.963  16.247  0.00  0.00    +0.000 C 
ATOM      8  C   UNL     1       5.962   7.115  17.157  0.00  0.00    +0.000 C 
ENDROOT
BRANCH   6   9
ATOM      9  C   UNL     1       4.197   4.542  17.901  0.00  0.00    +0.000 A 
ATOM     10  C   UNL     1       3.087   5.526  17.645  0.00  0.00    +0.000 A 
ATOM     11  C   UNL     1       2.021   5.430  18.453  0.00  0.00    +0.000 A 
ATOM     12  N   UNL     1       1.986   4.475  19.462  0.00  0.00    +0.000 N 
ATOM     13  N   UNL     1       0.998   4.241  20.359  0.00  0.00    +0.000 NA
ATOM     14  C   UNL     1       1.464   3.245  21.114  0.00  0.00    +0.000 A 
ATOM     15  C   UNL     1       2.745   2.820  20.726  0.00  0.00    +0.000 A 
ATOM     16  C   UNL     1       3.067   3.612  19.649  0.00  0.00    +0.000 A 
ATOM     17  N   UNL     1       4.175   3.652  18.854  0.00  0.00    +0.000 NA
ENDBRANCH   6   9
BRANCH   1  18
ATOM     18  C   UNL     1       7.841   9.232  17.916  0.00  0.00    +0.000 C 
BRANCH  18  22
ATOM     19  C   UNL     1      11.566  12.483  17.636  0.00  0.00    +0.000 C 
ATOM     20  C   UNL     1      10.524  11.623  18.261  0.00  0.00    +0.000 A 
ATOM     21  N   UNL     1       9.722  10.820  17.596  0.00  0.00    +0.000 NA
ATOM     22  C   UNL     1       8.869  10.158  18.472  0.00  0.00    +0.000 A 
ATOM     23  C   UNL     1       9.048  10.490  19.803  0.00  0.00    +0.000 A 
ATOM     24  S   UNL     1      10.303  11.643  19.965  0.00  0.00    +0.000 S 
ENDBRANCH  18  22
ENDBRANCH   1  18
TORSDOF 3
ENDMDL
MODEL 2
REMARK VINA RESULT:      -7.1      6.323      8.963
REMARK  Name = 
REMARK  4 active torsions:
REMARK  status: ('A' for Active; 'I' for Inactive)
REMARK    1  A    between atoms: C_1  and  C_2
REMARK    2  A    between atoms: C_4  and  C_5
REMARK    3  A    between atoms: C_5  and  C_6
REMARK    4  A    between atoms: C_11  and  C_12
REMARK                            x       y       z     vdW  Elec       q    Type
REMARK                         _______ _______ _______ _____ _____    ______ ____
ROOT
ATOM      1  C   UNL     1       2.259   7.808  18.918  0.00  0.00    +0.000 C 
ATOM      2  O   UNL     1       2.925   7.638  17.891  0.00  0.00    +0.000 OA
ATOM      3  N   UNL     1       1.666   9.037  19.214  0.00  0.00    +0.000 N 
ATOM      4  C   UNL     1       1.548  10.009  18.129  0.00  0.00    +0.000 C 
ATOM      5  C   UNL     1       1.547  11.456  18.615  0.00  0.00    +0.000 C 
ATOM      6  C   UNL     1       0.567  11.704  19.767  0.00  0.00    +0.000 C 
ATOM      7  C   UNL     1       0.815  10.673  20.873  0.00  0.00    +0.000 C 
ATOM      8  C   UNL     1       0.781   9.235  20.359  0.00  0.00    +0.000 C 
ENDROOT
BRANCH   6   9
ATOM      9  C   UNL     1      -0.901  11.758  19.313  0.00  0.00    +0.000 A 
ATOM     10  C   UNL     1      -1.905  12.284  20.302  0.00  0.00    +0.000 A 
ATOM     11  C   UNL     1      -3.178  12.320  19.882  0.00  0.00    +0.000 A 
ATOM     12  N   UNL     1      -3.511  11.877  18.607  0.00  0.00    +0.000 N 
ATOM     13  N   UNL     1      -4.734  11.845  18.025  0.00  0.00    +0.000 NA
ATOM     14  C   UNL     1      -4.515  11.318  16.821  0.00  0.00    +0.000 A 
ATOM     15  C   UNL     1      -3.164  11.003  16.600  0.00  0.00    +0.000 A 
ATOM     16  C   UNL     1      -2.523  11.382  17.756  0.00  0.00    +0.000 A 
ATOM     17  N   UNL     1      -1.208  11.329  18.121  0.00  0.00    +0.000 NA
ENDBRANCH   6   9
BRANCH   1  18
ATOM     18  C   UNL     1       2.068   6.645  19.883  0.00  0.00    +0.000 C 
BRANCH  18  22
ATOM     19  C   UNL     1       2.619   2.183  17.806  0.00  0.00    +0.000 C 
ATOM     20  C   UNL     1       3.001   3.442  18.504  0.00  0.00    +0.000 A 
ATOM     21  N   UNL     1       2.160   4.399  18.831  0.00  0.00    +0.000 NA
ATOM     22  C   UNL     1       2.833   5.433  19.471  0.00  0.00    +0.000 A 
ATOM     23  C   UNL     1       4.194   5.229  19.609  0.00  0.00    +0.000 A 
ATOM     24  S   UNL     1       4.641   3.722  18.932  0.00  0.00    +0.000 S 
ENDBRANCH  18  22
ENDBRANCH   1  18
TORSDOF 3
ENDMDL
MODEL 3
REMARK VINA RESULT:      -7.1      6.203      8.986
REMARK  Name = 
REMARK  4 active torsions:
REMARK  status: ('A' for Active; 'I' for Inactive)
REMARK    1  A    between atoms: C_1  and  C_2
REMARK    2  A    between atoms: C_4  and  C_5
REMARK    3  A    between atoms: C_5  and  C_6
REMARK    4  A    between atoms: C_11  and  C_12
REMARK                            x       y       z     vdW  Elec       q    Type
REMARK                         _______ _______ _______ _____ _____    ______ ____
ROOT
ATOM      1  C   UNL     1       2.208   7.114  19.269  0.00  0.00    +0.000 C 
ATOM      2  O   UNL     1       2.873   6.715  18.307  0.00  0.00    +0.000 OA
ATOM      3  N   UNL     1       1.717   8.420  19.331  0.00  0.00    +0.000 N 
ATOM      4  C   UNL     1       1.701   9.195  18.093  0.00  0.00    +0.000 C 
ATOM      5  C   UNL     1       1.815  10.700  18.324  0.00  0.00    +0.000 C 
ATOM      6  C   UNL     1       0.841  11.223  19.386  0.00  0.00    +0.000 C 
ATOM      7  C   UNL     1       0.982  10.381  20.659  0.00  0.00    +0.000 C 
ATOM      8  C   UNL     1       0.833   8.884  20.398  0.00  0.00    +0.000 C 
ENDROOT
BRANCH   6   9
ATOM      9  C   UNL     1      -0.608  11.317  18.884  0.00  0.00    +0.000 A 
ATOM     10  C   UNL     1      -1.612  11.957  19.804  0.00  0.00    +0.000 A 
ATOM     11  C   UNL     1      -2.869  12.026  19.343  0.00  0.00    +0.000 A 
ATOM     12  N   UNL     1      -3.189  11.514  18.091  0.00  0.00    +0.000 N 
ATOM     13  N   UNL     1      -4.396  11.501  17.474  0.00  0.00    +0.000 NA
ATOM     14  C   UNL     1      -4.170  10.882  16.315  0.00  0.00    +0.000 A 
ATOM     15  C   UNL     1      -2.831  10.489  16.159  0.00  0.00    +0.000 A 
ATOM     16  C   UNL     1      -2.204  10.914  17.306  0.00  0.00    +0.000 A 
ATOM     17  N   UNL     1      -0.904  10.823  17.714  0.00  0.00    +0.000 NA
ENDBRANCH   6   9
BRANCH   1  18
ATOM     18  C   UNL     1       1.902   6.155  20.412  0.00  0.00    +0.000 C 
BRANCH  18  22
ATOM     19  C   UNL     1       4.457   1.957  19.798  0.00  0.00    +0.000 C 
ATOM     20  C   UNL     1       3.288   2.879  19.792  0.00  0.00    +0.000 A 
ATOM     21  N   UNL     1       3.336   4.148  20.138  0.00  0.00    +0.000 NA
ATOM     22  C   UNL     1       2.079   4.727  20.019  0.00  0.00    +0.000 A 
ATOM     23  C   UNL     1       1.090   3.863  19.582  0.00  0.00    +0.000 A 
ATOM     24  S   UNL     1       1.742   2.303  19.313  0.00  0.00    +0.000 S 
ENDBRANCH  18  22
ENDBRANCH   1  18
TORSDOF 3
ENDMDL
MODEL 4
REMARK VINA RESULT:      -7.0      0.852      1.181
REMARK  Name = 
REMARK  4 active torsions:
REMARK  status: ('A' for Active; 'I' for Inactive)
REMARK    1  A    between atoms: C_1  and  C_2
REMARK    2  A    between atoms: C_4  and  C_5
REMARK    3  A    between atoms: C_5  and  C_6
REMARK    4  A    between atoms: C_11  and  C_12
REMARK                            x       y       z     vdW  Elec       q    Type
REMARK                         _______ _______ _______ _____ _____    ______ ____
ROOT
ATOM      1  C   UNL     1       8.150   7.987  18.357  0.00  0.00    +0.000 C 
ATOM      2  O   UNL     1       9.094   7.786  19.128  0.00  0.00    +0.000 OA
ATOM      3  N   UNL     1       7.307   6.954  17.943  0.00  0.00    +0.000 N 
ATOM      4  C   UNL     1       7.341   5.707  18.705  0.00  0.00    +0.000 C 
ATOM      5  C   UNL     1       6.969   4.483  17.873  0.00  0.00    +0.000 C 
ATOM      6  C   UNL     1       5.679   4.671  17.066  0.00  0.00    +0.000 C 
ATOM      7  C   UNL     1       5.772   5.972  16.260  0.00  0.00    +0.000 C 
ATOM      8  C   UNL     1       6.117   7.181  17.126  0.00  0.00    +0.000 C 
ENDROOT
BRANCH   6   9
ATOM      9  C   UNL     1       4.409   4.587  17.926  0.00  0.00    +0.000 A 
ATOM     10  C   UNL     1       3.285   5.527  17.584  0.00  0.00    +0.000 A 
ATOM     11  C   UNL     1       2.188   5.434  18.349  0.00  0.00    +0.000 A 
ATOM     12  N   UNL     1       2.136   4.519  19.395  0.00  0.00    +0.000 N 
ATOM     13  N   UNL     1       1.117   4.293  20.259  0.00  0.00    +0.000 NA
ATOM     14  C   UNL     1       1.576   3.343  21.073  0.00  0.00    +0.000 A 
ATOM     15  C   UNL     1       2.884   2.939  20.757  0.00  0.00    +0.000 A 
ATOM     16  C   UNL     1       3.231   3.696  19.663  0.00  0.00    +0.000 A 
ATOM     17  N   UNL     1       4.371   3.736  18.914  0.00  0.00    +0.000 NA
ENDBRANCH   6   9
BRANCH   1  18
ATOM     18  C   UNL     1       7.888   9.400  17.853  0.00  0.00    +0.000 C 
BRANCH  18  22
ATOM     19  C   UNL     1       9.976  12.244  21.329  0.00  0.00    +0.000 C 
ATOM     20  C   UNL     1       9.770  11.616  19.995  0.00  0.00    +0.000 A 
ATOM     21  N   UNL     1       8.789  10.788  19.703  0.00  0.00    +0.000 NA
ATOM     22  C   UNL     1       8.880  10.384  18.377  0.00  0.00    +0.000 A 
ATOM     23  C   UNL     1       9.951  10.922  17.687  0.00  0.00    +0.000 A 
ATOM     24  S   UNL     1      10.859  11.952  18.710  0.00  0.00    +0.000 S 
ENDBRANCH  18  22
ENDBRANCH   1  18
TORSDOF 3
ENDMDL
MODEL 5
REMARK VINA RESULT:      -6.9      4.286      6.152
REMARK  Name = 
REMARK  4 active torsions:
REMARK  status: ('A' for Active; 'I' for Inactive)
REMARK    1  A    between atoms: C_1  and  C_2
REMARK    2  A    between atoms: C_4  and  C_5
REMARK    3  A    between atoms: C_5  and  C_6
REMARK    4  A    between atoms: C_11  and  C_12
REMARK                            x       y       z     vdW  Elec       q    Type
REMARK                         _______ _______ _______ _____ _____    ______ ____
ROOT
ATOM      1  C   UNL     1       5.895   5.316  18.643  0.00  0.00    +0.000 C 
ATOM      2  O   UNL     1       6.304   4.477  19.452  0.00  0.00    +0.000 OA
ATOM      3  N   UNL     1       4.570   5.755  18.647  0.00  0.00    +0.000 N 
ATOM      4  C   UNL     1       3.768   5.472  19.835  0.00  0.00    +0.000 C 
ATOM      5  C   UNL     1       2.275   5.350  19.539  0.00  0.00    +0.000 C 
ATOM      6  C   UNL     1       1.731   6.507  18.694  0.00  0.00    +0.000 C 
ATOM      7  C   UNL     1       2.605   6.678  17.447  0.00  0.00    +0.000 C 
ATOM      8  C   UNL     1       4.088   6.828  17.780  0.00  0.00    +0.000 C 
ENDROOT
BRANCH   6   9
ATOM      9  C   UNL     1       1.559   7.810  19.491  0.00  0.00    +0.000 A 
ATOM     10  C   UNL     1       1.449   7.689  20.987  0.00  0.00    +0.000 A 
ATOM     11  C   UNL     1       1.299   8.839  21.659  0.00  0.00    +0.000 A 
ATOM     12  N   UNL     1       1.240  10.050  20.977  0.00  0.00    +0.000 N 
ATOM     13  N   UNL     1       1.095  11.294  21.493  0.00  0.00    +0.000 NA
ATOM     14  C   UNL     1       1.077  12.095  20.428  0.00  0.00    +0.000 A 
ATOM     15  C   UNL     1       1.209  11.395  19.217  0.00  0.00    +0.000 A 
ATOM     16  C   UNL     1       1.328  10.076  19.585  0.00  0.00    +0.000 A 
ATOM     17  N   UNL     1       1.492   8.941  18.845  0.00  0.00    +0.000 NA
ENDBRANCH   6   9
BRANCH   1  18
ATOM     18  C   UNL     1       6.864   5.900  17.623  0.00  0.00    +0.000 C 
BRANCH  18  22
ATOM     19  C   UNL     1       7.953   5.258  12.834  0.00  0.00    +0.000 C 
ATOM     20  C   UNL     1       7.275   5.036  14.141  0.00  0.00    +0.000 A 
ATOM     21  N   UNL     1       7.513   5.732  15.233  0.00  0.00    +0.000 NA
ATOM     22  C   UNL     1       6.716   5.276  16.276  0.00  0.00    +0.000 A 
ATOM     23  C   UNL     1       5.884   4.223  15.942  0.00  0.00    +0.000 A 
ATOM     24  S   UNL     1       6.098   3.796  14.298  0.00  0.00    +0.000 S 
ENDBRANCH  18  22
ENDBRANCH   1  18
TORSDOF 3
ENDMDL
MODEL 6
REMARK VINA RESULT:      -6.8      6.411      9.141
REMARK  Name = 
REMARK  4 active torsions:
REMARK  status: ('A' for Active; 'I' for Inactive)
REMARK    1  A    between atoms: C_1  and  C_2
REMARK    2  A    between atoms: C_4  and  C_5
REMARK    3  A    between atoms: C_5  and  C_6
REMARK    4  A    between atoms: C_11  and  C_12
REMARK                            x       y       z     vdW  Elec       q    Type
REMARK                         _______ _______ _______ _____ _____    ______ ____
ROOT
ATOM      1  C   UNL     1       2.174   7.325  19.534  0.00  0.00    +0.000 C 
ATOM      2  O   UNL     1       2.860   6.938  18.582  0.00  0.00    +0.000 OA
ATOM      3  N   UNL     1       1.568   8.583  19.539  0.00  0.00    +0.000 N 
ATOM      4  C   UNL     1       1.464   9.288  18.263  0.00  0.00    +0.000 C 
ATOM      5  C   UNL     1       1.444  10.807  18.415  0.00  0.00    +0.000 C 
ATOM      6  C   UNL     1       0.441  11.294  19.467  0.00  0.00    +0.000 C 
ATOM      7  C   UNL     1       0.675  10.537  20.778  0.00  0.00    +0.000 C 
ATOM      8  C   UNL     1       0.659   9.020  20.597  0.00  0.00    +0.000 C 
ENDROOT
BRANCH   6   9
ATOM      9  C   UNL     1      -1.018  11.231  18.988  0.00  0.00    +0.000 A 
ATOM     10  C   UNL     1      -1.308  10.373  17.786  0.00  0.00    +0.000 A 
ATOM     11  C   UNL     1      -2.588  10.335  17.388  0.00  0.00    +0.000 A 
ATOM     12  N   UNL     1      -3.557  11.068  18.063  0.00  0.00    +0.000 N 
ATOM     13  N   UNL     1      -4.884  11.144  17.800  0.00  0.00    +0.000 NA
ATOM     14  C   UNL     1      -5.357  11.989  18.716  0.00  0.00    +0.000 A 
ATOM     15  C   UNL     1      -4.359  12.471  19.580  0.00  0.00    +0.000 A 
ATOM     16  C   UNL     1      -3.203  11.859  19.157  0.00  0.00    +0.000 A 
ATOM     17  N   UNL     1      -1.920  11.931  19.618  0.00  0.00    +0.000 NA
ENDBRANCH   6   9
BRANCH   1  18
ATOM     18  C   UNL     1       1.972   6.403  20.730  0.00  0.00    +0.000 C 
BRANCH  18  22
ATOM     19  C   UNL     1       4.319   2.146  19.785  0.00  0.00    +0.000 C 
ATOM     20  C   UNL     1       3.180   3.087  19.967  0.00  0.00    +0.000 A 
ATOM     21  N   UNL     1       3.307   4.365  20.257  0.00  0.00    +0.000 NA
ATOM     22  C   UNL     1       2.056   4.961  20.357  0.00  0.00    +0.000 A 
ATOM     23  C   UNL     1       0.994   4.101  20.142  0.00  0.00    +0.000 A 
ATOM     24  S   UNL     1       1.566   2.524  19.806  0.00  0.00    +0.000 S 
ENDBRANCH  18  22
ENDBRANCH   1  18
TORSDOF 3
ENDMDL
MODEL 7
REMARK VINA RESULT:      -6.8      4.354      7.111
REMARK  Name = 
REMARK  4 active torsions:
REMARK  status: ('A' for Active; 'I' for Inactive)
REMARK    1  A    between atoms: C_1  and  C_2
REMARK    2  A    between atoms: C_4  and  C_5
REMARK    3  A    between atoms: C_5  and  C_6
REMARK    4  A    between atoms: C_11  and  C_12
REMARK                            x       y       z     vdW  Elec       q    Type
REMARK                         _______ _______ _______ _____ _____    ______ ____
ROOT
ATOM      1  C   UNL     1       2.716   6.553  18.899  0.00  0.00    +0.000 C 
ATOM      2  O   UNL     1       2.137   5.754  19.643  0.00  0.00    +0.000 OA
ATOM      3  N   UNL     1       3.983   6.286  18.378  0.00  0.00    +0.000 N 
ATOM      4  C   UNL     1       4.462   4.906  18.439  0.00  0.00    +0.000 C 
ATOM      5  C   UNL     1       5.983   4.800  18.504  0.00  0.00    +0.000 C 
ATOM      6  C   UNL     1       6.693   5.648  17.442  0.00  0.00    +0.000 C 
ATOM      7  C   UNL     1       6.163   7.084  17.505  0.00  0.00    +0.000 C 
ATOM      8  C   UNL     1       4.641   7.158  17.407  0.00  0.00    +0.000 C 
ENDROOT
BRANCH   6   9
ATOM      9  C   UNL     1       6.619   5.040  16.033  0.00  0.00    +0.000 A 
ATOM     10  C   UNL     1       5.726   3.843  15.848  0.00  0.00    +0.000 A 
ATOM     11  C   UNL     1       5.680   3.332  14.609  0.00  0.00    +0.000 A 
ATOM     12  N   UNL     1       6.435   3.894  13.587  0.00  0.00    +0.000 N 
ATOM     13  N   UNL     1       6.506   3.510  12.290  0.00  0.00    +0.000 NA
ATOM     14  C   UNL     1       7.379   4.354  11.740  0.00  0.00    +0.000 A 
ATOM     15  C   UNL     1       7.884   5.290  12.658  0.00  0.00    +0.000 A 
ATOM     16  C   UNL     1       7.257   4.992  13.844  0.00  0.00    +0.000 A 
ATOM     17  N   UNL     1       7.340   5.565  15.081  0.00  0.00    +0.000 NA
ENDBRANCH   6   9
BRANCH   1  18
ATOM     18  C   UNL     1       2.025   7.860  18.529  0.00  0.00    +0.000 C 
BRANCH  18  22
ATOM     19  C   UNL     1      -0.136  11.644  20.881  0.00  0.00    +0.000 C 
ATOM     20  C   UNL     1       0.530  10.324  20.702  0.00  0.00    +0.000 A 
ATOM     21  N   UNL     1       0.950   9.850  19.549  0.00  0.00    +0.000 NA
ATOM     22  C   UNL     1       1.526   8.598  19.724  0.00  0.00    +0.000 A 
ATOM     23  C   UNL     1       1.521   8.145  21.032  0.00  0.00    +0.000 A 
ATOM     24  S   UNL     1       0.788   9.302  22.058  0.00  0.00    +0.000 S 
ENDBRANCH  18  22
ENDBRANCH   1  18
TORSDOF 3
ENDMDL
MODEL 8
REMARK VINA RESULT:      -6.8      4.390      7.222
REMARK  Name = 
REMARK  4 active torsions:
REMARK  status: ('A' for Active; 'I' for Inactive)
REMARK    1  A    between atoms: C_1  and  C_2
REMARK    2  A    between atoms: C_4  and  C_5
REMARK    3  A    between atoms: C_5  and  C_6
REMARK    4  A    between atoms: C_11  and  C_12
REMARK                            x       y       z     vdW  Elec       q    Type
REMARK                         _______ _______ _______ _____ _____    ______ ____
ROOT
ATOM      1  C   UNL     1       2.720   7.080  18.611  0.00  0.00    +0.000 C 
ATOM      2  O   UNL     1       2.009   6.375  19.336  0.00  0.00    +0.000 OA
ATOM      3  N   UNL     1       3.975   6.652  18.173  0.00  0.00    +0.000 N 
ATOM      4  C   UNL     1       4.283   5.228  18.293  0.00  0.00    +0.000 C 
ATOM      5  C   UNL     1       5.775   4.947  18.452  0.00  0.00    +0.000 C 
ATOM      6  C   UNL     1       6.640   5.675  17.417  0.00  0.00    +0.000 C 
ATOM      7  C   UNL     1       6.280   7.165  17.415  0.00  0.00    +0.000 C 
ATOM      8  C   UNL     1       4.785   7.412  17.225  0.00  0.00    +0.000 C 
ENDROOT
BRANCH   6   9
ATOM      9  C   UNL     1       6.575   5.040  16.019  0.00  0.00    +0.000 A 
ATOM     10  C   UNL     1       5.690   3.834  15.854  0.00  0.00    +0.000 A 
ATOM     11  C   UNL     1       5.652   3.298  14.626  0.00  0.00    +0.000 A 
ATOM     12  N   UNL     1       6.408   3.845  13.596  0.00  0.00    +0.000 N 
ATOM     13  N   UNL     1       6.487   3.435  12.306  0.00  0.00    +0.000 NA
ATOM     14  C   UNL     1       7.358   4.273  11.744  0.00  0.00    +0.000 A 
ATOM     15  C   UNL     1       7.854   5.230  12.645  0.00  0.00    +0.000 A 
ATOM     16  C   UNL     1       7.223   4.952  13.835  0.00  0.00    +0.000 A 
ATOM     17  N   UNL     1       7.297   5.549  15.060  0.00  0.00    +0.000 NA
ENDBRANCH   6   9
BRANCH   1  18
ATOM     18  C   UNL     1       2.211   8.446  18.170  0.00  0.00    +0.000 C 
BRANCH  18  22
ATOM     19  C   UNL     1       0.513   9.329  22.738  0.00  0.00    +0.000 C 
ATOM     20  C   UNL     1       0.610   9.424  21.255  0.00  0.00    +0.000 A 
ATOM     21  N   UNL     1       1.469   8.752  20.519  0.00  0.00    +0.000 NA
ATOM     22  C   UNL     1       1.299   9.065  19.176  0.00  0.00    +0.000 A 
ATOM     23  C   UNL     1       0.299   9.987  18.926  0.00  0.00    +0.000 A 
ATOM     24  S   UNL     1      -0.443  10.471  20.391  0.00  0.00    +0.000 S 
ENDBRANCH  18  22
ENDBRANCH   1  18
TORSDOF 3
ENDMDL
MODEL 9
REMARK VINA RESULT:      -6.7      1.106      1.253
REMARK  Name = 
REMARK  4 active torsions:
REMARK  status: ('A' for Active; 'I' for Inactive)
REMARK    1  A    between atoms: C_1  and  C_2
REMARK    2  A    between atoms: C_4  and  C_5
REMARK    3  A    between atoms: C_5  and  C_6
REMARK    4  A    between atoms: C_11  and  C_12
REMARK                            x       y       z     vdW  Elec       q    Type
REMARK                         _______ _______ _______ _____ _____    ______ ____
ROOT
ATOM      1  C   UNL     1       8.285   8.449  18.368  0.00  0.00    +0.000 C 
ATOM      2  O   UNL     1       9.089   8.512  19.303  0.00  0.00    +0.000 OA
ATOM      3  N   UNL     1       7.711   7.239  17.973  0.00  0.00    +0.000 N 
ATOM      4  C   UNL     1       7.803   6.113  18.900  0.00  0.00    +0.000 C 
ATOM      5  C   UNL     1       7.794   4.756  18.201  0.00  0.00    +0.000 C 
ATOM      6  C   UNL     1       6.664   4.614  17.176  0.00  0.00    +0.000 C 
ATOM      7  C   UNL     1       6.694   5.810  16.219  0.00  0.00    +0.000 C 
ATOM      8  C   UNL     1       6.672   7.152  16.949  0.00  0.00    +0.000 C 
ENDROOT
BRANCH   6   9
ATOM      9  C   UNL     1       5.286   4.394  17.820  0.00  0.00    +0.000 A 
ATOM     10  C   UNL     1       4.116   5.108  17.200  0.00  0.00    +0.000 A 
ATOM     11  C   UNL     1       2.926   4.900  17.782  0.00  0.00    +0.000 A 
ATOM     12  N   UNL     1       2.822   4.077  18.897  0.00  0.00    +0.000 N 
ATOM     13  N   UNL     1       1.710   3.758  19.602  0.00  0.00    +0.000 NA
ATOM     14  C   UNL     1       2.150   2.964  20.577  0.00  0.00    +0.000 A 
ATOM     15  C   UNL     1       3.538   2.754  20.524  0.00  0.00    +0.000 A 
ATOM     16  C   UNL     1       3.960   3.466  19.427  0.00  0.00    +0.000 A 
ATOM     17  N   UNL     1       5.197   3.630  18.874  0.00  0.00    +0.000 NA
ENDBRANCH   6   9
BRANCH   1  18
ATOM     18  C   UNL     1       7.896   9.726  17.632  0.00  0.00    +0.000 C 
BRANCH  18  22
ATOM     19  C   UNL     1      11.951  11.863  19.508  0.00  0.00    +0.000 C 
ATOM     20  C   UNL     1      10.626  11.759  18.838  0.00  0.00    +0.000 A 
ATOM     21  N   UNL     1       9.974  10.632  18.643  0.00  0.00    +0.000 NA
ATOM     22  C   UNL     1       8.770  10.879  17.994  0.00  0.00    +0.000 A 
ATOM     23  C   UNL     1       8.540  12.212  17.703  0.00  0.00    +0.000 A 
ATOM     24  S   UNL     1       9.847  13.173  18.251  0.00  0.00    +0.000 S 
ENDBRANCH  18  22
ENDBRANCH   1  18
TORSDOF 3
ENDMDL
