MODEL 1
REMARK VINA RESULT:      -8.3      0.000      0.000
REMARK  Name = 
REMARK  5 active torsions:
REMARK  status: ('A' for Active; 'I' for Inactive)
REMARK    1  A    between atoms: C_2  and  C_3
REMARK    2  A    between atoms: N_6  and  S_7
REMARK    3  A    between atoms: S_7  and  C_10
REMARK    4  A    between atoms: C_10  and  C_11
REMARK    5  A    between atoms: N_22  and  C_23
REMARK                            x       y       z     vdW  Elec       q    Type
REMARK                         _______ _______ _______ _____ _____    ______ ____
ROOT
ATOM      1  C   UNL     1       2.712   7.720  19.015  0.00  0.00    +0.000 C 
ATOM      2  C   UNL     1       2.027   8.054  20.346  0.00  0.00    +0.000 C 
ATOM      3  C   UNL     1       0.665   8.723  20.209  0.00  0.00    +0.000 C 
ATOM      4  N   UNL     1       0.808   9.893  19.305  0.00  0.00    +0.000 NA
ATOM      5  C   UNL     1       1.019   9.378  17.915  0.00  0.00    +0.000 C 
ATOM      6  C   UNL     1       2.327   8.604  17.819  0.00  0.00    +0.000 C 
ENDROOT
BRANCH   1   8
ATOM      7  O   UNL     1       1.764   5.507  19.212  0.00  0.00    +0.000 OA
ATOM      8  C   UNL     1       2.639   6.213  18.711  0.00  0.00    +0.000 C 
ATOM      9  N   UNL     1       3.638   5.684  17.880  0.00  0.00    +0.000 N 
ATOM     10  C   UNL     1       4.641   6.516  17.195  0.00  0.00    +0.000 C 
ATOM     11  C   UNL     1       5.925   5.744  16.909  0.00  0.00    +0.000 C 
ATOM     12  N   UNL     1       5.610   4.573  16.092  0.00  0.00    +0.000 N 
ATOM     13  C   UNL     1       4.667   3.634  16.723  0.00  0.00    +0.000 C 
ATOM     14  C   UNL     1       3.393   4.373  17.230  0.00  0.00    +0.000 C 
BRANCH  12  15
ATOM     15  C   UNL     1       6.117   4.437  14.818  0.00  0.00    +0.000 A 
ATOM     16  C   UNL     1       7.239   5.158  14.386  0.00  0.00    +0.000 A 
ATOM     17  C   UNL     1       7.713   5.066  13.069  0.00  0.00    +0.000 A 
ATOM     18  C   UNL     1       7.078   4.234  12.150  0.00  0.00    +0.000 A 
ATOM     19  C   UNL     1       5.978   3.493  12.562  0.00  0.00    +0.000 A 
ATOM     20 CL   UNL     1       5.179   2.453  11.447  0.00  0.00    +0.000 Cl
ATOM     21  C   UNL     1       5.508   3.592  13.873  0.00  0.00    +0.000 A 
ENDBRANCH  12  15
ENDBRANCH   1   8
BRANCH   4  22
ATOM     22  S   UNL     1      -0.490  11.038  19.370  0.00  0.00    +0.000 S 
ATOM     23  O   UNL     1      -0.487  11.583  20.713  0.00  0.00    +0.000 OA
ATOM     24  O   UNL     1      -0.329  11.891  18.212  0.00  0.00    +0.000 OA
BRANCH  22  25
ATOM     25  C   UNL     1      -1.964  10.006  19.179  0.00  0.00    +0.000 C 
BRANCH  25  26
ATOM     26  C   UNL     1      -2.652  10.341  17.876  0.00  0.00    +0.000 A 
ATOM     27  C   UNL     1      -3.719  11.255  17.851  0.00  0.00    +0.000 A 
ATOM     28  C   UNL     1      -4.353  11.579  16.649  0.00  0.00    +0.000 A 
ATOM     29  C   UNL     1      -3.929  10.996  15.457  0.00  0.00    +0.000 A 
ATOM     30  C   UNL     1      -2.871  10.085  15.464  0.00  0.00    +0.000 A 
ATOM     31  C   UNL     1      -2.237   9.760  16.669  0.00  0.00    +0.000 A 
ENDBRANCH  25  26
ENDBRANCH  22  25
ENDBRANCH   4  22
TORSDOF 5
ENDMDL
MODEL 2
REMARK VINA RESULT:      -8.0      4.984     10.937
REMARK  Name = 
REMARK  5 active torsions:
REMARK  status: ('A' for Active; 'I' for Inactive)
REMARK    1  A    between atoms: C_2  and  C_3
REMARK    2  A    between atoms: N_6  and  S_7
REMARK    3  A    between atoms: S_7  and  C_10
REMARK    4  A    between atoms: C_10  and  C_11
REMARK    5  A    between atoms: N_22  and  C_23
REMARK                            x       y       z     vdW  Elec       q    Type
REMARK                         _______ _______ _______ _____ _____    ______ ____
ROOT
ATOM      1  C   UNL     1       1.463   9.542  19.348  0.00  0.00    +0.000 C 
ATOM      2  C   UNL     1       2.201   8.917  18.157  0.00  0.00    +0.000 C 
ATOM      3  C   UNL     1       2.136   7.396  18.098  0.00  0.00    +0.000 C 
ATOM      4  N   UNL     1       2.568   6.858  19.414  0.00  0.00    +0.000 NA
ATOM      5  C   UNL     1       1.489   7.155  20.409  0.00  0.00    +0.000 C 
ATOM      6  C   UNL     1       1.328   8.658  20.597  0.00  0.00    +0.000 C 
ENDROOT
BRANCH   1   8
ATOM      7  O   UNL     1      -0.442   9.814  17.887  0.00  0.00    +0.000 OA
ATOM      8  C   UNL     1       0.137  10.187  18.907  0.00  0.00    +0.000 C 
ATOM      9  N   UNL     1      -0.350  11.239  19.696  0.00  0.00    +0.000 N 
ATOM     10  C   UNL     1       0.269  11.646  20.968  0.00  0.00    +0.000 C 
ATOM     11  C   UNL     1       0.002  13.114  21.290  0.00  0.00    +0.000 C 
ATOM     12  N   UNL     1      -1.441  13.339  21.346  0.00  0.00    +0.000 N 
ATOM     13  C   UNL     1      -2.148  13.033  20.091  0.00  0.00    +0.000 C 
ATOM     14  C   UNL     1      -1.782  11.609  19.574  0.00  0.00    +0.000 C 
BRANCH  12  15
ATOM     15  C   UNL     1      -2.055  13.736  22.515  0.00  0.00    +0.000 A 
ATOM     16  C   UNL     1      -1.697  14.919  23.175  0.00  0.00    +0.000 A 
ATOM     17  C   UNL     1      -2.278  15.287  24.397  0.00  0.00    +0.000 A 
ATOM     18  C   UNL     1      -3.248  14.479  24.986  0.00  0.00    +0.000 A 
ATOM     19  C   UNL     1      -3.634  13.312  24.338  0.00  0.00    +0.000 A 
ATOM     20 CL   UNL     1      -4.835  12.298  25.042  0.00  0.00    +0.000 Cl
ATOM     21  C   UNL     1      -3.049  12.949  23.124  0.00  0.00    +0.000 A 
ENDBRANCH  12  15
ENDBRANCH   1   8
BRANCH   4  22
ATOM     22  S   UNL     1       2.994   5.179  19.419  0.00  0.00    +0.000 S 
ATOM     23  O   UNL     1       2.732   4.695  20.760  0.00  0.00    +0.000 OA
ATOM     24  O   UNL     1       2.338   4.597  18.267  0.00  0.00    +0.000 OA
BRANCH  22  25
ATOM     25  C   UNL     1       4.785   5.204  19.166  0.00  0.00    +0.000 C 
BRANCH  25  26
ATOM     26  C   UNL     1       5.087   5.156  17.685  0.00  0.00    +0.000 A 
ATOM     27  C   UNL     1       5.097   6.337  16.924  0.00  0.00    +0.000 A 
ATOM     28  C   UNL     1       5.387   6.304  15.558  0.00  0.00    +0.000 A 
ATOM     29  C   UNL     1       5.671   5.090  14.935  0.00  0.00    +0.000 A 
ATOM     30  C   UNL     1       5.663   3.907  15.676  0.00  0.00    +0.000 A 
ATOM     31  C   UNL     1       5.372   3.942  17.044  0.00  0.00    +0.000 A 
ENDBRANCH  25  26
ENDBRANCH  22  25
ENDBRANCH   4  22
TORSDOF 5
ENDMDL
MODEL 3
REMARK VINA RESULT:      -8.0      5.324     11.215
REMARK  Name = 
REMARK  5 active torsions:
REMARK  status: ('A' for Active; 'I' for Inactive)
REMARK    1  A    between atoms: C_2  and  C_3
REMARK    2  A    between atoms: N_6  and  S_7
REMARK    3  A    between atoms: S_7  and  C_10
REMARK    4  A    between atoms: C_10  and  C_11
REMARK    5  A    between atoms: N_22  and  C_23
REMARK                            x       y       z     vdW  Elec       q    Type
REMARK                         _______ _______ _______ _____ _____    ______ ____
ROOT
ATOM      1  C   UNL     1       1.277   9.805  19.608  0.00  0.00    +0.000 C 
ATOM      2  C   UNL     1       1.994   9.237  18.377  0.00  0.00    +0.000 C 
ATOM      3  C   UNL     1       1.930   7.720  18.249  0.00  0.00    +0.000 C 
ATOM      4  N   UNL     1       2.386   7.123  19.531  0.00  0.00    +0.000 NA
ATOM      5  C   UNL     1       1.324   7.371  20.557  0.00  0.00    +0.000 C 
ATOM      6  C   UNL     1       1.164   8.864  20.817  0.00  0.00    +0.000 C 
ENDROOT
BRANCH   1   8
ATOM      7  O   UNL     1      -0.697  10.080  18.242  0.00  0.00    +0.000 OA
ATOM      8  C   UNL     1      -0.058  10.466  19.221  0.00  0.00    +0.000 C 
ATOM      9  N   UNL     1      -0.481  11.549  20.006  0.00  0.00    +0.000 N 
ATOM     10  C   UNL     1       0.213  11.976  21.232  0.00  0.00    +0.000 C 
ATOM     11  C   UNL     1      -0.007  13.456  21.528  0.00  0.00    +0.000 C 
ATOM     12  N   UNL     1      -1.440  13.714  21.654  0.00  0.00    +0.000 N 
ATOM     13  C   UNL     1      -2.219  13.390  20.446  0.00  0.00    +0.000 C 
ATOM     14  C   UNL     1      -1.909  11.946  19.949  0.00  0.00    +0.000 C 
BRANCH  12  15
ATOM     15  C   UNL     1      -1.983  14.154  22.842  0.00  0.00    +0.000 A 
ATOM     16  C   UNL     1      -3.364  14.125  23.079  0.00  0.00    +0.000 A 
ATOM     17  C   UNL     1      -3.920  14.634  24.262  0.00  0.00    +0.000 A 
ATOM     18  C   UNL     1      -3.099  15.174  25.249  0.00  0.00    +0.000 A 
ATOM     19  C   UNL     1      -1.725  15.192  25.044  0.00  0.00    +0.000 A 
ATOM     20 CL   UNL     1      -0.687  15.850  26.251  0.00  0.00    +0.000 Cl
ATOM     21  C   UNL     1      -1.178  14.689  23.863  0.00  0.00    +0.000 A 
ENDBRANCH  12  15
ENDBRANCH   1   8
BRANCH   4  22
ATOM     22  S   UNL     1       2.814   5.446  19.451  0.00  0.00    +0.000 S 
ATOM     23  O   UNL     1       2.519   4.887  20.755  0.00  0.00    +0.000 OA
ATOM     24  O   UNL     1       2.188   4.930  18.252  0.00  0.00    +0.000 OA
BRANCH  22  25
ATOM     25  C   UNL     1       4.611   5.486  19.245  0.00  0.00    +0.000 C 
BRANCH  25  26
ATOM     26  C   UNL     1       4.954   5.380  17.776  0.00  0.00    +0.000 A 
ATOM     27  C   UNL     1       5.246   4.131  17.204  0.00  0.00    +0.000 A 
ATOM     28  C   UNL     1       5.553   4.022  15.845  0.00  0.00    +0.000 A 
ATOM     29  C   UNL     1       5.572   5.160  15.041  0.00  0.00    +0.000 A 
ATOM     30  C   UNL     1       5.286   6.409  15.595  0.00  0.00    +0.000 A 
ATOM     31  C   UNL     1       4.980   6.517  16.956  0.00  0.00    +0.000 A 
ENDBRANCH  25  26
ENDBRANCH  22  25
ENDBRANCH   4  22
TORSDOF 5
ENDMDL
MODEL 4
REMARK VINA RESULT:      -7.9      4.971     10.992
REMARK  Name = 
REMARK  5 active torsions:
REMARK  status: ('A' for Active; 'I' for Inactive)
REMARK    1  A    between atoms: C_2  and  C_3
REMARK    2  A    between atoms: N_6  and  S_7
REMARK    3  A    between atoms: S_7  and  C_10
REMARK    4  A    between atoms: C_10  and  C_11
REMARK    5  A    between atoms: N_22  and  C_23
REMARK                            x       y       z     vdW  Elec       q    Type
REMARK                         _______ _______ _______ _____ _____    ______ ____
ROOT
ATOM      1  C   UNL     1       1.644   9.375  19.174  0.00  0.00    +0.000 C 
ATOM      2  C   UNL     1       2.421   8.894  17.942  0.00  0.00    +0.000 C 
ATOM      3  C   UNL     1       2.393   7.387  17.721  0.00  0.00    +0.000 C 
ATOM      4  N   UNL     1       2.807   6.721  18.983  0.00  0.00    +0.000 NA
ATOM      5  C   UNL     1       1.701   6.889  19.977  0.00  0.00    +0.000 C 
ATOM      6  C   UNL     1       1.501   8.360  20.318  0.00  0.00    +0.000 C 
ENDROOT
BRANCH   1   8
ATOM      7  O   UNL     1      -0.292   9.679  17.761  0.00  0.00    +0.000 OA
ATOM      8  C   UNL     1       0.313  10.035  18.772  0.00  0.00    +0.000 C 
ATOM      9  N   UNL     1      -0.146  11.083  19.583  0.00  0.00    +0.000 N 
ATOM     10  C   UNL     1       0.505  11.470  20.845  0.00  0.00    +0.000 C 
ATOM     11  C   UNL     1       0.259  12.936  21.190  0.00  0.00    +0.000 C 
ATOM     12  N   UNL     1      -1.180  13.173  21.282  0.00  0.00    +0.000 N 
ATOM     13  C   UNL     1      -1.919  12.886  20.040  0.00  0.00    +0.000 C 
ATOM     14  C   UNL     1      -1.577  11.466  19.499  0.00  0.00    +0.000 C 
BRANCH  12  15
ATOM     15  C   UNL     1      -1.764  13.561  22.468  0.00  0.00    +0.000 A 
ATOM     16  C   UNL     1      -1.268  14.635  23.221  0.00  0.00    +0.000 A 
ATOM     17  C   UNL     1      -1.823  14.986  24.460  0.00  0.00    +0.000 A 
ATOM     18  C   UNL     1      -2.905  14.274  24.973  0.00  0.00    +0.000 A 
ATOM     19  C   UNL     1      -3.426  13.220  24.233  0.00  0.00    +0.000 A 
ATOM     20 CL   UNL     1      -4.767  12.326  24.842  0.00  0.00    +0.000 Cl
ATOM     21  C   UNL     1      -2.866  12.872  23.003  0.00  0.00    +0.000 A 
ENDBRANCH  12  15
ENDBRANCH   1   8
BRANCH   4  22
ATOM     22  S   UNL     1       3.272   5.060  18.821  0.00  0.00    +0.000 S 
ATOM     23  O   UNL     1       4.059   4.740  19.995  0.00  0.00    +0.000 OA
ATOM     24  O   UNL     1       2.058   4.335  18.509  0.00  0.00    +0.000 OA
BRANCH  22  25
ATOM     25  C   UNL     1       4.372   5.074  17.386  0.00  0.00    +0.000 C 
BRANCH  25  26
ATOM     26  C   UNL     1       5.667   5.764  17.747  0.00  0.00    +0.000 A 
ATOM     27  C   UNL     1       6.009   6.990  17.152  0.00  0.00    +0.000 A 
ATOM     28  C   UNL     1       7.198   7.641  17.489  0.00  0.00    +0.000 A 
ATOM     29  C   UNL     1       8.062   7.075  18.425  0.00  0.00    +0.000 A 
ATOM     30  C   UNL     1       7.738   5.857  19.025  0.00  0.00    +0.000 A 
ATOM     31  C   UNL     1       6.547   5.206  18.686  0.00  0.00    +0.000 A 
ENDBRANCH  25  26
ENDBRANCH  22  25
ENDBRANCH   4  22
TORSDOF 5
ENDMDL
MODEL 5
REMARK VINA RESULT:      -7.8      5.017     10.065
REMARK  Name = 
REMARK  5 active torsions:
REMARK  status: ('A' for Active; 'I' for Inactive)
REMARK    1  A    between atoms: C_2  and  C_3
REMARK    2  A    between atoms: N_6  and  S_7
REMARK    3  A    between atoms: S_7  and  C_10
REMARK    4  A    between atoms: C_10  and  C_11
REMARK    5  A    between atoms: N_22  and  C_23
REMARK                            x       y       z     vdW  Elec       q    Type
REMARK                         _______ _______ _______ _____ _____    ______ ____
ROOT
ATOM      1  C   UNL     1       1.953   7.125  18.789  0.00  0.00    +0.000 C 
ATOM      2  C   UNL     1       2.973   6.866  19.905  0.00  0.00    +0.000 C 
ATOM      3  C   UNL     1       4.262   6.197  19.446  0.00  0.00    +0.000 C 
ATOM      4  N   UNL     1       3.907   4.980  18.671  0.00  0.00    +0.000 NA
ATOM      5  C   UNL     1       3.327   5.419  17.363  0.00  0.00    +0.000 C 
ATOM      6  C   UNL     1       2.025   6.181  17.579  0.00  0.00    +0.000 C 
ENDROOT
BRANCH   1   8
ATOM      7  O   UNL     1       2.447   9.014  17.366  0.00  0.00    +0.000 OA
ATOM      8  C   UNL     1       1.915   8.614  18.401  0.00  0.00    +0.000 C 
ATOM      9  N   UNL     1       1.288   9.487  19.302  0.00  0.00    +0.000 N 
ATOM     10  C   UNL     1       0.566   9.029  20.500  0.00  0.00    +0.000 C 
ATOM     11  C   UNL     1       0.543  10.090  21.595  0.00  0.00    +0.000 C 
ATOM     12  N   UNL     1      -0.081  11.305  21.076  0.00  0.00    +0.000 N 
ATOM     13  C   UNL     1       0.614  11.890  19.916  0.00  0.00    +0.000 C 
ATOM     14  C   UNL     1       0.859  10.820  18.810  0.00  0.00    +0.000 C 
BRANCH  12  15
ATOM     15  C   UNL     1      -1.257  11.786  21.608  0.00  0.00    +0.000 A 
ATOM     16  C   UNL     1      -1.557  11.662  22.972  0.00  0.00    +0.000 A 
ATOM     17  C   UNL     1      -2.783  12.094  23.500  0.00  0.00    +0.000 A 
ATOM     18  C   UNL     1      -3.739  12.676  22.671  0.00  0.00    +0.000 A 
ATOM     19  C   UNL     1      -3.454  12.829  21.320  0.00  0.00    +0.000 A 
ATOM     20 CL   UNL     1      -4.617  13.550  20.275  0.00  0.00    +0.000 Cl
ATOM     21  C   UNL     1      -2.235  12.393  20.800  0.00  0.00    +0.000 A 
ENDBRANCH  12  15
ENDBRANCH   1   8
BRANCH   4  22
ATOM     22  S   UNL     1       5.198   3.847  18.447  0.00  0.00    +0.000 S 
ATOM     23  O   UNL     1       5.295   3.616  17.019  0.00  0.00    +0.000 OA
ATOM     24  O   UNL     1       6.319   4.364  19.203  0.00  0.00    +0.000 OA
BRANCH  22  25
ATOM     25  C   UNL     1       4.568   2.340  19.223  0.00  0.00    +0.000 C 
BRANCH  25  26
ATOM     26  C   UNL     1       3.106   2.518  19.562  0.00  0.00    +0.000 A 
ATOM     27  C   UNL     1       2.723   2.987  20.829  0.00  0.00    +0.000 A 
ATOM     28  C   UNL     1       1.374   3.165  21.147  0.00  0.00    +0.000 A 
ATOM     29  C   UNL     1       0.391   2.878  20.202  0.00  0.00    +0.000 A 
ATOM     30  C   UNL     1       0.755   2.409  18.938  0.00  0.00    +0.000 A 
ATOM     31  C   UNL     1       2.106   2.230  18.622  0.00  0.00    +0.000 A 
ENDBRANCH  25  26
ENDBRANCH  22  25
ENDBRANCH   4  22
TORSDOF 5
ENDMDL
MODEL 6
REMARK VINA RESULT:      -7.8      5.290     11.126
REMARK  Name = 
REMARK  5 active torsions:
REMARK  status: ('A' for Active; 'I' for Inactive)
REMARK    1  A    between atoms: C_2  and  C_3
REMARK    2  A    between atoms: N_6  and  S_7
REMARK    3  A    between atoms: S_7  and  C_10
REMARK    4  A    between atoms: C_10  and  C_11
REMARK    5  A    between atoms: N_22  and  C_23
REMARK                            x       y       z     vdW  Elec       q    Type
REMARK                         _______ _______ _______ _____ _____    ______ ____
ROOT
ATOM      1  C   UNL     1       1.328   9.705  19.536  0.00  0.00    +0.000 C 
ATOM      2  C   UNL     1       2.046   9.115  18.315  0.00  0.00    +0.000 C 
ATOM      3  C   UNL     1       1.998   7.595  18.225  0.00  0.00    +0.000 C 
ATOM      4  N   UNL     1       2.465   7.034  19.519  0.00  0.00    +0.000 NA
ATOM      5  C   UNL     1       1.406   7.296  20.544  0.00  0.00    +0.000 C 
ATOM      6  C   UNL     1       1.231   8.793  20.768  0.00  0.00    +0.000 C 
ENDROOT
BRANCH   1   8
ATOM      7  O   UNL     1      -0.685   9.887  18.211  0.00  0.00    +0.000 OA
ATOM      8  C   UNL     1      -0.016  10.343  19.139  0.00  0.00    +0.000 C 
ATOM      9  N   UNL     1      -0.412  11.484  19.852  0.00  0.00    +0.000 N 
ATOM     10  C   UNL     1       0.319  11.997  21.023  0.00  0.00    +0.000 C 
ATOM     11  C   UNL     1       0.112  13.496  21.213  0.00  0.00    +0.000 C 
ATOM     12  N   UNL     1      -1.315  13.771  21.361  0.00  0.00    +0.000 N 
ATOM     13  C   UNL     1      -2.131  13.361  20.203  0.00  0.00    +0.000 C 
ATOM     14  C   UNL     1      -1.841  11.883  19.808  0.00  0.00    +0.000 C 
BRANCH  12  15
ATOM     15  C   UNL     1      -1.822  14.301  22.527  0.00  0.00    +0.000 A 
ATOM     16  C   UNL     1      -0.996  14.630  23.611  0.00  0.00    +0.000 A 
ATOM     17  C   UNL     1      -1.522  15.107  24.821  0.00  0.00    +0.000 A 
ATOM     18  C   UNL     1      -2.896  15.281  24.971  0.00  0.00    +0.000 A 
ATOM     19  C   UNL     1      -3.731  14.982  23.902  0.00  0.00    +0.000 A 
ATOM     20 CL   UNL     1      -5.433  15.193  24.060  0.00  0.00    +0.000 Cl
ATOM     21  C   UNL     1      -3.203  14.502  22.702  0.00  0.00    +0.000 A 
ENDBRANCH  12  15
ENDBRANCH   1   8
BRANCH   4  22
ATOM     22  S   UNL     1       2.912   5.360  19.478  0.00  0.00    +0.000 S 
ATOM     23  O   UNL     1       2.635   4.832  20.799  0.00  0.00    +0.000 OA
ATOM     24  O   UNL     1       2.280   4.807  18.299  0.00  0.00    +0.000 OA
BRANCH  22  25
ATOM     25  C   UNL     1       4.706   5.414  19.253  0.00  0.00    +0.000 C 
BRANCH  25  26
ATOM     26  C   UNL     1       5.034   5.322  17.780  0.00  0.00    +0.000 A 
ATOM     27  C   UNL     1       5.350   4.082  17.200  0.00  0.00    +0.000 A 
ATOM     28  C   UNL     1       5.643   3.985  15.838  0.00  0.00    +0.000 A 
ATOM     29  C   UNL     1       5.625   5.126  15.038  0.00  0.00    +0.000 A 
ATOM     30  C   UNL     1       5.316   6.366  15.599  0.00  0.00    +0.000 A 
ATOM     31  C   UNL     1       5.023   6.461  16.964  0.00  0.00    +0.000 A 
ENDBRANCH  25  26
ENDBRANCH  22  25
ENDBRANCH   4  22
TORSDOF 5
ENDMDL
MODEL 7
REMARK VINA RESULT:      -7.8      4.847     11.083
REMARK  Name = 
REMARK  5 active torsions:
REMARK  status: ('A' for Active; 'I' for Inactive)
REMARK    1  A    between atoms: C_2  and  C_3
REMARK    2  A    between atoms: N_6  and  S_7
REMARK    3  A    between atoms: S_7  and  C_10
REMARK    4  A    between atoms: C_10  and  C_11
REMARK    5  A    between atoms: N_22  and  C_23
REMARK                            x       y       z     vdW  Elec       q    Type
REMARK                         _______ _______ _______ _____ _____    ______ ____
ROOT
ATOM      1  C   UNL     1       1.181   9.686  19.384  0.00  0.00    +0.000 C 
ATOM      2  C   UNL     1       2.194   9.256  18.315  0.00  0.00    +0.000 C 
ATOM      3  C   UNL     1       2.359   7.749  18.166  0.00  0.00    +0.000 C 
ATOM      4  N   UNL     1       2.630   7.173  19.508  0.00  0.00    +0.000 NA
ATOM      5  C   UNL     1       1.365   7.248  20.305  0.00  0.00    +0.000 C 
ATOM      6  C   UNL     1       0.960   8.698  20.539  0.00  0.00    +0.000 C 
ENDROOT
BRANCH   1   8
ATOM      7  O   UNL     1      -0.411   9.903  17.579  0.00  0.00    +0.000 OA
ATOM      8  C   UNL     1      -0.128  10.183  18.744  0.00  0.00    +0.000 C 
ATOM      9  N   UNL     1      -0.951  10.999  19.535  0.00  0.00    +0.000 N 
ATOM     10  C   UNL     1      -0.685  11.276  20.956  0.00  0.00    +0.000 C 
ATOM     11  C   UNL     1      -1.281  12.608  21.400  0.00  0.00    +0.000 C 
ATOM     12  N   UNL     1      -2.722  12.595  21.158  0.00  0.00    +0.000 N 
ATOM     13  C   UNL     1      -3.095  12.400  19.746  0.00  0.00    +0.000 C 
ATOM     14  C   UNL     1      -2.373  11.158  19.142  0.00  0.00    +0.000 C 
BRANCH  12  15
ATOM     15  C   UNL     1      -3.620  12.689  22.199  0.00  0.00    +0.000 A 
ATOM     16  C   UNL     1      -3.235  12.475  23.530  0.00  0.00    +0.000 A 
ATOM     17  C   UNL     1      -4.164  12.505  24.581  0.00  0.00    +0.000 A 
ATOM     18  C   UNL     1      -5.508  12.767  24.323  0.00  0.00    +0.000 A 
ATOM     19  C   UNL     1      -5.908  13.003  23.014  0.00  0.00    +0.000 A 
ATOM     20 CL   UNL     1      -7.562  13.334  22.670  0.00  0.00    +0.000 Cl
ATOM     21  C   UNL     1      -4.980  12.966  21.972  0.00  0.00    +0.000 A 
ENDBRANCH  12  15
ENDBRANCH   1   8
BRANCH   4  22
ATOM     22  S   UNL     1       3.284   5.569  19.503  0.00  0.00    +0.000 S 
ATOM     23  O   UNL     1       4.723   5.715  19.608  0.00  0.00    +0.000 OA
ATOM     24  O   UNL     1       2.529   4.826  20.490  0.00  0.00    +0.000 OA
BRANCH  22  25
ATOM     25  C   UNL     1       2.895   4.967  17.843  0.00  0.00    +0.000 C 
BRANCH  25  26
ATOM     26  C   UNL     1       4.156   4.928  17.010  0.00  0.00    +0.000 A 
ATOM     27  C   UNL     1       4.761   3.700  16.694  0.00  0.00    +0.000 A 
ATOM     28  C   UNL     1       5.920   3.654  15.916  0.00  0.00    +0.000 A 
ATOM     29  C   UNL     1       6.490   4.834  15.442  0.00  0.00    +0.000 A 
ATOM     30  C   UNL     1       5.902   6.063  15.748  0.00  0.00    +0.000 A 
ATOM     31  C   UNL     1       4.742   6.108  16.529  0.00  0.00    +0.000 A 
ENDBRANCH  25  26
ENDBRANCH  22  25
ENDBRANCH   4  22
TORSDOF 5
ENDMDL
MODEL 8
REMARK VINA RESULT:      -7.8      1.072      1.466
REMARK  Name = 
REMARK  5 active torsions:
REMARK  status: ('A' for Active; 'I' for Inactive)
REMARK    1  A    between atoms: C_2  and  C_3
REMARK    2  A    between atoms: N_6  and  S_7
REMARK    3  A    between atoms: S_7  and  C_10
REMARK    4  A    between atoms: C_10  and  C_11
REMARK    5  A    between atoms: N_22  and  C_23
REMARK                            x       y       z     vdW  Elec       q    Type
REMARK                         _______ _______ _______ _____ _____    ______ ____
ROOT
ATOM      1  C   UNL     1       2.845   7.155  19.399  0.00  0.00    +0.000 C 
ATOM      2  C   UNL     1       2.235   7.325  20.797  0.00  0.00    +0.000 C 
ATOM      3  C   UNL     1       0.963   8.162  20.837  0.00  0.00    +0.000 C 
ATOM      4  N   UNL     1       1.228   9.449  20.143  0.00  0.00    +0.000 NA
ATOM      5  C   UNL     1       1.343   9.167  18.678  0.00  0.00    +0.000 C 
ATOM      6  C   UNL     1       2.544   8.276  18.392  0.00  0.00    +0.000 C 
ENDROOT
BRANCH   1   8
ATOM      7  O   UNL     1       1.587   5.103  19.184  0.00  0.00    +0.000 OA
ATOM      8  C   UNL     1       2.581   5.745  18.842  0.00  0.00    +0.000 C 
ATOM      9  N   UNL     1       3.544   5.217  17.969  0.00  0.00    +0.000 N 
ATOM     10  C   UNL     1       4.692   5.992  17.472  0.00  0.00    +0.000 C 
ATOM     11  C   UNL     1       5.871   5.096  17.105  0.00  0.00    +0.000 C 
ATOM     12  N   UNL     1       5.446   4.133  16.091  0.00  0.00    +0.000 N 
ATOM     13  C   UNL     1       4.345   3.252  16.520  0.00  0.00    +0.000 C 
ATOM     14  C   UNL     1       3.158   4.079  17.098  0.00  0.00    +0.000 C 
BRANCH  12  15
ATOM     15  C   UNL     1       6.004   4.132  14.831  0.00  0.00    +0.000 A 
ATOM     16  C   UNL     1       7.088   4.958  14.501  0.00  0.00    +0.000 A 
ATOM     17  C   UNL     1       7.612   5.003  13.200  0.00  0.00    +0.000 A 
ATOM     18  C   UNL     1       7.067   4.206  12.195  0.00  0.00    +0.000 A 
ATOM     19  C   UNL     1       6.007   3.364  12.506  0.00  0.00    +0.000 A 
ATOM     20 CL   UNL     1       5.320   2.365  11.283  0.00  0.00    +0.000 Cl
ATOM     21  C   UNL     1       5.487   3.327  13.800  0.00  0.00    +0.000 A 
ENDBRANCH  12  15
ENDBRANCH   1   8
BRANCH   4  22
ATOM     22  S   UNL     1       0.081  10.708  20.462  0.00  0.00    +0.000 S 
ATOM     23  O   UNL     1      -1.132  10.052  20.908  0.00  0.00    +0.000 OA
ATOM     24  O   UNL     1       0.767  11.670  21.299  0.00  0.00    +0.000 OA
BRANCH  22  25
ATOM     25  C   UNL     1      -0.225  11.415  18.826  0.00  0.00    +0.000 C 
BRANCH  25  26
ATOM     26  C   UNL     1      -1.655  11.147  18.418  0.00  0.00    +0.000 A 
ATOM     27  C   UNL     1      -1.962  10.065  17.575  0.00  0.00    +0.000 A 
ATOM     28  C   UNL     1      -3.282   9.803  17.201  0.00  0.00    +0.000 A 
ATOM     29  C   UNL     1      -4.313  10.617  17.666  0.00  0.00    +0.000 A 
ATOM     30  C   UNL     1      -4.026  11.696  18.503  0.00  0.00    +0.000 A 
ATOM     31  C   UNL     1      -2.703  11.959  18.875  0.00  0.00    +0.000 A 
ENDBRANCH  25  26
ENDBRANCH  22  25
ENDBRANCH   4  22
TORSDOF 5
ENDMDL
MODEL 9
REMARK VINA RESULT:      -7.7      5.317     11.612
REMARK  Name = 
REMARK  5 active torsions:
REMARK  status: ('A' for Active; 'I' for Inactive)
REMARK    1  A    between atoms: C_2  and  C_3
REMARK    2  A    between atoms: N_6  and  S_7
REMARK    3  A    between atoms: S_7  and  C_10
REMARK    4  A    between atoms: C_10  and  C_11
REMARK    5  A    between atoms: N_22  and  C_23
REMARK                            x       y       z     vdW  Elec       q    Type
REMARK                         _______ _______ _______ _____ _____    ______ ____
ROOT
ATOM      1  C   UNL     1       0.375  10.041  19.759  0.00  0.00    +0.000 C 
ATOM      2  C   UNL     1       0.688   8.905  20.743  0.00  0.00    +0.000 C 
ATOM      3  C   UNL     1       1.929   8.092  20.399  0.00  0.00    +0.000 C 
ATOM      4  N   UNL     1       1.817   7.642  18.987  0.00  0.00    +0.000 NA
ATOM      5  C   UNL     1       2.002   8.838  18.106  0.00  0.00    +0.000 C 
ATOM      6  C   UNL     1       0.880   9.845  18.322  0.00  0.00    +0.000 C 
ENDROOT
BRANCH   1   8
ATOM      7  O   UNL     1       1.800  11.968  20.067  0.00  0.00    +0.000 OA
ATOM      8  C   UNL     1       0.740  11.412  20.355  0.00  0.00    +0.000 C 
ATOM      9  N   UNL     1      -0.167  11.968  21.269  0.00  0.00    +0.000 N 
ATOM     10  C   UNL     1      -1.481  11.374  21.564  0.00  0.00    +0.000 C 
ATOM     11  C   UNL     1      -1.975  11.742  22.960  0.00  0.00    +0.000 C 
ATOM     12  N   UNL     1      -2.053  13.197  23.074  0.00  0.00    +0.000 N 
ATOM     13  C   UNL     1      -0.767  13.887  22.869  0.00  0.00    +0.000 C 
ATOM     14  C   UNL     1      -0.085  13.424  21.547  0.00  0.00    +0.000 C 
BRANCH  12  15
ATOM     15  C   UNL     1      -3.258  13.832  23.283  0.00  0.00    +0.000 A 
ATOM     16  C   UNL     1      -3.361  15.230  23.321  0.00  0.00    +0.000 A 
ATOM     17  C   UNL     1      -4.577  15.872  23.600  0.00  0.00    +0.000 A 
ATOM     18  C   UNL     1      -5.729  15.125  23.834  0.00  0.00    +0.000 A 
ATOM     19  C   UNL     1      -5.654  13.740  23.779  0.00  0.00    +0.000 A 
ATOM     20 CL   UNL     1      -7.065  12.793  24.060  0.00  0.00    +0.000 Cl
ATOM     21  C   UNL     1      -4.441  13.106  23.507  0.00  0.00    +0.000 A 
ENDBRANCH  12  15
ENDBRANCH   1   8
BRANCH   4  22
ATOM     22  S   UNL     1       2.881   6.350  18.539  0.00  0.00    +0.000 S 
ATOM     23  O   UNL     1       3.546   5.928  19.755  0.00  0.00    +0.000 OA
ATOM     24  O   UNL     1       2.082   5.428  17.759  0.00  0.00    +0.000 OA
BRANCH  22  25
ATOM     25  C   UNL     1       4.099   7.164  17.479  0.00  0.00    +0.000 C 
BRANCH  25  26
ATOM     26  C   UNL     1       5.194   6.185  17.121  0.00  0.00    +0.000 A 
ATOM     27  C   UNL     1       5.142   5.473  15.911  0.00  0.00    +0.000 A 
ATOM     28  C   UNL     1       6.155   4.574  15.567  0.00  0.00    +0.000 A 
ATOM     29  C   UNL     1       7.233   4.376  16.427  0.00  0.00    +0.000 A 
ATOM     30  C   UNL     1       7.299   5.074  17.634  0.00  0.00    +0.000 A 
ATOM     31  C   UNL     1       6.284   5.973  17.978  0.00  0.00    +0.000 A 
ENDBRANCH  25  26
ENDBRANCH  22  25
ENDBRANCH   4  22
TORSDOF 5
ENDMDL
