MODEL 1
REMARK VINA RESULT:      -8.1      0.000      0.000
REMARK  Name = 
REMARK  7 active torsions:
REMARK  status: ('A' for Active; 'I' for Inactive)
REMARK    1  A    between atoms: C_1  and  C_2
REMARK    2  A    between atoms: C_5  and  C_6
REMARK    3  A    between atoms: C_6  and  N_7
REMARK    4  A    between atoms: N_10  and  C_11
REMARK    5  A    between atoms: C_11  and  C_12
REMARK    6  A    between atoms: C_12  and  C_14
REMARK    7  A    between atoms: C_17  and  N_18
REMARK                            x       y       z     vdW  Elec       q    Type
REMARK                         _______ _______ _______ _____ _____    ______ ____
ROOT
ATOM      1  N   UNL     1       1.719   8.807  19.666  0.00  0.00    +0.000 N 
ATOM      2  C   UNL     1       1.100   9.410  18.567  0.00  0.00    +0.000 A 
ATOM      3  N   UNL     1       1.296   9.181  17.314  0.00  0.00    +0.000 NA
ATOM      4  N   UNL     1       0.185  10.331  19.065  0.00  0.00    +0.000 N 
ATOM      5  C   UNL     1       0.088  10.180  20.445  0.00  0.00    +0.000 A 
ATOM      6  C   UNL     1      -0.780  10.734  21.362  0.00  0.00    +0.000 A 
ATOM      7  C   UNL     1      -0.686  10.306  22.689  0.00  0.00    +0.000 A 
ATOM      8  C   UNL     1       0.284   9.364  23.077  0.00  0.00    +0.000 A 
ATOM      9  C   UNL     1       1.179   8.829  22.145  0.00  0.00    +0.000 A 
ATOM     10  C   UNL     1       1.057   9.226  20.830  0.00  0.00    +0.000 A 
ATOM     11  H   UNL     1       1.986   8.435  17.216  0.00  0.00    +0.000 HD
ENDROOT
BRANCH   1  12
ATOM     12  C   UNL     1       2.667   7.717  19.657  0.00  0.00    +0.000 C 
BRANCH  12  17
ATOM     13  C   UNL     1       0.833   2.232  18.823  0.00  0.00    +0.000 C 
ATOM     14  C   UNL     1       1.217   3.670  19.019  0.00  0.00    +0.000 A 
ATOM     15  C   UNL     1       1.701   4.439  17.957  0.00  0.00    +0.000 A 
ATOM     16  C   UNL     1       2.118   5.756  18.176  0.00  0.00    +0.000 A 
ATOM     17  C   UNL     1       2.053   6.341  19.450  0.00  0.00    +0.000 A 
ATOM     18  C   UNL     1       1.536   5.572  20.499  0.00  0.00    +0.000 A 
ATOM     19  C   UNL     1       1.124   4.248  20.291  0.00  0.00    +0.000 A 
ENDBRANCH  12  17
ENDBRANCH   1  12
BRANCH   4  20
ATOM     20  C   UNL     1      -0.594  11.258  18.280  0.00  0.00    +0.000 C 
BRANCH  20  21
ATOM     21  C   UNL     1      -1.838  10.633  17.659  0.00  0.00    +0.000 C 
ATOM     22  O   UNL     1      -1.834   9.799  16.757  0.00  0.00    +0.000 OA
BRANCH  21  23
ATOM     23  C   UNL     1      -3.156  11.099  18.194  0.00  0.00    +0.000 A 
ATOM     24  C   UNL     1      -3.163  12.097  19.179  0.00  0.00    +0.000 A 
ATOM     25  C   UNL     1      -4.356  12.446  19.826  0.00  0.00    +0.000 A 
ATOM     26  C   UNL     1      -5.548  11.807  19.467  0.00  0.00    +0.000 A 
ATOM     27  C   UNL     1      -5.564  10.869  18.427  0.00  0.00    +0.000 A 
ATOM     28  C   UNL     1      -4.369  10.521  17.789  0.00  0.00    +0.000 A 
BRANCH  26  29
ATOM     29  N   UNL     1      -6.783  12.088  20.212  0.00  0.00    +0.000 N 
ATOM     30  O   UNL     1      -7.456  13.067  19.864  0.00  0.00    +0.000 OA
ATOM     31  O   UNL     1      -7.071  11.335  21.153  0.00  0.00    +0.000 OA
ENDBRANCH  26  29
ENDBRANCH  21  23
ENDBRANCH  20  21
ENDBRANCH   4  20
TORSDOF 6
ENDMDL
MODEL 2
REMARK VINA RESULT:      -8.1      2.550      4.120
REMARK  Name = 
REMARK  7 active torsions:
REMARK  status: ('A' for Active; 'I' for Inactive)
REMARK    1  A    between atoms: C_1  and  C_2
REMARK    2  A    between atoms: C_5  and  C_6
REMARK    3  A    between atoms: C_6  and  N_7
REMARK    4  A    between atoms: N_10  and  C_11
REMARK    5  A    between atoms: C_11  and  C_12
REMARK    6  A    between atoms: C_12  and  C_14
REMARK    7  A    between atoms: C_17  and  N_18
REMARK                            x       y       z     vdW  Elec       q    Type
REMARK                         _______ _______ _______ _____ _____    ______ ____
ROOT
ATOM      1  N   UNL     1       0.478  10.640  18.786  0.00  0.00    +0.000 N 
ATOM      2  C   UNL     1       0.485  11.648  19.756  0.00  0.00    +0.000 A 
ATOM      3  N   UNL     1       1.500  12.197  20.332  0.00  0.00    +0.000 NA
ATOM      4  N   UNL     1      -0.840  11.991  20.002  0.00  0.00    +0.000 N 
ATOM      5  C   UNL     1      -1.657  11.353  19.073  0.00  0.00    +0.000 A 
ATOM      6  C   UNL     1      -3.002  11.490  18.800  0.00  0.00    +0.000 A 
ATOM      7  C   UNL     1      -3.525  10.767  17.725  0.00  0.00    +0.000 A 
ATOM      8  C   UNL     1      -2.709   9.905  16.970  0.00  0.00    +0.000 A 
ATOM      9  C   UNL     1      -1.352   9.750  17.272  0.00  0.00    +0.000 A 
ATOM     10  C   UNL     1      -0.833  10.495  18.310  0.00  0.00    +0.000 A 
ATOM     11  H   UNL     1       2.356  11.796  19.948  0.00  0.00    +0.000 HD
ENDROOT
BRANCH   1  12
ATOM     12  C   UNL     1       1.617  10.034  18.135  0.00  0.00    +0.000 C 
BRANCH  12  17
ATOM     13  C   UNL     1       2.618   4.652  20.179  0.00  0.00    +0.000 C 
ATOM     14  C   UNL     1       2.443   6.061  19.691  0.00  0.00    +0.000 A 
ATOM     15  C   UNL     1       1.783   7.017  20.467  0.00  0.00    +0.000 A 
ATOM     16  C   UNL     1       1.569   8.305  19.965  0.00  0.00    +0.000 A 
ATOM     17  C   UNL     1       2.016   8.675  18.687  0.00  0.00    +0.000 A 
ATOM     18  C   UNL     1       2.705   7.719  17.932  0.00  0.00    +0.000 A 
ATOM     19  C   UNL     1       2.916   6.423  18.423  0.00  0.00    +0.000 A 
ENDBRANCH  12  17
ENDBRANCH   1  12
BRANCH   4  20
ATOM     20  C   UNL     1      -1.301  12.910  21.013  0.00  0.00    +0.000 C 
BRANCH  20  21
ATOM     21  C   UNL     1      -1.782  12.224  22.287  0.00  0.00    +0.000 C 
ATOM     22  O   UNL     1      -1.114  11.448  22.965  0.00  0.00    +0.000 OA
BRANCH  21  23
ATOM     23  C   UNL     1      -3.185  12.521  22.716  0.00  0.00    +0.000 A 
ATOM     24  C   UNL     1      -3.503  12.416  24.078  0.00  0.00    +0.000 A 
ATOM     25  C   UNL     1      -4.833  12.522  24.505  0.00  0.00    +0.000 A 
ATOM     26  C   UNL     1      -5.843  12.756  23.565  0.00  0.00    +0.000 A 
ATOM     27  C   UNL     1      -5.525  12.944  22.214  0.00  0.00    +0.000 A 
ATOM     28  C   UNL     1      -4.195  12.832  21.793  0.00  0.00    +0.000 A 
BRANCH  26  29
ATOM     29  N   UNL     1      -7.251  12.762  23.987  0.00  0.00    +0.000 N 
ATOM     30  O   UNL     1      -7.916  11.736  23.793  0.00  0.00    +0.000 OA
ATOM     31  O   UNL     1      -7.692  13.800  24.501  0.00  0.00    +0.000 OA
ENDBRANCH  26  29
ENDBRANCH  21  23
ENDBRANCH  20  21
ENDBRANCH   4  20
TORSDOF 6
ENDMDL
MODEL 3
REMARK VINA RESULT:      -7.9      2.595      4.069
REMARK  Name = 
REMARK  7 active torsions:
REMARK  status: ('A' for Active; 'I' for Inactive)
REMARK    1  A    between atoms: C_1  and  C_2
REMARK    2  A    between atoms: C_5  and  C_6
REMARK    3  A    between atoms: C_6  and  N_7
REMARK    4  A    between atoms: N_10  and  C_11
REMARK    5  A    between atoms: C_11  and  C_12
REMARK    6  A    between atoms: C_12  and  C_14
REMARK    7  A    between atoms: C_17  and  N_18
REMARK                            x       y       z     vdW  Elec       q    Type
REMARK                         _______ _______ _______ _____ _____    ______ ____
ROOT
ATOM      1  N   UNL     1       0.517  10.662  18.929  0.00  0.00    +0.000 N 
ATOM      2  C   UNL     1       0.548  11.684  19.884  0.00  0.00    +0.000 A 
ATOM      3  N   UNL     1       1.571  12.186  20.485  0.00  0.00    +0.000 NA
ATOM      4  N   UNL     1      -0.764  12.100  20.081  0.00  0.00    +0.000 N 
ATOM      5  C   UNL     1      -1.585  11.492  19.135  0.00  0.00    +0.000 A 
ATOM      6  C   UNL     1      -2.911  11.696  18.816  0.00  0.00    +0.000 A 
ATOM      7  C   UNL     1      -3.437  10.986  17.734  0.00  0.00    +0.000 A 
ATOM      8  C   UNL     1      -2.645  10.069  17.019  0.00  0.00    +0.000 A 
ATOM      9  C   UNL     1      -1.309   9.847  17.369  0.00  0.00    +0.000 A 
ATOM     10  C   UNL     1      -0.784  10.580  18.412  0.00  0.00    +0.000 A 
ATOM     11  H   UNL     1       2.417  11.734  20.135  0.00  0.00    +0.000 HD
ENDROOT
BRANCH   1  12
ATOM     12  C   UNL     1       1.642   9.985  18.324  0.00  0.00    +0.000 C 
BRANCH  12  17
ATOM     13  C   UNL     1       2.925   4.548  20.036  0.00  0.00    +0.000 C 
ATOM     14  C   UNL     1       2.509   5.915  19.576  0.00  0.00    +0.000 A 
ATOM     15  C   UNL     1       2.699   6.318  18.251  0.00  0.00    +0.000 A 
ATOM     16  C   UNL     1       2.368   7.619  17.859  0.00  0.00    +0.000 A 
ATOM     17  C   UNL     1       1.832   8.544  18.769  0.00  0.00    +0.000 A 
ATOM     18  C   UNL     1       1.615   8.118  20.084  0.00  0.00    +0.000 A 
ATOM     19  C   UNL     1       1.951   6.818  20.489  0.00  0.00    +0.000 A 
ENDBRANCH  12  17
ENDBRANCH   1  12
BRANCH   4  20
ATOM     20  C   UNL     1      -1.207  13.059  21.063  0.00  0.00    +0.000 C 
BRANCH  20  21
ATOM     21  C   UNL     1      -1.563  12.434  22.408  0.00  0.00    +0.000 C 
ATOM     22  O   UNL     1      -0.762  11.898  23.170  0.00  0.00    +0.000 OA
BRANCH  21  23
ATOM     23  C   UNL     1      -3.005  12.475  22.803  0.00  0.00    +0.000 A 
ATOM     24  C   UNL     1      -3.962  12.740  21.812  0.00  0.00    +0.000 A 
ATOM     25  C   UNL     1      -5.303  12.951  22.159  0.00  0.00    +0.000 A 
ATOM     26  C   UNL     1      -5.687  12.876  23.503  0.00  0.00    +0.000 A 
ATOM     27  C   UNL     1      -4.755  12.531  24.489  0.00  0.00    +0.000 A 
ATOM     28  C   UNL     1      -3.416  12.326  24.136  0.00  0.00    +0.000 A 
BRANCH  26  29
ATOM     29  N   UNL     1      -7.067  13.201  23.890  0.00  0.00    +0.000 N 
ATOM     30  O   UNL     1      -7.297  14.347  24.298  0.00  0.00    +0.000 OA
ATOM     31  O   UNL     1      -7.917  12.303  23.797  0.00  0.00    +0.000 OA
ENDBRANCH  26  29
ENDBRANCH  21  23
ENDBRANCH  20  21
ENDBRANCH   4  20
TORSDOF 6
ENDMDL
MODEL 4
REMARK VINA RESULT:      -7.7      3.448      8.714
REMARK  Name = 
REMARK  7 active torsions:
REMARK  status: ('A' for Active; 'I' for Inactive)
REMARK    1  A    between atoms: C_1  and  C_2
REMARK    2  A    between atoms: C_5  and  C_6
REMARK    3  A    between atoms: C_6  and  N_7
REMARK    4  A    between atoms: N_10  and  C_11
REMARK    5  A    between atoms: C_11  and  C_12
REMARK    6  A    between atoms: C_12  and  C_14
REMARK    7  A    between atoms: C_17  and  N_18
REMARK                            x       y       z     vdW  Elec       q    Type
REMARK                         _______ _______ _______ _____ _____    ______ ____
ROOT
ATOM      1  N   UNL     1      -0.907  12.567  19.339  0.00  0.00    +0.000 N 
ATOM      2  C   UNL     1       0.309  11.877  19.388  0.00  0.00    +0.000 A 
ATOM      3  N   UNL     1       1.365  12.166  20.068  0.00  0.00    +0.000 NA
ATOM      4  N   UNL     1       0.187  10.770  18.556  0.00  0.00    +0.000 N 
ATOM      5  C   UNL     1      -1.136  10.653  18.141  0.00  0.00    +0.000 A 
ATOM      6  C   UNL     1      -1.788   9.652  17.451  0.00  0.00    +0.000 A 
ATOM      7  C   UNL     1      -3.166   9.781  17.264  0.00  0.00    +0.000 A 
ATOM      8  C   UNL     1      -3.856  10.913  17.735  0.00  0.00    +0.000 A 
ATOM      9  C   UNL     1      -3.182  11.937  18.408  0.00  0.00    +0.000 A 
ATOM     10  C   UNL     1      -1.828  11.786  18.625  0.00  0.00    +0.000 A 
ATOM     11  H   UNL     1       1.183  13.002  20.625  0.00  0.00    +0.000 HD
ENDROOT
BRANCH   1  12
ATOM     12  C   UNL     1      -1.298  13.723  20.111  0.00  0.00    +0.000 C 
BRANCH  12  17
ATOM     13  C   UNL     1      -4.602  12.250  24.700  0.00  0.00    +0.000 C 
ATOM     14  C   UNL     1      -3.708  12.689  23.577  0.00  0.00    +0.000 A 
ATOM     15  C   UNL     1      -4.080  13.732  22.725  0.00  0.00    +0.000 A 
ATOM     16  C   UNL     1      -3.266  14.080  21.642  0.00  0.00    +0.000 A 
ATOM     17  C   UNL     1      -2.059  13.408  21.389  0.00  0.00    +0.000 A 
ATOM     18  C   UNL     1      -1.681  12.387  22.268  0.00  0.00    +0.000 A 
ATOM     19  C   UNL     1      -2.495  12.025  23.351  0.00  0.00    +0.000 A 
ENDBRANCH  12  17
ENDBRANCH   1  12
BRANCH   4  20
ATOM     20  C   UNL     1       1.241   9.844  18.222  0.00  0.00    +0.000 C 
BRANCH  20  21
ATOM     21  C   UNL     1       1.523   8.821  19.316  0.00  0.00    +0.000 C 
ATOM     22  O   UNL     1       1.128   8.902  20.477  0.00  0.00    +0.000 OA
BRANCH  21  23
ATOM     23  C   UNL     1       2.360   7.642  18.929  0.00  0.00    +0.000 A 
ATOM     24  C   UNL     1       2.400   6.538  19.793  0.00  0.00    +0.000 A 
ATOM     25  C   UNL     1       3.293   5.485  19.557  0.00  0.00    +0.000 A 
ATOM     26  C   UNL     1       4.134   5.531  18.439  0.00  0.00    +0.000 A 
ATOM     27  C   UNL     1       4.043   6.590  17.526  0.00  0.00    +0.000 A 
ATOM     28  C   UNL     1       3.152   7.641  17.771  0.00  0.00    +0.000 A 
BRANCH  26  29
ATOM     29  N   UNL     1       5.148   4.486  18.240  0.00  0.00    +0.000 N 
ATOM     30  O   UNL     1       5.498   3.827  19.228  0.00  0.00    +0.000 OA
ATOM     31  O   UNL     1       5.602   4.337  17.096  0.00  0.00    +0.000 OA
ENDBRANCH  26  29
ENDBRANCH  21  23
ENDBRANCH  20  21
ENDBRANCH   4  20
TORSDOF 6
ENDMDL
MODEL 5
REMARK VINA RESULT:      -7.7      3.636      8.701
REMARK  Name = 
REMARK  7 active torsions:
REMARK  status: ('A' for Active; 'I' for Inactive)
REMARK    1  A    between atoms: C_1  and  C_2
REMARK    2  A    between atoms: C_5  and  C_6
REMARK    3  A    between atoms: C_6  and  N_7
REMARK    4  A    between atoms: N_10  and  C_11
REMARK    5  A    between atoms: C_11  and  C_12
REMARK    6  A    between atoms: C_12  and  C_14
REMARK    7  A    between atoms: C_17  and  N_18
REMARK                            x       y       z     vdW  Elec       q    Type
REMARK                         _______ _______ _______ _____ _____    ______ ____
ROOT
ATOM      1  N   UNL     1       0.566   9.941  18.793  0.00  0.00    +0.000 N 
ATOM      2  C   UNL     1       1.594   9.068  18.423  0.00  0.00    +0.000 A 
ATOM      3  N   UNL     1       2.201   8.983  17.290  0.00  0.00    +0.000 NA
ATOM      4  N   UNL     1       1.881   8.278  19.531  0.00  0.00    +0.000 N 
ATOM      5  C   UNL     1       1.185   8.766  20.634  0.00  0.00    +0.000 A 
ATOM      6  C   UNL     1       1.254   8.437  21.971  0.00  0.00    +0.000 A 
ATOM      7  C   UNL     1       0.485   9.184  22.866  0.00  0.00    +0.000 A 
ATOM      8  C   UNL     1      -0.355  10.216  22.410  0.00  0.00    +0.000 A 
ATOM      9  C   UNL     1      -0.441  10.524  21.048  0.00  0.00    +0.000 A 
ATOM     10  C   UNL     1       0.350   9.810  20.173  0.00  0.00    +0.000 A 
ATOM     11  H   UNL     1       1.832   9.697  16.660  0.00  0.00    +0.000 HD
ENDROOT
BRANCH   1  12
ATOM     12  C   UNL     1      -0.002  11.017  18.014  0.00  0.00    +0.000 C 
BRANCH  12  17
ATOM     13  C   UNL     1      -5.832  10.658  18.184  0.00  0.00    +0.000 C 
ATOM     14  C   UNL     1      -4.342  10.799  18.060  0.00  0.00    +0.000 A 
ATOM     15  C   UNL     1      -3.577   9.825  17.411  0.00  0.00    +0.000 A 
ATOM     16  C   UNL     1      -2.184   9.940  17.367  0.00  0.00    +0.000 A 
ATOM     17  C   UNL     1      -1.521  11.029  17.956  0.00  0.00    +0.000 A 
ATOM     18  C   UNL     1      -2.300  12.013  18.574  0.00  0.00    +0.000 A 
ATOM     19  C   UNL     1      -3.696  11.902  18.632  0.00  0.00    +0.000 A 
ENDBRANCH  12  17
ENDBRANCH   1  12
BRANCH   4  20
ATOM     20  C   UNL     1       2.800   7.167  19.561  0.00  0.00    +0.000 C 
BRANCH  20  21
ATOM     21  C   UNL     1       2.516   6.112  18.498  0.00  0.00    +0.000 C 
ATOM     22  O   UNL     1       1.423   5.588  18.300  0.00  0.00    +0.000 OA
BRANCH  21  23
ATOM     23  C   UNL     1       3.676   5.687  17.653  0.00  0.00    +0.000 A 
ATOM     24  C   UNL     1       4.590   6.663  17.233  0.00  0.00    +0.000 A 
ATOM     25  C   UNL     1       5.594   6.344  16.310  0.00  0.00    +0.000 A 
ATOM     26  C   UNL     1       5.693   5.035  15.823  0.00  0.00    +0.000 A 
ATOM     27  C   UNL     1       4.836   4.035  16.299  0.00  0.00    +0.000 A 
ATOM     28  C   UNL     1       3.832   4.362  17.218  0.00  0.00    +0.000 A 
BRANCH  26  29
ATOM     29  N   UNL     1       6.672   4.715  14.775  0.00  0.00    +0.000 N 
ATOM     30  O   UNL     1       7.737   5.346  14.768  0.00  0.00    +0.000 OA
ATOM     31  O   UNL     1       6.366   3.840  13.952  0.00  0.00    +0.000 OA
ENDBRANCH  26  29
ENDBRANCH  21  23
ENDBRANCH  20  21
ENDBRANCH   4  20
TORSDOF 6
ENDMDL
MODEL 6
REMARK VINA RESULT:      -7.6      3.439      8.718
REMARK  Name = 
REMARK  7 active torsions:
REMARK  status: ('A' for Active; 'I' for Inactive)
REMARK    1  A    between atoms: C_1  and  C_2
REMARK    2  A    between atoms: C_5  and  C_6
REMARK    3  A    between atoms: C_6  and  N_7
REMARK    4  A    between atoms: N_10  and  C_11
REMARK    5  A    between atoms: C_11  and  C_12
REMARK    6  A    between atoms: C_12  and  C_14
REMARK    7  A    between atoms: C_17  and  N_18
REMARK                            x       y       z     vdW  Elec       q    Type
REMARK                         _______ _______ _______ _____ _____    ______ ____
ROOT
ATOM      1  N   UNL     1      -0.954  12.384  19.360  0.00  0.00    +0.000 N 
ATOM      2  C   UNL     1       0.250  11.694  19.531  0.00  0.00    +0.000 A 
ATOM      3  N   UNL     1       1.209  11.952  20.353  0.00  0.00    +0.000 NA
ATOM      4  N   UNL     1       0.242  10.626  18.640  0.00  0.00    +0.000 N 
ATOM      5  C   UNL     1      -1.017  10.528  18.055  0.00  0.00    +0.000 A 
ATOM      6  C   UNL     1      -1.568   9.560  17.243  0.00  0.00    +0.000 A 
ATOM      7  C   UNL     1      -2.913   9.697  16.888  0.00  0.00    +0.000 A 
ATOM      8  C   UNL     1      -3.664  10.804  17.319  0.00  0.00    +0.000 A 
ATOM      9  C   UNL     1      -3.088  11.797  18.119  0.00  0.00    +0.000 A 
ATOM     10  C   UNL     1      -1.772  11.636  18.500  0.00  0.00    +0.000 A 
ATOM     11  H   UNL     1       0.953  12.760  20.920  0.00  0.00    +0.000 HD
ENDROOT
BRANCH   1  12
ATOM     12  C   UNL     1      -1.448  13.503  20.129  0.00  0.00    +0.000 C 
BRANCH  12  17
ATOM     13  C   UNL     1      -4.715  12.399  24.846  0.00  0.00    +0.000 C 
ATOM     14  C   UNL     1      -3.916  12.609  23.593  0.00  0.00    +0.000 A 
ATOM     15  C   UNL     1      -2.659  12.019  23.431  0.00  0.00    +0.000 A 
ATOM     16  C   UNL     1      -1.902  12.284  22.285  0.00  0.00    +0.000 A 
ATOM     17  C   UNL     1      -2.379  13.129  21.271  0.00  0.00    +0.000 A 
ATOM     18  C   UNL     1      -3.653  13.687  21.430  0.00  0.00    +0.000 A 
ATOM     19  C   UNL     1      -4.416  13.435  22.578  0.00  0.00    +0.000 A 
ENDBRANCH  12  17
ENDBRANCH   1  12
BRANCH   4  20
ATOM     20  C   UNL     1       1.337   9.718  18.400  0.00  0.00    +0.000 C 
BRANCH  20  21
ATOM     21  C   UNL     1       1.538   8.698  19.516  0.00  0.00    +0.000 C 
ATOM     22  O   UNL     1       1.141   8.829  20.671  0.00  0.00    +0.000 OA
BRANCH  21  23
ATOM     23  C   UNL     1       2.292   7.456  19.157  0.00  0.00    +0.000 A 
ATOM     24  C   UNL     1       2.204   6.350  20.015  0.00  0.00    +0.000 A 
ATOM     25  C   UNL     1       3.018   5.228  19.810  0.00  0.00    +0.000 A 
ATOM     26  C   UNL     1       3.907   5.208  18.729  0.00  0.00    +0.000 A 
ATOM     27  C   UNL     1       3.941   6.273  17.820  0.00  0.00    +0.000 A 
ATOM     28  C   UNL     1       3.129   7.393  18.033  0.00  0.00    +0.000 A 
BRANCH  26  29
ATOM     29  N   UNL     1       4.840   4.085  18.567  0.00  0.00    +0.000 N 
ATOM     30  O   UNL     1       6.051   4.340  18.539  0.00  0.00    +0.000 OA
ATOM     31  O   UNL     1       4.356   2.948  18.455  0.00  0.00    +0.000 OA
ENDBRANCH  26  29
ENDBRANCH  21  23
ENDBRANCH  20  21
ENDBRANCH   4  20
TORSDOF 6
ENDMDL
MODEL 7
REMARK VINA RESULT:      -7.6      3.158      8.272
REMARK  Name = 
REMARK  7 active torsions:
REMARK  status: ('A' for Active; 'I' for Inactive)
REMARK    1  A    between atoms: C_1  and  C_2
REMARK    2  A    between atoms: C_5  and  C_6
REMARK    3  A    between atoms: C_6  and  N_7
REMARK    4  A    between atoms: N_10  and  C_11
REMARK    5  A    between atoms: C_11  and  C_12
REMARK    6  A    between atoms: C_12  and  C_14
REMARK    7  A    between atoms: C_17  and  N_18
REMARK                            x       y       z     vdW  Elec       q    Type
REMARK                         _______ _______ _______ _____ _____    ______ ____
ROOT
ATOM      1  N   UNL     1      -0.666  12.030  20.065  0.00  0.00    +0.000 N 
ATOM      2  C   UNL     1       0.340  11.857  19.109  0.00  0.00    +0.000 A 
ATOM      3  N   UNL     1       0.595  12.585  18.077  0.00  0.00    +0.000 NA
ATOM      4  N   UNL     1       1.064  10.728  19.475  0.00  0.00    +0.000 N 
ATOM      5  C   UNL     1       0.649  10.307  20.735  0.00  0.00    +0.000 A 
ATOM      6  C   UNL     1       1.158   9.349  21.587  0.00  0.00    +0.000 A 
ATOM      7  C   UNL     1       0.570   9.221  22.848  0.00  0.00    +0.000 A 
ATOM      8  C   UNL     1      -0.525  10.021  23.219  0.00  0.00    +0.000 A 
ATOM      9  C   UNL     1      -1.054  10.969  22.336  0.00  0.00    +0.000 A 
ATOM     10  C   UNL     1      -0.445  11.120  21.109  0.00  0.00    +0.000 A 
ATOM     11  H   UNL     1      -0.054  13.372  18.056  0.00  0.00    +0.000 HD
ENDROOT
BRANCH   1  12
ATOM     12  C   UNL     1      -1.607  13.122  20.169  0.00  0.00    +0.000 C 
BRANCH  12  17
ATOM     13  C   UNL     1      -7.034  11.112  19.361  0.00  0.00    +0.000 C 
ATOM     14  C   UNL     1      -5.666  11.709  19.527  0.00  0.00    +0.000 A 
ATOM     15  C   UNL     1      -4.674  11.518  18.560  0.00  0.00    +0.000 A 
ATOM     16  C   UNL     1      -3.386  12.023  18.767  0.00  0.00    +0.000 A 
ATOM     17  C   UNL     1      -3.058  12.737  19.930  0.00  0.00    +0.000 A 
ATOM     18  C   UNL     1      -4.068  12.950  20.875  0.00  0.00    +0.000 A 
ATOM     19  C   UNL     1      -5.360  12.440  20.682  0.00  0.00    +0.000 A 
ENDBRANCH  12  17
ENDBRANCH   1  12
BRANCH   4  20
ATOM     20  C   UNL     1       2.123  10.118  18.709  0.00  0.00    +0.000 C 
BRANCH  20  21
ATOM     21  C   UNL     1       1.712   8.818  18.028  0.00  0.00    +0.000 C 
ATOM     22  O   UNL     1       0.699   8.667  17.349  0.00  0.00    +0.000 OA
BRANCH  21  23
ATOM     23  C   UNL     1       2.619   7.644  18.227  0.00  0.00    +0.000 A 
ATOM     24  C   UNL     1       2.376   6.788  19.311  0.00  0.00    +0.000 A 
ATOM     25  C   UNL     1       3.290   5.777  19.634  0.00  0.00    +0.000 A 
ATOM     26  C   UNL     1       4.440   5.611  18.854  0.00  0.00    +0.000 A 
ATOM     27  C   UNL     1       4.649   6.407  17.721  0.00  0.00    +0.000 A 
ATOM     28  C   UNL     1       3.735   7.419  17.407  0.00  0.00    +0.000 A 
BRANCH  26  29
ATOM     29  N   UNL     1       5.457   4.625  19.247  0.00  0.00    +0.000 N 
ATOM     30  O   UNL     1       5.082   3.464  19.459  0.00  0.00    +0.000 OA
ATOM     31  O   UNL     1       6.627   5.019  19.354  0.00  0.00    +0.000 OA
ENDBRANCH  26  29
ENDBRANCH  21  23
ENDBRANCH  20  21
ENDBRANCH   4  20
TORSDOF 6
ENDMDL
MODEL 8
REMARK VINA RESULT:      -7.5      3.675      8.781
REMARK  Name = 
REMARK  7 active torsions:
REMARK  status: ('A' for Active; 'I' for Inactive)
REMARK    1  A    between atoms: C_1  and  C_2
REMARK    2  A    between atoms: C_5  and  C_6
REMARK    3  A    between atoms: C_6  and  N_7
REMARK    4  A    between atoms: N_10  and  C_11
REMARK    5  A    between atoms: C_11  and  C_12
REMARK    6  A    between atoms: C_12  and  C_14
REMARK    7  A    between atoms: C_17  and  N_18
REMARK                            x       y       z     vdW  Elec       q    Type
REMARK                         _______ _______ _______ _____ _____    ______ ____
ROOT
ATOM      1  N   UNL     1       0.245  10.145  19.111  0.00  0.00    +0.000 N 
ATOM      2  C   UNL     1       1.266   9.257  18.758  0.00  0.00    +0.000 A 
ATOM      3  N   UNL     1       1.881   9.154  17.630  0.00  0.00    +0.000 NA
ATOM      4  N   UNL     1       1.533   8.474  19.875  0.00  0.00    +0.000 N 
ATOM      5  C   UNL     1       0.835   8.980  20.967  0.00  0.00    +0.000 A 
ATOM      6  C   UNL     1       0.888   8.662  22.308  0.00  0.00    +0.000 A 
ATOM      7  C   UNL     1       0.121   9.427  23.190  0.00  0.00    +0.000 A 
ATOM      8  C   UNL     1      -0.703  10.464  22.717  0.00  0.00    +0.000 A 
ATOM      9  C   UNL     1      -0.774  10.761  21.351  0.00  0.00    +0.000 A 
ATOM     10  C   UNL     1       0.016  10.029  20.490  0.00  0.00    +0.000 A 
ATOM     11  H   UNL     1       1.526   9.866  16.991  0.00  0.00    +0.000 HD
ENDROOT
BRANCH   1  12
ATOM     12  C   UNL     1      -0.304  11.220  18.317  0.00  0.00    +0.000 C 
BRANCH  12  17
ATOM     13  C   UNL     1      -6.128  10.764  18.207  0.00  0.00    +0.000 C 
ATOM     14  C   UNL     1      -4.637  10.931  18.156  0.00  0.00    +0.000 A 
ATOM     15  C   UNL     1      -3.827   9.988  17.518  0.00  0.00    +0.000 A 
ATOM     16  C   UNL     1      -2.435  10.126  17.542  0.00  0.00    +0.000 A 
ATOM     17  C   UNL     1      -1.819  11.209  18.189  0.00  0.00    +0.000 A 
ATOM     18  C   UNL     1      -2.642  12.164  18.796  0.00  0.00    +0.000 A 
ATOM     19  C   UNL     1      -4.037  12.029  18.786  0.00  0.00    +0.000 A 
ENDBRANCH  12  17
ENDBRANCH   1  12
BRANCH   4  20
ATOM     20  C   UNL     1       2.440   7.352  19.924  0.00  0.00    +0.000 C 
BRANCH  20  21
ATOM     21  C   UNL     1       2.505   6.566  18.619  0.00  0.00    +0.000 C 
ATOM     22  O   UNL     1       1.531   6.177  17.980  0.00  0.00    +0.000 OA
BRANCH  21  23
ATOM     23  C   UNL     1       3.872   6.240  18.104  0.00  0.00    +0.000 A 
ATOM     24  C   UNL     1       4.240   6.716  16.837  0.00  0.00    +0.000 A 
ATOM     25  C   UNL     1       5.440   6.301  16.245  0.00  0.00    +0.000 A 
ATOM     26  C   UNL     1       6.283   5.424  16.936  0.00  0.00    +0.000 A 
ATOM     27  C   UNL     1       5.964   5.010  18.235  0.00  0.00    +0.000 A 
ATOM     28  C   UNL     1       4.761   5.423  18.819  0.00  0.00    +0.000 A 
BRANCH  26  29
ATOM     29  N   UNL     1       7.490   4.899  16.282  0.00  0.00    +0.000 N 
ATOM     30  O   UNL     1       7.712   5.249  15.115  0.00  0.00    +0.000 OA
ATOM     31  O   UNL     1       8.207   4.126  16.934  0.00  0.00    +0.000 OA
ENDBRANCH  26  29
ENDBRANCH  21  23
ENDBRANCH  20  21
ENDBRANCH   4  20
TORSDOF 6
ENDMDL
MODEL 9
REMARK VINA RESULT:      -7.5      3.745      5.836
REMARK  Name = 
REMARK  7 active torsions:
REMARK  status: ('A' for Active; 'I' for Inactive)
REMARK    1  A    between atoms: C_1  and  C_2
REMARK    2  A    between atoms: C_5  and  C_6
REMARK    3  A    between atoms: C_6  and  N_7
REMARK    4  A    between atoms: N_10  and  C_11
REMARK    5  A    between atoms: C_11  and  C_12
REMARK    6  A    between atoms: C_12  and  C_14
REMARK    7  A    between atoms: C_17  and  N_18
REMARK                            x       y       z     vdW  Elec       q    Type
REMARK                         _______ _______ _______ _____ _____    ______ ____
ROOT
ATOM      1  N   UNL     1       4.491   5.310  18.710  0.00  0.00    +0.000 N 
ATOM      2  C   UNL     1       3.790   6.307  18.024  0.00  0.00    +0.000 A 
ATOM      3  N   UNL     1       4.209   7.070  17.074  0.00  0.00    +0.000 NA
ATOM      4  N   UNL     1       2.502   6.337  18.547  0.00  0.00    +0.000 N 
ATOM      5  C   UNL     1       2.333   5.257  19.409  0.00  0.00    +0.000 A 
ATOM      6  C   UNL     1       1.210   4.764  20.039  0.00  0.00    +0.000 A 
ATOM      7  C   UNL     1       1.342   3.586  20.779  0.00  0.00    +0.000 A 
ATOM      8  C   UNL     1       2.589   2.947  20.901  0.00  0.00    +0.000 A 
ATOM      9  C   UNL     1       3.729   3.471  20.282  0.00  0.00    +0.000 A 
ATOM     10  C   UNL     1       3.585   4.611  19.521  0.00  0.00    +0.000 A 
ATOM     11  H   UNL     1       5.174   6.822  16.849  0.00  0.00    +0.000 HD
ENDROOT
BRANCH   1  12
ATOM     12  C   UNL     1       5.833   4.839  18.454  0.00  0.00    +0.000 C 
BRANCH  12  17
ATOM     13  C   UNL     1       6.506   3.896  12.726  0.00  0.00    +0.000 C 
ATOM     14  C   UNL     1       6.393   4.068  14.214  0.00  0.00    +0.000 A 
ATOM     15  C   UNL     1       5.408   3.398  14.945  0.00  0.00    +0.000 A 
ATOM     16  C   UNL     1       5.277   3.625  16.318  0.00  0.00    +0.000 A 
ATOM     17  C   UNL     1       6.125   4.513  16.998  0.00  0.00    +0.000 A 
ATOM     18  C   UNL     1       7.128   5.154  16.261  0.00  0.00    +0.000 A 
ATOM     19  C   UNL     1       7.263   4.939  14.882  0.00  0.00    +0.000 A 
ENDBRANCH  12  17
ENDBRANCH   1  12
BRANCH   4  20
ATOM     20  C   UNL     1       1.474   7.291  18.208  0.00  0.00    +0.000 C 
BRANCH  20  21
ATOM     21  C   UNL     1       1.817   8.722  18.607  0.00  0.00    +0.000 C 
ATOM     22  O   UNL     1       2.714   9.398  18.107  0.00  0.00    +0.000 OA
BRANCH  21  23
ATOM     23  C   UNL     1       0.995   9.325  19.702  0.00  0.00    +0.000 A 
ATOM     24  C   UNL     1       0.130  10.383  19.384  0.00  0.00    +0.000 A 
ATOM     25  C   UNL     1      -0.533  11.086  20.398  0.00  0.00    +0.000 A 
ATOM     26  C   UNL     1      -0.344  10.712  21.734  0.00  0.00    +0.000 A 
ATOM     27  C   UNL     1       0.452   9.606  22.054  0.00  0.00    +0.000 A 
ATOM     28  C   UNL     1       1.116   8.911  21.037  0.00  0.00    +0.000 A 
BRANCH  26  29
ATOM     29  N   UNL     1      -0.949  11.508  22.810  0.00  0.00    +0.000 N 
ATOM     30  O   UNL     1      -1.935  11.037  23.392  0.00  0.00    +0.000 OA
ATOM     31  O   UNL     1      -0.443  12.612  23.062  0.00  0.00    +0.000 OA
ENDBRANCH  26  29
ENDBRANCH  21  23
ENDBRANCH  20  21
ENDBRANCH   4  20
TORSDOF 6
ENDMDL
