MODEL 1
REMARK VINA RESULT:      -7.7      0.000      0.000
REMARK  Name = 
REMARK  13 active torsions:
REMARK  status: ('A' for Active; 'I' for Inactive)
REMARK    1  A    between atoms: C_1  and  C_2
REMARK    2  A    between atoms: N_5  and  C_6
REMARK    3  A    between atoms: C_6  and  C_7
REMARK    4  A    between atoms: C_6  and  C_8
REMARK    5  A    between atoms: N_13  and  C_14
REMARK    6  A    between atoms: C_16  and  C_17
REMARK    7  A    between atoms: C_17  and  C_18
REMARK    8  A    between atoms: C_17  and  C_19
REMARK    9  A    between atoms: C_17  and  O_20
REMARK   10  A    between atoms: C_21  and  O_22
REMARK   11  A    between atoms: C_23  and  O_24
REMARK   12  A    between atoms: C_25  and  C_26
REMARK   13  A    between atoms: C_29  and  C_30
REMARK                            x       y       z     vdW  Elec       q    Type
REMARK                         _______ _______ _______ _____ _____    ______ ____
ROOT
ATOM      1  C   UNL     1       1.650   9.315  22.767  0.00  0.00    +0.000 C 
ATOM      2  C   UNL     1       0.636  10.041  21.928  0.00  0.00    +0.000 A 
ATOM      3  N   UNL     1       0.087  11.103  22.570  0.00  0.00    +0.000 NA
ATOM      4  C   UNL     1      -0.827  11.817  21.929  0.00  0.00    +0.000 A 
ATOM      5  N   UNL     1      -1.289  12.938  22.589  0.00  0.00    +0.000 N 
ATOM      6  N   UNL     1      -1.246  11.535  20.697  0.00  0.00    +0.000 NA
ATOM      7  C   UNL     1      -0.729  10.472  20.053  0.00  0.00    +0.000 A 
ATOM      8  N   UNL     1      -1.340  10.148  18.833  0.00  0.00    +0.000 N 
ATOM      9  C   UNL     1       0.277   9.661  20.628  0.00  0.00    +0.000 A 
ATOM     10  H   UNL     1      -0.956  12.885  23.544  0.00  0.00    +0.000 HD
ATOM     11  H   UNL     1      -0.703   9.638  18.227  0.00  0.00    +0.000 HD
ENDROOT
BRANCH   9  12
ATOM     12  C   UNL     1       1.022   8.591  19.903  0.00  0.00    +0.000 A 
ATOM     13  N   UNL     1       1.279   7.365  20.337  0.00  0.00    +0.000 NA
ATOM     14  C   UNL     1       2.290   6.751  19.573  0.00  0.00    +0.000 A 
ATOM     15  C   UNL     1       2.925   5.501  19.787  0.00  0.00    +0.000 A 
ATOM     16  C   UNL     1       2.588   4.524  20.870  0.00  0.00    +0.000 C 
ATOM     17  N   UNL     1       3.974   5.135  18.981  0.00  0.00    +0.000 NA
ATOM     18  C   UNL     1       4.375   5.934  17.977  0.00  0.00    +0.000 A 
ATOM     19  C   UNL     1       3.774   7.130  17.658  0.00  0.00    +0.000 A 
ATOM     20  C   UNL     1       2.731   7.520  18.498  0.00  0.00    +0.000 A 
ATOM     21  S   UNL     1       1.835   8.969  18.425  0.00  0.00    +0.000 S 
ENDBRANCH   9  12
BRANCH   8  22
ATOM     22  C   UNL     1      -2.092  11.139  18.037  0.00  0.00    +0.000 C 
ATOM     23  C   UNL     1      -3.228  11.800  18.843  0.00  0.00    +0.000 C 
ATOM     24  C   UNL     1      -4.428  11.916  17.896  0.00  0.00    +0.000 C 
ATOM     25  C   UNL     1      -4.226  10.775  16.899  0.00  0.00    +0.000 C 
ATOM     26  C   UNL     1      -2.701  10.662  16.706  0.00  0.00    +0.000 C 
BRANCH  24  27
ATOM     27  C   UNL     1      -5.832  11.970  18.569  0.00  0.00    +0.000 C 
ATOM     28  C   UNL     1      -5.858  12.028  20.106  0.00  0.00    +0.000 C 
ATOM     29  C   UNL     1      -6.608  13.177  18.030  0.00  0.00    +0.000 C 
BRANCH  27  30
ATOM     30  O   UNL     1      -6.589  10.811  18.188  0.00  0.00    +0.000 OA
ATOM     31  H   UNL     1      -7.216  11.067  17.480  0.00  0.00    +0.000 HD
ENDBRANCH  27  30
ENDBRANCH  24  27
BRANCH  25  32
ATOM     32  O   UNL     1      -4.886  11.083  15.669  0.00  0.00    +0.000 OA
ATOM     33  H   UNL     1      -4.235  10.925  14.955  0.00  0.00    +0.000 HD
ENDBRANCH  25  32
BRANCH  26  34
ATOM     34  O   UNL     1      -2.272  11.513  15.627  0.00  0.00    +0.000 OA
ATOM     35  H   UNL     1      -2.676  11.182  14.803  0.00  0.00    +0.000 HD
ENDBRANCH  26  34
ENDBRANCH   8  22
BRANCH   5  36
ATOM     36  C   UNL     1      -2.681  13.324  22.426  0.00  0.00    +0.000 C 
ATOM     37  C   UNL     1      -2.730  14.620  21.619  0.00  0.00    +0.000 C 
BRANCH  36  38
ATOM     38  C   UNL     1      -3.341  13.481  23.772  0.00  0.00    +0.000 C 
ATOM     39  C   UNL     1      -4.843  13.381  23.910  0.00  0.00    +0.000 C 
ATOM     40  C   UNL     1      -3.968  12.278  24.437  0.00  0.00    +0.000 C 
ENDBRANCH  36  38
ENDBRANCH   5  36
TORSDOF 8
ENDMDL
MODEL 2
REMARK VINA RESULT:      -6.8      0.550      1.227
REMARK  Name = 
REMARK  13 active torsions:
REMARK  status: ('A' for Active; 'I' for Inactive)
REMARK    1  A    between atoms: C_1  and  C_2
REMARK    2  A    between atoms: N_5  and  C_6
REMARK    3  A    between atoms: C_6  and  C_7
REMARK    4  A    between atoms: C_6  and  C_8
REMARK    5  A    between atoms: N_13  and  C_14
REMARK    6  A    between atoms: C_16  and  C_17
REMARK    7  A    between atoms: C_17  and  C_18
REMARK    8  A    between atoms: C_17  and  C_19
REMARK    9  A    between atoms: C_17  and  O_20
REMARK   10  A    between atoms: C_21  and  O_22
REMARK   11  A    between atoms: C_23  and  O_24
REMARK   12  A    between atoms: C_25  and  C_26
REMARK   13  A    between atoms: C_29  and  C_30
REMARK                            x       y       z     vdW  Elec       q    Type
REMARK                         _______ _______ _______ _____ _____    ______ ____
ROOT
ATOM      1  C   UNL     1       1.721   9.394  22.860  0.00  0.00    +0.000 C 
ATOM      2  C   UNL     1       0.691  10.128  22.048  0.00  0.00    +0.000 A 
ATOM      3  N   UNL     1       0.193  11.215  22.690  0.00  0.00    +0.000 NA
ATOM      4  C   UNL     1      -0.730  11.939  22.073  0.00  0.00    +0.000 A 
ATOM      5  N   UNL     1      -1.138  13.082  22.729  0.00  0.00    +0.000 N 
ATOM      6  N   UNL     1      -1.205  11.643  20.865  0.00  0.00    +0.000 NA
ATOM      7  C   UNL     1      -0.740  10.555  20.222  0.00  0.00    +0.000 A 
ATOM      8  N   UNL     1      -1.408  10.223  19.034  0.00  0.00    +0.000 N 
ATOM      9  C   UNL     1       0.270   9.732  20.772  0.00  0.00    +0.000 A 
ATOM     10  H   UNL     1      -0.768  13.040  23.670  0.00  0.00    +0.000 HD
ATOM     11  H   UNL     1      -0.809   9.687  18.413  0.00  0.00    +0.000 HD
ENDROOT
BRANCH   9  12
ATOM     12  C   UNL     1       0.959   8.631  20.039  0.00  0.00    +0.000 A 
ATOM     13  N   UNL     1       1.194   7.403  20.481  0.00  0.00    +0.000 NA
ATOM     14  C   UNL     1       2.162   6.750  19.695  0.00  0.00    +0.000 A 
ATOM     15  C   UNL     1       2.767   5.484  19.906  0.00  0.00    +0.000 A 
ATOM     16  C   UNL     1       2.436   4.532  21.012  0.00  0.00    +0.000 C 
ATOM     17  N   UNL     1       3.778   5.077  19.072  0.00  0.00    +0.000 NA
ATOM     18  C   UNL     1       4.170   5.851  18.045  0.00  0.00    +0.000 A 
ATOM     19  C   UNL     1       3.594   7.060  17.728  0.00  0.00    +0.000 A 
ATOM     20  C   UNL     1       2.590   7.491  18.595  0.00  0.00    +0.000 A 
ATOM     21  S   UNL     1       1.735   8.965  18.530  0.00  0.00    +0.000 S 
ENDBRANCH   9  12
BRANCH   8  22
ATOM     22  C   UNL     1      -2.169  11.217  18.250  0.00  0.00    +0.000 C 
ATOM     23  C   UNL     1      -3.333  11.831  19.052  0.00  0.00    +0.000 C 
ATOM     24  C   UNL     1      -4.519  11.944  18.087  0.00  0.00    +0.000 C 
ATOM     25  C   UNL     1      -4.275  10.833  17.066  0.00  0.00    +0.000 C 
ATOM     26  C   UNL     1      -2.744  10.759  16.897  0.00  0.00    +0.000 C 
BRANCH  24  27
ATOM     27  C   UNL     1      -5.935  11.949  18.737  0.00  0.00    +0.000 C 
ATOM     28  C   UNL     1      -5.990  11.872  20.272  0.00  0.00    +0.000 C 
ATOM     29  C   UNL     1      -6.693  13.205  18.292  0.00  0.00    +0.000 C 
BRANCH  27  30
ATOM     30  O   UNL     1      -6.692  10.835  18.241  0.00  0.00    +0.000 OA
ATOM     31  H   UNL     1      -6.262  10.502  17.427  0.00  0.00    +0.000 HD
ENDBRANCH  27  30
ENDBRANCH  24  27
BRANCH  25  32
ATOM     32  O   UNL     1      -4.920  11.156  15.832  0.00  0.00    +0.000 OA
ATOM     33  H   UNL     1      -5.368  10.341  15.529  0.00  0.00    +0.000 HD
ENDBRANCH  25  32
BRANCH  26  34
ATOM     34  O   UNL     1      -2.317  11.647  15.847  0.00  0.00    +0.000 OA
ATOM     35  H   UNL     1      -1.690  12.288  16.231  0.00  0.00    +0.000 HD
ENDBRANCH  26  34
ENDBRANCH   8  22
BRANCH   5  36
ATOM     36  C   UNL     1      -2.527  13.498  22.615  0.00  0.00    +0.000 C 
ATOM     37  C   UNL     1      -3.417  12.295  22.921  0.00  0.00    +0.000 C 
BRANCH  36  38
ATOM     38  C   UNL     1      -2.795  14.052  21.240  0.00  0.00    +0.000 C 
ATOM     39  C   UNL     1      -3.919  15.037  21.012  0.00  0.00    +0.000 C 
ATOM     40  C   UNL     1      -2.492  15.504  20.952  0.00  0.00    +0.000 C 
ENDBRANCH  36  38
ENDBRANCH   5  36
TORSDOF 8
ENDMDL
MODEL 3
REMARK VINA RESULT:      -6.7      4.595      7.078
REMARK  Name = 
REMARK  13 active torsions:
REMARK  status: ('A' for Active; 'I' for Inactive)
REMARK    1  A    between atoms: C_1  and  C_2
REMARK    2  A    between atoms: N_5  and  C_6
REMARK    3  A    between atoms: C_6  and  C_7
REMARK    4  A    between atoms: C_6  and  C_8
REMARK    5  A    between atoms: N_13  and  C_14
REMARK    6  A    between atoms: C_16  and  C_17
REMARK    7  A    between atoms: C_17  and  C_18
REMARK    8  A    between atoms: C_17  and  C_19
REMARK    9  A    between atoms: C_17  and  O_20
REMARK   10  A    between atoms: C_21  and  O_22
REMARK   11  A    between atoms: C_23  and  O_24
REMARK   12  A    between atoms: C_25  and  C_26
REMARK   13  A    between atoms: C_29  and  C_30
REMARK                            x       y       z     vdW  Elec       q    Type
REMARK                         _______ _______ _______ _____ _____    ______ ____
ROOT
ATOM      1  C   UNL     1      -6.769  11.980  20.895  0.00  0.00    +0.000 C 
ATOM      2  C   UNL     1      -5.638  12.906  21.248  0.00  0.00    +0.000 A 
ATOM      3  N   UNL     1      -5.881  13.626  22.372  0.00  0.00    +0.000 NA
ATOM      4  C   UNL     1      -4.955  14.484  22.779  0.00  0.00    +0.000 A 
ATOM      5  N   UNL     1      -5.210  15.125  23.973  0.00  0.00    +0.000 N 
ATOM      6  N   UNL     1      -3.810  14.685  22.131  0.00  0.00    +0.000 NA
ATOM      7  C   UNL     1      -3.561  13.996  21.001  0.00  0.00    +0.000 A 
ATOM      8  N   UNL     1      -2.414  14.385  20.295  0.00  0.00    +0.000 N 
ATOM      9  C   UNL     1      -4.463  13.031  20.496  0.00  0.00    +0.000 A 
ATOM     10  H   UNL     1      -6.175  14.940  24.216  0.00  0.00    +0.000 HD
ATOM     11  H   UNL     1      -2.061  13.626  19.719  0.00  0.00    +0.000 HD
ENDROOT
BRANCH   9  12
ATOM     12  C   UNL     1      -4.168  12.104  19.365  0.00  0.00    +0.000 A 
ATOM     13  N   UNL     1      -3.068  11.385  19.190  0.00  0.00    +0.000 NA
ATOM     14  C   UNL     1      -2.968  10.912  17.868  0.00  0.00    +0.000 A 
ATOM     15  C   UNL     1      -1.896  10.213  17.256  0.00  0.00    +0.000 A 
ATOM     16  C   UNL     1      -0.639   9.771  17.939  0.00  0.00    +0.000 C 
ATOM     17  N   UNL     1      -1.955   9.937  15.913  0.00  0.00    +0.000 NA
ATOM     18  C   UNL     1      -3.031  10.293  15.189  0.00  0.00    +0.000 A 
ATOM     19  C   UNL     1      -4.142  10.912  15.714  0.00  0.00    +0.000 A 
ATOM     20  C   UNL     1      -4.068  11.224  17.072  0.00  0.00    +0.000 A 
ATOM     21  S   UNL     1      -5.232  12.053  18.003  0.00  0.00    +0.000 S 
ENDBRANCH   9  12
BRANCH   8  22
ATOM     22  C   UNL     1      -1.283  15.080  20.944  0.00  0.00    +0.000 C 
ATOM     23  C   UNL     1      -0.424  15.871  19.938  0.00  0.00    +0.000 C 
ATOM     24  C   UNL     1       1.038  15.658  20.348  0.00  0.00    +0.000 C 
ATOM     25  C   UNL     1       1.034  14.303  21.054  0.00  0.00    +0.000 C 
ATOM     26  C   UNL     1      -0.320  14.226  21.789  0.00  0.00    +0.000 C 
BRANCH  24  27
ATOM     27  C   UNL     1       2.099  15.815  19.217  0.00  0.00    +0.000 C 
ATOM     28  C   UNL     1       2.449  14.548  18.420  0.00  0.00    +0.000 C 
ATOM     29  C   UNL     1       1.632  16.890  18.228  0.00  0.00    +0.000 C 
BRANCH  27  30
ATOM     30  O   UNL     1       3.326  16.302  19.778  0.00  0.00    +0.000 OA
ATOM     31  H   UNL     1       3.121  17.045  20.383  0.00  0.00    +0.000 HD
ENDBRANCH  27  30
ENDBRANCH  24  27
BRANCH  25  32
ATOM     32  O   UNL     1       2.129  14.229  21.970  0.00  0.00    +0.000 OA
ATOM     33  H   UNL     1       2.182  13.298  22.266  0.00  0.00    +0.000 HD
ENDBRANCH  25  32
BRANCH  26  34
ATOM     34  O   UNL     1      -0.197  14.776  23.114  0.00  0.00    +0.000 OA
ATOM     35  H   UNL     1       0.293  14.134  23.662  0.00  0.00    +0.000 HD
ENDBRANCH  26  34
ENDBRANCH   8  22
BRANCH   5  36
ATOM     36  C   UNL     1      -4.770  16.501  24.138  0.00  0.00    +0.000 C 
ATOM     37  C   UNL     1      -3.802  16.560  25.318  0.00  0.00    +0.000 C 
BRANCH  36  38
ATOM     38  C   UNL     1      -5.956  17.407  24.345  0.00  0.00    +0.000 C 
ATOM     39  C   UNL     1      -6.151  18.631  23.479  0.00  0.00    +0.000 C 
ATOM     40  C   UNL     1      -7.055  17.442  23.310  0.00  0.00    +0.000 C 
ENDBRANCH  36  38
ENDBRANCH   5  36
TORSDOF 8
ENDMDL
MODEL 4
REMARK VINA RESULT:      -6.4      7.547     10.901
REMARK  Name = 
REMARK  13 active torsions:
REMARK  status: ('A' for Active; 'I' for Inactive)
REMARK    1  A    between atoms: C_1  and  C_2
REMARK    2  A    between atoms: N_5  and  C_6
REMARK    3  A    between atoms: C_6  and  C_7
REMARK    4  A    between atoms: C_6  and  C_8
REMARK    5  A    between atoms: N_13  and  C_14
REMARK    6  A    between atoms: C_16  and  C_17
REMARK    7  A    between atoms: C_17  and  C_18
REMARK    8  A    between atoms: C_17  and  C_19
REMARK    9  A    between atoms: C_17  and  O_20
REMARK   10  A    between atoms: C_21  and  O_22
REMARK   11  A    between atoms: C_23  and  O_24
REMARK   12  A    between atoms: C_25  and  C_26
REMARK   13  A    between atoms: C_29  and  C_30
REMARK                            x       y       z     vdW  Elec       q    Type
REMARK                         _______ _______ _______ _____ _____    ______ ____
ROOT
ATOM      1  C   UNL     1       1.668  16.698  18.795  0.00  0.00    +0.000 C 
ATOM      2  C   UNL     1       2.905  16.299  19.551  0.00  0.00    +0.000 A 
ATOM      3  N   UNL     1       3.956  17.123  19.310  0.00  0.00    +0.000 NA
ATOM      4  C   UNL     1       5.106  16.865  19.917  0.00  0.00    +0.000 A 
ATOM      5  N   UNL     1       6.116  17.782  19.709  0.00  0.00    +0.000 N 
ATOM      6  N   UNL     1       5.284  15.832  20.737  0.00  0.00    +0.000 NA
ATOM      7  C   UNL     1       4.260  14.991  20.972  0.00  0.00    +0.000 A 
ATOM      8  N   UNL     1       4.576  13.842  21.711  0.00  0.00    +0.000 N 
ATOM      9  C   UNL     1       2.980  15.190  20.403  0.00  0.00    +0.000 A 
ATOM     10  H   UNL     1       5.821  18.393  18.959  0.00  0.00    +0.000 HD
ATOM     11  H   UNL     1       3.757  13.472  22.185  0.00  0.00    +0.000 HD
ENDROOT
BRANCH   9  12
ATOM     12  C   UNL     1       1.760  14.412  20.767  0.00  0.00    +0.000 A 
ATOM     13  N   UNL     1       0.872  14.714  21.704  0.00  0.00    +0.000 NA
ATOM     14  C   UNL     1       0.064  13.606  22.022  0.00  0.00    +0.000 A 
ATOM     15  C   UNL     1      -0.913  13.487  23.044  0.00  0.00    +0.000 A 
ATOM     16  C   UNL     1      -1.337  14.577  23.978  0.00  0.00    +0.000 C 
ATOM     17  N   UNL     1      -1.516  12.273  23.258  0.00  0.00    +0.000 NA
ATOM     18  C   UNL     1      -1.211  11.214  22.487  0.00  0.00    +0.000 A 
ATOM     19  C   UNL     1      -0.326  11.257  21.434  0.00  0.00    +0.000 A 
ATOM     20  C   UNL     1       0.313  12.482  21.238  0.00  0.00    +0.000 A 
ATOM     21  S   UNL     1       1.510  12.846  20.080  0.00  0.00    +0.000 S 
ENDBRANCH   9  12
BRANCH   8  22
ATOM     22  C   UNL     1       5.742  13.780  22.616  0.00  0.00    +0.000 C 
ATOM     23  C   UNL     1       7.051  14.194  21.918  0.00  0.00    +0.000 C 
ATOM     24  C   UNL     1       8.136  13.230  22.412  0.00  0.00    +0.000 C 
ATOM     25  C   UNL     1       7.367  11.959  22.774  0.00  0.00    +0.000 C 
ATOM     26  C   UNL     1       6.012  12.442  23.329  0.00  0.00    +0.000 C 
BRANCH  24  27
ATOM     27  C   UNL     1       9.355  13.022  21.464  0.00  0.00    +0.000 C 
ATOM     28  C   UNL     1       9.038  12.739  19.986  0.00  0.00    +0.000 C 
ATOM     29  C   UNL     1      10.267  14.251  21.532  0.00  0.00    +0.000 C 
BRANCH  27  30
ATOM     30  O   UNL     1      10.143  11.918  21.934  0.00  0.00    +0.000 OA
ATOM     31  H   UNL     1       9.855  11.693  22.843  0.00  0.00    +0.000 HD
ENDBRANCH  27  30
ENDBRANCH  24  27
BRANCH  25  32
ATOM     32  O   UNL     1       8.095  11.213  23.753  0.00  0.00    +0.000 OA
ATOM     33  H   UNL     1       8.958  10.989  23.349  0.00  0.00    +0.000 HD
ENDBRANCH  25  32
BRANCH  26  34
ATOM     34  O   UNL     1       6.101  12.644  24.752  0.00  0.00    +0.000 OA
ATOM     35  H   UNL     1       5.372  12.150  25.173  0.00  0.00    +0.000 HD
ENDBRANCH  26  34
ENDBRANCH   8  22
BRANCH   5  36
ATOM     36  C   UNL     1       7.488  17.307  19.634  0.00  0.00    +0.000 C 
ATOM     37  C   UNL     1       8.416  18.447  20.048  0.00  0.00    +0.000 C 
BRANCH  36  38
ATOM     38  C   UNL     1       7.796  16.817  18.243  0.00  0.00    +0.000 C 
ATOM     39  C   UNL     1       8.917  15.832  18.003  0.00  0.00    +0.000 C 
ATOM     40  C   UNL     1       7.488  15.385  17.875  0.00  0.00    +0.000 C 
ENDBRANCH  36  38
ENDBRANCH   5  36
TORSDOF 8
ENDMDL
MODEL 5
REMARK VINA RESULT:      -6.4      0.984      1.513
REMARK  Name = 
REMARK  13 active torsions:
REMARK  status: ('A' for Active; 'I' for Inactive)
REMARK    1  A    between atoms: C_1  and  C_2
REMARK    2  A    between atoms: N_5  and  C_6
REMARK    3  A    between atoms: C_6  and  C_7
REMARK    4  A    between atoms: C_6  and  C_8
REMARK    5  A    between atoms: N_13  and  C_14
REMARK    6  A    between atoms: C_16  and  C_17
REMARK    7  A    between atoms: C_17  and  C_18
REMARK    8  A    between atoms: C_17  and  C_19
REMARK    9  A    between atoms: C_17  and  O_20
REMARK   10  A    between atoms: C_21  and  O_22
REMARK   11  A    between atoms: C_23  and  O_24
REMARK   12  A    between atoms: C_25  and  C_26
REMARK   13  A    between atoms: C_29  and  C_30
REMARK                            x       y       z     vdW  Elec       q    Type
REMARK                         _______ _______ _______ _____ _____    ______ ____
ROOT
ATOM      1  C   UNL     1       1.200   9.394  23.537  0.00  0.00    +0.000 C 
ATOM      2  C   UNL     1       0.300  10.032  22.516  0.00  0.00    +0.000 A 
ATOM      3  N   UNL     1      -0.381  11.097  23.009  0.00  0.00    +0.000 NA
ATOM      4  C   UNL     1      -1.213  11.738  22.201  0.00  0.00    +0.000 A 
ATOM      5  N   UNL     1      -1.813  12.865  22.723  0.00  0.00    +0.000 N 
ATOM      6  N   UNL     1      -1.426  11.379  20.936  0.00  0.00    +0.000 NA
ATOM      7  C   UNL     1      -0.775  10.312  20.435  0.00  0.00    +0.000 A 
ATOM      8  N   UNL     1      -1.178   9.904  19.155  0.00  0.00    +0.000 N 
ATOM      9  C   UNL     1       0.160   9.576  21.199  0.00  0.00    +0.000 A 
ATOM     10  H   UNL     1      -1.630  12.872  23.718  0.00  0.00    +0.000 HD
ATOM     11  H   UNL     1      -0.437   9.396  18.681  0.00  0.00    +0.000 HD
ENDROOT
BRANCH   9  12
ATOM     12  C   UNL     1       1.048   8.509  20.653  0.00  0.00    +0.000 A 
ATOM     13  N   UNL     1       1.872   8.610  19.618  0.00  0.00    +0.000 NA
ATOM     14  C   UNL     1       2.278   7.342  19.160  0.00  0.00    +0.000 A 
ATOM     15  C   UNL     1       3.054   7.020  18.017  0.00  0.00    +0.000 A 
ATOM     16  C   UNL     1       3.668   8.006  17.073  0.00  0.00    +0.000 C 
ATOM     17  N   UNL     1       3.245   5.702  17.685  0.00  0.00    +0.000 NA
ATOM     18  C   UNL     1       2.734   4.724  18.452  0.00  0.00    +0.000 A 
ATOM     19  C   UNL     1       2.028   4.944  19.613  0.00  0.00    +0.000 A 
ATOM     20  C   UNL     1       1.803   6.284  19.932  0.00  0.00    +0.000 A 
ATOM     21  S   UNL     1       0.906   6.893  21.248  0.00  0.00    +0.000 S 
ENDBRANCH   9  12
BRANCH   8  22
ATOM     22  C   UNL     1      -1.837  10.822  18.203  0.00  0.00    +0.000 C 
ATOM     23  C   UNL     1      -2.989  11.613  18.851  0.00  0.00    +0.000 C 
ATOM     24  C   UNL     1      -4.123  11.660  17.820  0.00  0.00    +0.000 C 
ATOM     25  C   UNL     1      -3.910  10.403  16.976  0.00  0.00    +0.000 C 
ATOM     26  C   UNL     1      -2.382  10.213  16.898  0.00  0.00    +0.000 C 
BRANCH  24  27
ATOM     27  C   UNL     1      -5.562  11.843  18.388  0.00  0.00    +0.000 C 
ATOM     28  C   UNL     1      -5.690  11.966  19.916  0.00  0.00    +0.000 C 
ATOM     29  C   UNL     1      -6.205  13.081  17.753  0.00  0.00    +0.000 C 
BRANCH  27  30
ATOM     30  O   UNL     1      -6.376  10.729  17.994  0.00  0.00    +0.000 OA
ATOM     31  H   UNL     1      -7.227  10.777  18.478  0.00  0.00    +0.000 HD
ENDBRANCH  27  30
ENDBRANCH  24  27
BRANCH  25  32
ATOM     32  O   UNL     1      -4.479  10.588  15.677  0.00  0.00    +0.000 OA
ATOM     33  H   UNL     1      -3.804  11.047  15.139  0.00  0.00    +0.000 HD
ENDBRANCH  25  32
BRANCH  26  34
ATOM     34  O   UNL     1      -1.851  10.916  15.759  0.00  0.00    +0.000 OA
ATOM     35  H   UNL     1      -2.603  11.251  15.235  0.00  0.00    +0.000 HD
ENDBRANCH  26  34
ENDBRANCH   8  22
BRANCH   5  36
ATOM     36  C   UNL     1      -3.177  13.179  22.330  0.00  0.00    +0.000 C 
ATOM     37  C   UNL     1      -3.137  14.324  21.319  0.00  0.00    +0.000 C 
BRANCH  36  38
ATOM     38  C   UNL     1      -4.001  13.534  23.540  0.00  0.00    +0.000 C 
ATOM     39  C   UNL     1      -5.411  13.011  23.693  0.00  0.00    +0.000 C 
ATOM     40  C   UNL     1      -4.314  12.469  24.565  0.00  0.00    +0.000 C 
ENDBRANCH  36  38
ENDBRANCH   5  36
TORSDOF 8
ENDMDL
MODEL 6
REMARK VINA RESULT:      -6.3      4.290      7.337
REMARK  Name = 
REMARK  13 active torsions:
REMARK  status: ('A' for Active; 'I' for Inactive)
REMARK    1  A    between atoms: C_1  and  C_2
REMARK    2  A    between atoms: N_5  and  C_6
REMARK    3  A    between atoms: C_6  and  C_7
REMARK    4  A    between atoms: C_6  and  C_8
REMARK    5  A    between atoms: N_13  and  C_14
REMARK    6  A    between atoms: C_16  and  C_17
REMARK    7  A    between atoms: C_17  and  C_18
REMARK    8  A    between atoms: C_17  and  C_19
REMARK    9  A    between atoms: C_17  and  O_20
REMARK   10  A    between atoms: C_21  and  O_22
REMARK   11  A    between atoms: C_23  and  O_24
REMARK   12  A    between atoms: C_25  and  C_26
REMARK   13  A    between atoms: C_29  and  C_30
REMARK                            x       y       z     vdW  Elec       q    Type
REMARK                         _______ _______ _______ _____ _____    ______ ____
ROOT
ATOM      1  C   UNL     1      -2.228  18.189  21.691  0.00  0.00    +0.000 C 
ATOM      2  C   UNL     1      -2.337  16.728  21.354  0.00  0.00    +0.000 A 
ATOM      3  N   UNL     1      -3.606  16.259  21.457  0.00  0.00    +0.000 NA
ATOM      4  C   UNL     1      -3.824  14.979  21.190  0.00  0.00    +0.000 A 
ATOM      5  N   UNL     1      -5.142  14.572  21.222  0.00  0.00    +0.000 N 
ATOM      6  N   UNL     1      -2.859  14.129  20.843  0.00  0.00    +0.000 NA
ATOM      7  C   UNL     1      -1.591  14.571  20.758  0.00  0.00    +0.000 A 
ATOM      8  N   UNL     1      -0.618  13.583  20.550  0.00  0.00    +0.000 N 
ATOM      9  C   UNL     1      -1.250  15.925  20.987  0.00  0.00    +0.000 A 
ATOM     10  H   UNL     1      -5.680  15.321  21.638  0.00  0.00    +0.000 HD
ATOM     11  H   UNL     1       0.212  13.970  20.110  0.00  0.00    +0.000 HD
ENDROOT
BRANCH   9  12
ATOM     12  C   UNL     1       0.094  16.517  20.727  0.00  0.00    +0.000 A 
ATOM     13  N   UNL     1       0.711  16.609  19.557  0.00  0.00    +0.000 NA
ATOM     14  C   UNL     1       2.083  16.884  19.720  0.00  0.00    +0.000 A 
ATOM     15  C   UNL     1       3.098  16.941  18.730  0.00  0.00    +0.000 A 
ATOM     16  C   UNL     1       2.891  16.778  17.257  0.00  0.00    +0.000 C 
ATOM     17  N   UNL     1       4.403  17.117  19.117  0.00  0.00    +0.000 NA
ATOM     18  C   UNL     1       4.715  17.268  20.416  0.00  0.00    +0.000 A 
ATOM     19  C   UNL     1       3.789  17.292  21.434  0.00  0.00    +0.000 A 
ATOM     20  C   UNL     1       2.466  17.078  21.045  0.00  0.00    +0.000 A 
ATOM     21  S   UNL     1       1.099  16.972  22.058  0.00  0.00    +0.000 S 
ENDBRANCH   9  12
BRANCH   8  22
ATOM     22  C   UNL     1      -0.936  12.274  19.943  0.00  0.00    +0.000 C 
ATOM     23  C   UNL     1      -1.026  11.147  20.989  0.00  0.00    +0.000 C 
ATOM     24  C   UNL     1      -0.352   9.917  20.367  0.00  0.00    +0.000 C 
ATOM     25  C   UNL     1       0.655  10.505  19.380  0.00  0.00    +0.000 C 
ATOM     26  C   UNL     1      -0.012  11.775  18.816  0.00  0.00    +0.000 C 
BRANCH  24  27
ATOM     27  C   UNL     1       0.228   8.873  21.367  0.00  0.00    +0.000 C 
ATOM     28  C   UNL     1       1.505   8.136  20.931  0.00  0.00    +0.000 C 
ATOM     29  C   UNL     1       0.503   9.555  22.712  0.00  0.00    +0.000 C 
BRANCH  27  30
ATOM     30  O   UNL     1      -0.760   7.865  21.631  0.00  0.00    +0.000 OA
ATOM     31  H   UNL     1      -0.630   7.127  21.000  0.00  0.00    +0.000 HD
ENDBRANCH  27  30
ENDBRANCH  24  27
BRANCH  25  32
ATOM     32  O   UNL     1       0.930   9.558  18.345  0.00  0.00    +0.000 OA
ATOM     33  H   UNL     1       0.447   8.740  18.578  0.00  0.00    +0.000 HD
ENDBRANCH  25  32
BRANCH  26  34
ATOM     34  O   UNL     1      -0.784  11.453  17.644  0.00  0.00    +0.000 OA
ATOM     35  H   UNL     1      -1.472  10.811  17.903  0.00  0.00    +0.000 HD
ENDBRANCH  26  34
ENDBRANCH   8  22
BRANCH   5  36
ATOM     36  C   UNL     1      -5.451  13.234  21.697  0.00  0.00    +0.000 C 
ATOM     37  C   UNL     1      -5.717  12.341  20.487  0.00  0.00    +0.000 C 
BRANCH  36  38
ATOM     38  C   UNL     1      -6.633  13.270  22.631  0.00  0.00    +0.000 C 
ATOM     39  C   UNL     1      -6.513  12.757  24.047  0.00  0.00    +0.000 C 
ATOM     40  C   UNL     1      -6.631  14.234  23.795  0.00  0.00    +0.000 C 
ENDBRANCH  36  38
ENDBRANCH   5  36
TORSDOF 8
ENDMDL
MODEL 7
REMARK VINA RESULT:      -6.3      3.574      4.952
REMARK  Name = 
REMARK  13 active torsions:
REMARK  status: ('A' for Active; 'I' for Inactive)
REMARK    1  A    between atoms: C_1  and  C_2
REMARK    2  A    between atoms: N_5  and  C_6
REMARK    3  A    between atoms: C_6  and  C_7
REMARK    4  A    between atoms: C_6  and  C_8
REMARK    5  A    between atoms: N_13  and  C_14
REMARK    6  A    between atoms: C_16  and  C_17
REMARK    7  A    between atoms: C_17  and  C_18
REMARK    8  A    between atoms: C_17  and  C_19
REMARK    9  A    between atoms: C_17  and  O_20
REMARK   10  A    between atoms: C_21  and  O_22
REMARK   11  A    between atoms: C_23  and  O_24
REMARK   12  A    between atoms: C_25  and  C_26
REMARK   13  A    between atoms: C_29  and  C_30
REMARK                            x       y       z     vdW  Elec       q    Type
REMARK                         _______ _______ _______ _____ _____    ______ ____
ROOT
ATOM      1  C   UNL     1      -0.125   9.134  22.821  0.00  0.00    +0.000 C 
ATOM      2  C   UNL     1      -0.138  10.452  22.099  0.00  0.00    +0.000 A 
ATOM      3  N   UNL     1      -0.549  11.478  22.886  0.00  0.00    +0.000 NA
ATOM      4  C   UNL     1      -0.608  12.691  22.354  0.00  0.00    +0.000 A 
ATOM      5  N   UNL     1      -0.946  13.712  23.217  0.00  0.00    +0.000 N 
ATOM      6  N   UNL     1      -0.300  12.948  21.084  0.00  0.00    +0.000 NA
ATOM      7  C   UNL     1       0.089  11.939  20.282  0.00  0.00    +0.000 A 
ATOM      8  N   UNL     1       0.233  12.266  18.926  0.00  0.00    +0.000 N 
ATOM      9  C   UNL     1       0.219  10.613  20.754  0.00  0.00    +0.000 A 
ATOM     10  H   UNL     1      -1.271  13.288  24.076  0.00  0.00    +0.000 HD
ATOM     11  H   UNL     1       0.879  11.633  18.462  0.00  0.00    +0.000 HD
ENDROOT
BRANCH   9  12
ATOM     12  C   UNL     1       0.822   9.492  19.976  0.00  0.00    +0.000 A 
ATOM     13  N   UNL     1       1.006   8.244  20.388  0.00  0.00    +0.000 NA
ATOM     14  C   UNL     1       1.908   7.556  19.554  0.00  0.00    +0.000 A 
ATOM     15  C   UNL     1       2.451   6.257  19.719  0.00  0.00    +0.000 A 
ATOM     16  C   UNL     1       2.111   5.302  20.821  0.00  0.00    +0.000 C 
ATOM     17  N   UNL     1       3.408   5.812  18.841  0.00  0.00    +0.000 NA
ATOM     18  C   UNL     1       3.803   6.584  17.814  0.00  0.00    +0.000 A 
ATOM     19  C   UNL     1       3.281   7.828  17.540  0.00  0.00    +0.000 A 
ATOM     20  C   UNL     1       2.334   8.295  18.452  0.00  0.00    +0.000 A 
ATOM     21  S   UNL     1       1.558   9.813  18.445  0.00  0.00    +0.000 S 
ENDBRANCH   9  12
BRANCH   8  22
ATOM     22  C   UNL     1       0.480  13.648  18.467  0.00  0.00    +0.000 C 
ATOM     23  C   UNL     1       1.964  13.904  18.141  0.00  0.00    +0.000 C 
ATOM     24  C   UNL     1       2.295  15.303  18.673  0.00  0.00    +0.000 C 
ATOM     25  C   UNL     1       1.309  15.507  19.822  0.00  0.00    +0.000 C 
ATOM     26  C   UNL     1       0.014  14.792  19.387  0.00  0.00    +0.000 C 
BRANCH  24  27
ATOM     27  C   UNL     1       3.790  15.569  19.023  0.00  0.00    +0.000 C 
ATOM     28  C   UNL     1       4.286  15.035  20.377  0.00  0.00    +0.000 C 
ATOM     29  C   UNL     1       4.682  14.986  17.921  0.00  0.00    +0.000 C 
BRANCH  27  30
ATOM     30  O   UNL     1       4.036  16.983  19.023  0.00  0.00    +0.000 OA
ATOM     31  H   UNL     1       4.139  17.282  18.096  0.00  0.00    +0.000 HD
ENDBRANCH  27  30
ENDBRANCH  24  27
BRANCH  25  32
ATOM     32  O   UNL     1       1.088  16.904  20.031  0.00  0.00    +0.000 OA
ATOM     33  H   UNL     1       0.965  17.027  20.994  0.00  0.00    +0.000 HD
ENDBRANCH  25  32
BRANCH  26  34
ATOM     34  O   UNL     1      -0.836  15.701  18.663  0.00  0.00    +0.000 OA
ATOM     35  H   UNL     1      -0.285  16.172  18.009  0.00  0.00    +0.000 HD
ENDBRANCH  26  34
ENDBRANCH   8  22
BRANCH   5  36
ATOM     36  C   UNL     1      -1.747  14.817  22.717  0.00  0.00    +0.000 C 
ATOM     37  C   UNL     1      -0.931  16.102  22.847  0.00  0.00    +0.000 C 
BRANCH  36  38
ATOM     38  C   UNL     1      -3.047  14.905  23.473  0.00  0.00    +0.000 C 
ATOM     39  C   UNL     1      -4.315  14.317  22.897  0.00  0.00    +0.000 C 
ATOM     40  C   UNL     1      -3.646  13.653  24.068  0.00  0.00    +0.000 C 
ENDBRANCH  36  38
ENDBRANCH   5  36
TORSDOF 8
ENDMDL
MODEL 8
REMARK VINA RESULT:      -6.2      3.698      6.674
REMARK  Name = 
REMARK  13 active torsions:
REMARK  status: ('A' for Active; 'I' for Inactive)
REMARK    1  A    between atoms: C_1  and  C_2
REMARK    2  A    between atoms: N_5  and  C_6
REMARK    3  A    between atoms: C_6  and  C_7
REMARK    4  A    between atoms: C_6  and  C_8
REMARK    5  A    between atoms: N_13  and  C_14
REMARK    6  A    between atoms: C_16  and  C_17
REMARK    7  A    between atoms: C_17  and  C_18
REMARK    8  A    between atoms: C_17  and  C_19
REMARK    9  A    between atoms: C_17  and  O_20
REMARK   10  A    between atoms: C_21  and  O_22
REMARK   11  A    between atoms: C_23  and  O_24
REMARK   12  A    between atoms: C_25  and  C_26
REMARK   13  A    between atoms: C_29  and  C_30
REMARK                            x       y       z     vdW  Elec       q    Type
REMARK                         _______ _______ _______ _____ _____    ______ ____
ROOT
ATOM      1  C   UNL     1      -3.300  10.313  17.711  0.00  0.00    +0.000 C 
ATOM      2  C   UNL     1      -3.623  11.451  18.638  0.00  0.00    +0.000 A 
ATOM      3  N   UNL     1      -4.859  11.968  18.423  0.00  0.00    +0.000 NA
ATOM      4  C   UNL     1      -5.253  12.984  19.178  0.00  0.00    +0.000 A 
ATOM      5  N   UNL     1      -6.549  13.414  18.981  0.00  0.00    +0.000 N 
ATOM      6  N   UNL     1      -4.491  13.532  20.122  0.00  0.00    +0.000 NA
ATOM      7  C   UNL     1      -3.254  13.047  20.335  0.00  0.00    +0.000 A 
ATOM      8  N   UNL     1      -2.461  13.783  21.227  0.00  0.00    +0.000 N 
ATOM      9  C   UNL     1      -2.744  11.944  19.611  0.00  0.00    +0.000 A 
ATOM     10  H   UNL     1      -6.892  12.969  18.139  0.00  0.00    +0.000 HD
ATOM     11  H   UNL     1      -1.742  13.200  21.647  0.00  0.00    +0.000 HD
ENDROOT
BRANCH   9  12
ATOM     12  C   UNL     1      -1.466  11.242  19.923  0.00  0.00    +0.000 A 
ATOM     13  N   UNL     1      -0.576  10.783  19.053  0.00  0.00    +0.000 NA
ATOM     14  C   UNL     1       0.313   9.875  19.659  0.00  0.00    +0.000 A 
ATOM     15  C   UNL     1       1.323   9.085  19.051  0.00  0.00    +0.000 A 
ATOM     16  C   UNL     1       1.696   9.110  17.602  0.00  0.00    +0.000 C 
ATOM     17  N   UNL     1       2.012   8.175  19.813  0.00  0.00    +0.000 NA
ATOM     18  C   UNL     1       1.759   8.055  21.128  0.00  0.00    +0.000 A 
ATOM     19  C   UNL     1       0.846   8.826  21.811  0.00  0.00    +0.000 A 
ATOM     20  C   UNL     1       0.121   9.727  21.031  0.00  0.00    +0.000 A 
ATOM     21  S   UNL     1      -1.128  10.765  21.550  0.00  0.00    +0.000 S 
ENDBRANCH   9  12
BRANCH   8  22
ATOM     22  C   UNL     1      -3.042  14.669  22.257  0.00  0.00    +0.000 C 
ATOM     23  C   UNL     1      -2.093  15.820  22.644  0.00  0.00    +0.000 C 
ATOM     24  C   UNL     1      -2.201  15.983  24.165  0.00  0.00    +0.000 C 
ATOM     25  C   UNL     1      -2.600  14.593  24.661  0.00  0.00    +0.000 C 
ATOM     26  C   UNL     1      -3.518  14.014  23.566  0.00  0.00    +0.000 C 
BRANCH  24  27
ATOM     27  C   UNL     1      -0.966  16.613  24.878  0.00  0.00    +0.000 C 
ATOM     28  C   UNL     1       0.167  17.123  23.972  0.00  0.00    +0.000 C 
ATOM     29  C   UNL     1      -1.430  17.774  25.765  0.00  0.00    +0.000 C 
BRANCH  27  30
ATOM     30  O   UNL     1      -0.382  15.647  25.764  0.00  0.00    +0.000 OA
ATOM     31  H   UNL     1      -0.758  15.778  26.660  0.00  0.00    +0.000 HD
ENDBRANCH  27  30
ENDBRANCH  24  27
BRANCH  25  32
ATOM     32  O   UNL     1      -3.285  14.701  25.911  0.00  0.00    +0.000 OA
ATOM     33  H   UNL     1      -2.711  15.232  26.499  0.00  0.00    +0.000 HD
ENDBRANCH  25  32
BRANCH  26  34
ATOM     34  O   UNL     1      -4.889  14.365  23.830  0.00  0.00    +0.000 OA
ATOM     35  H   UNL     1      -5.084  15.196  23.357  0.00  0.00    +0.000 HD
ENDBRANCH  26  34
ENDBRANCH   8  22
BRANCH   5  36
ATOM     36  C   UNL     1      -6.844  14.832  19.110  0.00  0.00    +0.000 C 
ATOM     37  C   UNL     1      -7.638  15.045  20.397  0.00  0.00    +0.000 C 
BRANCH  36  38
ATOM     38  C   UNL     1      -7.601  15.320  17.902  0.00  0.00    +0.000 C 
ATOM     39  C   UNL     1      -6.959  16.277  16.924  0.00  0.00    +0.000 C 
ATOM     40  C   UNL     1      -7.193  14.846  16.527  0.00  0.00    +0.000 C 
ENDBRANCH  36  38
ENDBRANCH   5  36
TORSDOF 8
ENDMDL
MODEL 9
REMARK VINA RESULT:      -6.1      3.441      6.395
REMARK  Name = 
REMARK  13 active torsions:
REMARK  status: ('A' for Active; 'I' for Inactive)
REMARK    1  A    between atoms: C_1  and  C_2
REMARK    2  A    between atoms: N_5  and  C_6
REMARK    3  A    between atoms: C_6  and  C_7
REMARK    4  A    between atoms: C_6  and  C_8
REMARK    5  A    between atoms: N_13  and  C_14
REMARK    6  A    between atoms: C_16  and  C_17
REMARK    7  A    between atoms: C_17  and  C_18
REMARK    8  A    between atoms: C_17  and  C_19
REMARK    9  A    between atoms: C_17  and  O_20
REMARK   10  A    between atoms: C_21  and  O_22
REMARK   11  A    between atoms: C_23  and  O_24
REMARK   12  A    between atoms: C_25  and  C_26
REMARK   13  A    between atoms: C_29  and  C_30
REMARK                            x       y       z     vdW  Elec       q    Type
REMARK                         _______ _______ _______ _____ _____    ______ ____
ROOT
ATOM      1  C   UNL     1      -2.625  10.720  16.920  0.00  0.00    +0.000 C 
ATOM      2  C   UNL     1      -3.277  11.462  18.054  0.00  0.00    +0.000 A 
ATOM      3  N   UNL     1      -4.516  11.918  17.739  0.00  0.00    +0.000 NA
ATOM      4  C   UNL     1      -5.187  12.594  18.661  0.00  0.00    +0.000 A 
ATOM      5  N   UNL     1      -6.474  12.958  18.324  0.00  0.00    +0.000 N 
ATOM      6  N   UNL     1      -4.700  12.863  19.871  0.00  0.00    +0.000 NA
ATOM      7  C   UNL     1      -3.463  12.438  20.193  0.00  0.00    +0.000 A 
ATOM      8  N   UNL     1      -2.964  12.903  21.419  0.00  0.00    +0.000 N 
ATOM      9  C   UNL     1      -2.673  11.679  19.299  0.00  0.00    +0.000 A 
ATOM     10  H   UNL     1      -6.588  12.787  17.333  0.00  0.00    +0.000 HD
ATOM     11  H   UNL     1      -2.256  12.276  21.789  0.00  0.00    +0.000 HD
ENDROOT
BRANCH   9  12
ATOM     12  C   UNL     1      -1.383  11.020  19.657  0.00  0.00    +0.000 A 
ATOM     13  N   UNL     1      -0.476  10.538  18.819  0.00  0.00    +0.000 NA
ATOM     14  C   UNL     1       0.426   9.681  19.477  0.00  0.00    +0.000 A 
ATOM     15  C   UNL     1       1.458   8.883  18.918  0.00  0.00    +0.000 A 
ATOM     16  C   UNL     1       1.846   8.845  17.473  0.00  0.00    +0.000 C 
ATOM     17  N   UNL     1       2.158   8.026  19.730  0.00  0.00    +0.000 NA
ATOM     18  C   UNL     1       1.895   7.965  21.047  0.00  0.00    +0.000 A 
ATOM     19  C   UNL     1       0.959   8.749  21.683  0.00  0.00    +0.000 A 
ATOM     20  C   UNL     1       0.223   9.596  20.853  0.00  0.00    +0.000 A 
ATOM     21  S   UNL     1      -1.053  10.631  21.308  0.00  0.00    +0.000 S 
ENDBRANCH   9  12
BRANCH   8  22
ATOM     22  C   UNL     1      -3.848  13.352  22.514  0.00  0.00    +0.000 C 
ATOM     23  C   UNL     1      -3.978  14.887  22.572  0.00  0.00    +0.000 C 
ATOM     24  C   UNL     1      -3.947  15.273  24.056  0.00  0.00    +0.000 C 
ATOM     25  C   UNL     1      -3.146  14.151  24.716  0.00  0.00    +0.000 C 
ATOM     26  C   UNL     1      -3.510  12.871  23.937  0.00  0.00    +0.000 C 
BRANCH  24  27
ATOM     27  C   UNL     1      -3.461  16.717  24.380  0.00  0.00    +0.000 C 
ATOM     28  C   UNL     1      -2.958  17.558  23.195  0.00  0.00    +0.000 C 
ATOM     29  C   UNL     1      -4.590  17.490  25.072  0.00  0.00    +0.000 C 
BRANCH  27  30
ATOM     30  O   UNL     1      -2.385  16.657  25.328  0.00  0.00    +0.000 OA
ATOM     31  H   UNL     1      -1.622  17.153  24.967  0.00  0.00    +0.000 HD
ENDBRANCH  27  30
ENDBRANCH  24  27
BRANCH  25  32
ATOM     32  O   UNL     1      -3.508  14.042  26.095  0.00  0.00    +0.000 OA
ATOM     33  H   UNL     1      -3.488  13.089  26.315  0.00  0.00    +0.000 HD
ENDBRANCH  25  32
BRANCH  26  34
ATOM     34  O   UNL     1      -4.655  12.235  24.534  0.00  0.00    +0.000 OA
ATOM     35  H   UNL     1      -5.098  12.888  25.108  0.00  0.00    +0.000 HD
ENDBRANCH  26  34
ENDBRANCH   8  22
BRANCH   5  36
ATOM     36  C   UNL     1      -6.994  14.226  18.809  0.00  0.00    +0.000 C 
ATOM     37  C   UNL     1      -7.915  13.948  19.995  0.00  0.00    +0.000 C 
BRANCH  36  38
ATOM     38  C   UNL     1      -7.715  14.952  17.703  0.00  0.00    +0.000 C 
ATOM     39  C   UNL     1      -7.037  16.070  16.945  0.00  0.00    +0.000 C 
ATOM     40  C   UNL     1      -7.278  14.748  16.271  0.00  0.00    +0.000 C 
ENDBRANCH  36  38
ENDBRANCH   5  36
TORSDOF 8
ENDMDL
