MODEL 1
REMARK VINA RESULT:      -7.1      0.000      0.000
REMARK  Name = 
REMARK  4 active torsions:
REMARK  status: ('A' for Active; 'I' for Inactive)
REMARK    1  A    between atoms: C_1  and  C_2
REMARK    2  A    between atoms: C_2  and  C_3
REMARK    3  A    between atoms: C_4  and  C_5
REMARK    4  A    between atoms: N_14  and  O_15
REMARK                            x       y       z     vdW  Elec       q    Type
REMARK                         _______ _______ _______ _____ _____    ______ ____
ROOT
ATOM      1  C   UNL     1       5.484   4.451  14.683  0.00  0.00    +0.000 C 
ATOM      2  C   UNL     1       5.665   5.327  15.932  0.00  0.00    +0.000 C 
ATOM      3  C   UNL     1       4.885   6.639  15.740  0.00  0.00    +0.000 C 
ATOM      4  C   UNL     1       5.216   4.680  17.262  0.00  0.00    +0.000 C 
ATOM      5  N   UNL     1       6.224   4.716  18.095  0.00  0.00    +0.000 N 
ATOM      6  O   UNL     1       6.227   4.270  19.288  0.00  0.00    +0.000 OA
ATOM      7  C   UNL     1       7.399   5.378  17.538  0.00  0.00    +0.000 C 
ATOM      8  N   UNL     1       7.110   5.724  16.136  0.00  0.00    +0.000 NA
ENDROOT
BRANCH   4   9
ATOM      9  C   UNL     1       3.853   4.195  17.608  0.00  0.00    +0.000 A 
ATOM     10  C   UNL     1       2.852   5.064  18.050  0.00  0.00    +0.000 A 
ATOM     11  C   UNL     1       1.588   4.583  18.413  0.00  0.00    +0.000 A 
ATOM     12  C   UNL     1       1.300   3.226  18.321  0.00  0.00    +0.000 A 
ATOM     13  C   UNL     1       2.280   2.348  17.873  0.00  0.00    +0.000 A 
ATOM     14  C   UNL     1       3.549   2.827  17.531  0.00  0.00    +0.000 A 
ENDBRANCH   4   9
BRANCH   8  15
ATOM     15  O   UNL     1       7.964   4.818  15.377  0.00  0.00    +0.000 OA
ATOM     16  H   UNL     1       8.834   4.974  15.797  0.00  0.00    +0.000 HD
ENDBRANCH   8  15
TORSDOF 2
ENDMDL
MODEL 2
REMARK VINA RESULT:      -7.0      1.750      1.775
REMARK  Name = 
REMARK  4 active torsions:
REMARK  status: ('A' for Active; 'I' for Inactive)
REMARK    1  A    between atoms: C_1  and  C_2
REMARK    2  A    between atoms: C_2  and  C_3
REMARK    3  A    between atoms: C_4  and  C_5
REMARK    4  A    between atoms: N_14  and  O_15
REMARK                            x       y       z     vdW  Elec       q    Type
REMARK                         _______ _______ _______ _____ _____    ______ ____
ROOT
ATOM      1  C   UNL     1       5.136   4.805  15.932  0.00  0.00    +0.000 C 
ATOM      2  C   UNL     1       5.462   5.860  17.000  0.00  0.00    +0.000 C 
ATOM      3  C   UNL     1       4.382   6.955  16.967  0.00  0.00    +0.000 C 
ATOM      4  C   UNL     1       5.572   5.322  18.445  0.00  0.00    +0.000 C 
ATOM      5  N   UNL     1       6.740   5.668  18.922  0.00  0.00    +0.000 N 
ATOM      6  O   UNL     1       7.186   5.396  20.083  0.00  0.00    +0.000 OA
ATOM      7  C   UNL     1       7.524   6.466  17.984  0.00  0.00    +0.000 C 
ATOM      8  N   UNL     1       6.775   6.556  16.720  0.00  0.00    +0.000 NA
ENDROOT
BRANCH   4   9
ATOM      9  C   UNL     1       4.513   4.631  19.228  0.00  0.00    +0.000 A 
ATOM     10  C   UNL     1       3.476   5.334  19.846  0.00  0.00    +0.000 A 
ATOM     11  C   UNL     1       2.512   4.670  20.616  0.00  0.00    +0.000 A 
ATOM     12  C   UNL     1       2.562   3.289  20.762  0.00  0.00    +0.000 A 
ATOM     13  C   UNL     1       3.579   2.571  20.145  0.00  0.00    +0.000 A 
ATOM     14  C   UNL     1       4.553   3.238  19.394  0.00  0.00    +0.000 A 
ENDBRANCH   4   9
BRANCH   8  15
ATOM     15  O   UNL     1       7.559   5.741  15.800  0.00  0.00    +0.000 OA
ATOM     16  H   UNL     1       6.979   5.724  15.012  0.00  0.00    +0.000 HD
ENDBRANCH   8  15
TORSDOF 2
ENDMDL
MODEL 3
REMARK VINA RESULT:      -7.0      1.748      2.162
REMARK  Name = 
REMARK  4 active torsions:
REMARK  status: ('A' for Active; 'I' for Inactive)
REMARK    1  A    between atoms: C_1  and  C_2
REMARK    2  A    between atoms: C_2  and  C_3
REMARK    3  A    between atoms: C_4  and  C_5
REMARK    4  A    between atoms: N_14  and  O_15
REMARK                            x       y       z     vdW  Elec       q    Type
REMARK                         _______ _______ _______ _____ _____    ______ ____
ROOT
ATOM      1  C   UNL     1       5.133   4.875  15.946  0.00  0.00    +0.000 C 
ATOM      2  C   UNL     1       5.465   5.910  17.031  0.00  0.00    +0.000 C 
ATOM      3  C   UNL     1       4.379   6.999  17.034  0.00  0.00    +0.000 C 
ATOM      4  C   UNL     1       5.596   5.343  18.464  0.00  0.00    +0.000 C 
ATOM      5  N   UNL     1       6.768   5.687  18.934  0.00  0.00    +0.000 N 
ATOM      6  O   UNL     1       7.230   5.394  20.084  0.00  0.00    +0.000 OA
ATOM      7  C   UNL     1       7.535   6.509  18.003  0.00  0.00    +0.000 C 
ATOM      8  N   UNL     1       6.771   6.620  16.750  0.00  0.00    +0.000 NA
ENDROOT
BRANCH   4   9
ATOM      9  C   UNL     1       4.551   4.630  19.245  0.00  0.00    +0.000 A 
ATOM     10  C   UNL     1       4.552   3.239  19.378  0.00  0.00    +0.000 A 
ATOM     11  C   UNL     1       3.534   2.581  20.081  0.00  0.00    +0.000 A 
ATOM     12  C   UNL     1       2.511   3.308  20.679  0.00  0.00    +0.000 A 
ATOM     13  C   UNL     1       2.501   4.693  20.567  0.00  0.00    +0.000 A 
ATOM     14  C   UNL     1       3.506   5.347  19.847  0.00  0.00    +0.000 A 
ENDBRANCH   4   9
BRANCH   8  15
ATOM     15  O   UNL     1       7.549   5.828  15.804  0.00  0.00    +0.000 OA
ATOM     16  H   UNL     1       6.875   5.617  15.127  0.00  0.00    +0.000 HD
ENDBRANCH   8  15
TORSDOF 2
ENDMDL
MODEL 4
REMARK VINA RESULT:      -7.0      0.093      1.242
REMARK  Name = 
REMARK  4 active torsions:
REMARK  status: ('A' for Active; 'I' for Inactive)
REMARK    1  A    between atoms: C_1  and  C_2
REMARK    2  A    between atoms: C_2  and  C_3
REMARK    3  A    between atoms: C_4  and  C_5
REMARK    4  A    between atoms: N_14  and  O_15
REMARK                            x       y       z     vdW  Elec       q    Type
REMARK                         _______ _______ _______ _____ _____    ______ ____
ROOT
ATOM      1  C   UNL     1       5.503   4.438  14.750  0.00  0.00    +0.000 C 
ATOM      2  C   UNL     1       5.682   5.342  15.979  0.00  0.00    +0.000 C 
ATOM      3  C   UNL     1       4.885   6.640  15.765  0.00  0.00    +0.000 C 
ATOM      4  C   UNL     1       5.251   4.717  17.326  0.00  0.00    +0.000 C 
ATOM      5  N   UNL     1       6.264   4.784  18.150  0.00  0.00    +0.000 N 
ATOM      6  O   UNL     1       6.281   4.362  19.352  0.00  0.00    +0.000 OA
ATOM      7  C   UNL     1       7.427   5.448  17.570  0.00  0.00    +0.000 C 
ATOM      8  N   UNL     1       7.124   5.760  16.164  0.00  0.00    +0.000 NA
ENDROOT
BRANCH   4   9
ATOM      9  C   UNL     1       3.897   4.223  17.692  0.00  0.00    +0.000 A 
ATOM     10  C   UNL     1       3.537   2.881  17.545  0.00  0.00    +0.000 A 
ATOM     11  C   UNL     1       2.243   2.443  17.854  0.00  0.00    +0.000 A 
ATOM     12  C   UNL     1       1.295   3.339  18.334  0.00  0.00    +0.000 A 
ATOM     13  C   UNL     1       1.638   4.676  18.498  0.00  0.00    +0.000 A 
ATOM     14  C   UNL     1       2.924   5.116  18.168  0.00  0.00    +0.000 A 
ENDBRANCH   4   9
BRANCH   8  15
ATOM     15  O   UNL     1       7.983   4.849  15.419  0.00  0.00    +0.000 OA
ATOM     16  H   UNL     1       8.416   5.460  14.789  0.00  0.00    +0.000 HD
ENDBRANCH   8  15
TORSDOF 2
ENDMDL
MODEL 5
REMARK VINA RESULT:      -6.7      2.992      5.249
REMARK  Name = 
REMARK  4 active torsions:
REMARK  status: ('A' for Active; 'I' for Inactive)
REMARK    1  A    between atoms: C_1  and  C_2
REMARK    2  A    between atoms: C_2  and  C_3
REMARK    3  A    between atoms: C_4  and  C_5
REMARK    4  A    between atoms: N_14  and  O_15
REMARK                            x       y       z     vdW  Elec       q    Type
REMARK                         _______ _______ _______ _____ _____    ______ ____
ROOT
ATOM      1  C   UNL     1       2.269   5.268  19.992  0.00  0.00    +0.000 C 
ATOM      2  C   UNL     1       2.029   4.185  18.928  0.00  0.00    +0.000 C 
ATOM      3  C   UNL     1       1.470   4.847  17.658  0.00  0.00    +0.000 C 
ATOM      4  C   UNL     1       3.274   3.354  18.541  0.00  0.00    +0.000 C 
ATOM      5  N   UNL     1       2.989   2.088  18.713  0.00  0.00    +0.000 N 
ATOM      6  O   UNL     1       3.774   1.109  18.500  0.00  0.00    +0.000 OA
ATOM      7  C   UNL     1       1.617   1.869  19.156  0.00  0.00    +0.000 C 
ATOM      8  N   UNL     1       0.987   3.182  19.372  0.00  0.00    +0.000 NA
ENDROOT
BRANCH   4   9
ATOM      9  C   UNL     1       4.546   3.861  17.962  0.00  0.00    +0.000 A 
ATOM     10  C   UNL     1       4.806   3.803  16.590  0.00  0.00    +0.000 A 
ATOM     11  C   UNL     1       6.028   4.246  16.068  0.00  0.00    +0.000 A 
ATOM     12  C   UNL     1       7.002   4.771  16.910  0.00  0.00    +0.000 A 
ATOM     13  C   UNL     1       6.756   4.848  18.276  0.00  0.00    +0.000 A 
ATOM     14  C   UNL     1       5.543   4.385  18.798  0.00  0.00    +0.000 A 
ENDBRANCH   4   9
BRANCH   8  15
ATOM     15  O   UNL     1       0.841   3.257  20.821  0.00  0.00    +0.000 OA
ATOM     16  H   UNL     1       0.965   2.321  21.078  0.00  0.00    +0.000 HD
ENDBRANCH   8  15
TORSDOF 2
ENDMDL
MODEL 6
REMARK VINA RESULT:      -6.6      2.994      5.212
REMARK  Name = 
REMARK  4 active torsions:
REMARK  status: ('A' for Active; 'I' for Inactive)
REMARK    1  A    between atoms: C_1  and  C_2
REMARK    2  A    between atoms: C_2  and  C_3
REMARK    3  A    between atoms: C_4  and  C_5
REMARK    4  A    between atoms: N_14  and  O_15
REMARK                            x       y       z     vdW  Elec       q    Type
REMARK                         _______ _______ _______ _____ _____    ______ ____
ROOT
ATOM      1  C   UNL     1       2.245   5.232  20.073  0.00  0.00    +0.000 C 
ATOM      2  C   UNL     1       2.018   4.177  18.981  0.00  0.00    +0.000 C 
ATOM      3  C   UNL     1       1.481   4.871  17.718  0.00  0.00    +0.000 C 
ATOM      4  C   UNL     1       3.266   3.350  18.593  0.00  0.00    +0.000 C 
ATOM      5  N   UNL     1       2.975   2.082  18.730  0.00  0.00    +0.000 N 
ATOM      6  O   UNL     1       3.760   1.105  18.506  0.00  0.00    +0.000 OA
ATOM      7  C   UNL     1       1.595   1.857  19.147  0.00  0.00    +0.000 C 
ATOM      8  N   UNL     1       0.967   3.167  19.384  0.00  0.00    +0.000 NA
ENDROOT
BRANCH   4   9
ATOM      9  C   UNL     1       4.549   3.867  18.046  0.00  0.00    +0.000 A 
ATOM     10  C   UNL     1       5.518   4.451  18.866  0.00  0.00    +0.000 A 
ATOM     11  C   UNL     1       6.701   4.972  18.327  0.00  0.00    +0.000 A 
ATOM     12  C   UNL     1       6.941   4.897  16.960  0.00  0.00    +0.000 A 
ATOM     13  C   UNL     1       5.994   4.309  16.130  0.00  0.00    +0.000 A 
ATOM     14  C   UNL     1       4.803   3.809  16.667  0.00  0.00    +0.000 A 
ENDBRANCH   4   9
BRANCH   8  15
ATOM     15  O   UNL     1       0.798   3.208  20.832  0.00  0.00    +0.000 OA
ATOM     16  H   UNL     1       1.181   4.082  21.047  0.00  0.00    +0.000 HD
ENDBRANCH   8  15
TORSDOF 2
ENDMDL
MODEL 7
REMARK VINA RESULT:      -6.6      2.681      4.826
REMARK  Name = 
REMARK  4 active torsions:
REMARK  status: ('A' for Active; 'I' for Inactive)
REMARK    1  A    between atoms: C_1  and  C_2
REMARK    2  A    between atoms: C_2  and  C_3
REMARK    3  A    between atoms: C_4  and  C_5
REMARK    4  A    between atoms: N_14  and  O_15
REMARK                            x       y       z     vdW  Elec       q    Type
REMARK                         _______ _______ _______ _____ _____    ______ ____
ROOT
ATOM      1  C   UNL     1       2.874   6.382  19.099  0.00  0.00    +0.000 C 
ATOM      2  C   UNL     1       2.710   4.859  18.986  0.00  0.00    +0.000 C 
ATOM      3  C   UNL     1       1.837   4.539  17.761  0.00  0.00    +0.000 C 
ATOM      4  C   UNL     1       4.029   4.060  18.871  0.00  0.00    +0.000 C 
ATOM      5  N   UNL     1       4.048   3.163  19.824  0.00  0.00    +0.000 N 
ATOM      6  O   UNL     1       4.980   2.325  20.045  0.00  0.00    +0.000 OA
ATOM      7  C   UNL     1       2.836   3.171  20.637  0.00  0.00    +0.000 C 
ATOM      8  N   UNL     1       1.983   4.281  20.181  0.00  0.00    +0.000 NA
ENDROOT
BRANCH   4   9
ATOM      9  C   UNL     1       5.062   4.184  17.809  0.00  0.00    +0.000 A 
ATOM     10  C   UNL     1       6.357   4.629  18.089  0.00  0.00    +0.000 A 
ATOM     11  C   UNL     1       7.304   4.781  17.068  0.00  0.00    +0.000 A 
ATOM     12  C   UNL     1       6.974   4.471  15.754  0.00  0.00    +0.000 A 
ATOM     13  C   UNL     1       5.695   4.016  15.458  0.00  0.00    +0.000 A 
ATOM     14  C   UNL     1       4.744   3.885  16.476  0.00  0.00    +0.000 A 
ENDBRANCH   4   9
BRANCH   8  15
ATOM     15  O   UNL     1       2.046   5.235  21.283  0.00  0.00    +0.000 OA
ATOM     16  H   UNL     1       2.858   4.944  21.745  0.00  0.00    +0.000 HD
ENDBRANCH   8  15
TORSDOF 2
ENDMDL
MODEL 8
REMARK VINA RESULT:      -6.6      2.621      4.881
REMARK  Name = 
REMARK  4 active torsions:
REMARK  status: ('A' for Active; 'I' for Inactive)
REMARK    1  A    between atoms: C_1  and  C_2
REMARK    2  A    between atoms: C_2  and  C_3
REMARK    3  A    between atoms: C_4  and  C_5
REMARK    4  A    between atoms: N_14  and  O_15
REMARK                            x       y       z     vdW  Elec       q    Type
REMARK                         _______ _______ _______ _____ _____    ______ ____
ROOT
ATOM      1  C   UNL     1       2.789   6.516  19.083  0.00  0.00    +0.000 C 
ATOM      2  C   UNL     1       2.672   4.990  18.948  0.00  0.00    +0.000 C 
ATOM      3  C   UNL     1       1.782   4.663  17.737  0.00  0.00    +0.000 C 
ATOM      4  C   UNL     1       4.012   4.237  18.791  0.00  0.00    +0.000 C 
ATOM      5  N   UNL     1       4.081   3.326  19.728  0.00  0.00    +0.000 N 
ATOM      6  O   UNL     1       5.045   2.515  19.914  0.00  0.00    +0.000 OA
ATOM      7  C   UNL     1       2.888   3.281  20.567  0.00  0.00    +0.000 C 
ATOM      8  N   UNL     1       1.991   4.370  20.149  0.00  0.00    +0.000 NA
ENDROOT
BRANCH   4   9
ATOM      9  C   UNL     1       5.017   4.411  17.709  0.00  0.00    +0.000 A 
ATOM     10  C   UNL     1       4.905   3.747  16.485  0.00  0.00    +0.000 A 
ATOM     11  C   UNL     1       5.885   3.889  15.494  0.00  0.00    +0.000 A 
ATOM     12  C   UNL     1       6.982   4.715  15.706  0.00  0.00    +0.000 A 
ATOM     13  C   UNL     1       7.105   5.393  16.913  0.00  0.00    +0.000 A 
ATOM     14  C   UNL     1       6.137   5.233  17.910  0.00  0.00    +0.000 A 
ENDBRANCH   4   9
BRANCH   8  15
ATOM     15  O   UNL     1       2.048   5.307  21.264  0.00  0.00    +0.000 OA
ATOM     16  H   UNL     1       2.336   6.127  20.815  0.00  0.00    +0.000 HD
ENDBRANCH   8  15
TORSDOF 2
ENDMDL
MODEL 9
REMARK VINA RESULT:      -6.5      1.744      2.359
REMARK  Name = 
REMARK  4 active torsions:
REMARK  status: ('A' for Active; 'I' for Inactive)
REMARK    1  A    between atoms: C_1  and  C_2
REMARK    2  A    between atoms: C_2  and  C_3
REMARK    3  A    between atoms: C_4  and  C_5
REMARK    4  A    between atoms: N_14  and  O_15
REMARK                            x       y       z     vdW  Elec       q    Type
REMARK                         _______ _______ _______ _____ _____    ______ ____
ROOT
ATOM      1  C   UNL     1       7.455   4.424  17.339  0.00  0.00    +0.000 C 
ATOM      2  C   UNL     1       6.271   4.945  16.511  0.00  0.00    +0.000 C 
ATOM      3  C   UNL     1       6.072   4.029  15.291  0.00  0.00    +0.000 C 
ATOM      4  C   UNL     1       4.929   5.048  17.272  0.00  0.00    +0.000 C 
ATOM      5  N   UNL     1       4.488   6.275  17.158  0.00  0.00    +0.000 N 
ATOM      6  O   UNL     1       3.411   6.733  17.660  0.00  0.00    +0.000 OA
ATOM      7  C   UNL     1       5.352   7.116  16.336  0.00  0.00    +0.000 C 
ATOM      8  N   UNL     1       6.536   6.328  15.957  0.00  0.00    +0.000 NA
ENDROOT
BRANCH   4   9
ATOM      9  C   UNL     1       4.184   3.942  17.929  0.00  0.00    +0.000 A 
ATOM     10  C   UNL     1       4.540   3.464  19.193  0.00  0.00    +0.000 A 
ATOM     11  C   UNL     1       3.854   2.391  19.778  0.00  0.00    +0.000 A 
ATOM     12  C   UNL     1       2.788   1.794  19.114  0.00  0.00    +0.000 A 
ATOM     13  C   UNL     1       2.413   2.264  17.861  0.00  0.00    +0.000 A 
ATOM     14  C   UNL     1       3.113   3.321  17.270  0.00  0.00    +0.000 A 
ENDBRANCH   4   9
BRANCH   8  15
ATOM     15  O   UNL     1       7.616   6.945  16.719  0.00  0.00    +0.000 OA
ATOM     16  H   UNL     1       8.045   6.162  17.118  0.00  0.00    +0.000 HD
ENDBRANCH   8  15
TORSDOF 2
ENDMDL
