MODEL 1
REMARK VINA RESULT:      -7.3      0.000      0.000
REMARK  Name = 
REMARK  8 active torsions:
REMARK  status: ('A' for Active; 'I' for Inactive)
REMARK    1  A    between atoms: C_1  and  C_2
REMARK    2  A    between atoms: C_2  and  N_3
REMARK    3  A    between atoms: C_9  and  N_10
REMARK    4  A    between atoms: N_13  and  C_14
REMARK    5  A    between atoms: C_21  and  C_22
REMARK    6  A    between atoms: N_24  and  C_25
REMARK    7  A    between atoms: C_25  and  C_26
REMARK    8  A    between atoms: C_26  and  O_27
REMARK                            x       y       z     vdW  Elec       q    Type
REMARK                         _______ _______ _______ _____ _____    ______ ____
ROOT
ATOM      1  N   UNL     1       2.573   1.730  18.886  0.00  0.00    +0.000 NA
ATOM      2  C   UNL     1       2.168   2.270  17.573  0.00  0.00    +0.000 C 
ATOM      3  C   UNL     1       2.701   3.705  17.382  0.00  0.00    +0.000 C 
ATOM      4  C   UNL     1       2.446   4.554  18.611  0.00  0.00    +0.000 A 
ATOM      5  C   UNL     1       1.903   3.944  19.738  0.00  0.00    +0.000 A 
ATOM      6  S   UNL     1       1.590   5.076  20.898  0.00  0.00    +0.000 S 
ATOM      7  C   UNL     1       2.252   6.393  20.070  0.00  0.00    +0.000 A 
ATOM      8  C   UNL     1       2.764   5.936  18.822  0.00  0.00    +0.000 A 
ATOM      9  C   UNL     1       1.793   2.449  19.928  0.00  0.00    +0.000 C 
ENDROOT
BRANCH   7  10
ATOM     10  N   UNL     1       2.251   7.750  20.566  0.00  0.00    +0.000 N 
ATOM     11  C   UNL     1       1.110   8.400  20.957  0.00  0.00    +0.000 C 
ATOM     12  O   UNL     1       0.054   7.797  20.982  0.00  0.00    +0.000 OA
ATOM     13  N   UNL     1       1.128   9.743  21.238  0.00  0.00    +0.000 N 
ATOM     14  H   UNL     1       3.122   8.297  20.525  0.00  0.00    +0.000 HD
ATOM     15  H   UNL     1       2.020  10.247  21.107  0.00  0.00    +0.000 HD
BRANCH  13  16
ATOM     16  C   UNL     1      -0.041  10.527  21.552  0.00  0.00    +0.000 A 
ATOM     17  C   UNL     1      -0.696  11.368  20.613  0.00  0.00    +0.000 A 
ATOM     18  C   UNL     1      -1.785  12.151  20.986  0.00  0.00    +0.000 A 
ATOM     19  C   UNL     1      -2.253  12.121  22.297  0.00  0.00    +0.000 A 
ATOM     20 CL   UNL     1      -3.608  13.137  22.757  0.00  0.00    +0.000 Cl
ATOM     21  C   UNL     1      -1.643  11.282  23.235  0.00  0.00    +0.000 A 
ATOM     22  C   UNL     1      -0.550  10.490  22.864  0.00  0.00    +0.000 A 
ENDBRANCH  13  16
ENDBRANCH   7  10
BRANCH   8  23
ATOM     23  C   UNL     1       3.670   6.765  17.938  0.00  0.00    +0.000 C 
ATOM     24  O   UNL     1       3.267   7.865  17.590  0.00  0.00    +0.000 OA
ATOM     25  N   UNL     1       4.962   6.419  17.650  0.00  0.00    +0.000 N 
ATOM     26  H   UNL     1       5.318   5.486  17.841  0.00  0.00    +0.000 HD
BRANCH  25  27
ATOM     27  C   UNL     1       5.942   7.348  17.111  0.00  0.00    +0.000 C 
BRANCH  27  28
ATOM     28  C   UNL     1       7.329   6.681  17.103  0.00  0.00    +0.000 C 
BRANCH  28  29
ATOM     29  O   UNL     1       7.510   5.902  15.951  0.00  0.00    +0.000 OA
ATOM     30  H   UNL     1       8.395   6.149  15.574  0.00  0.00    +0.000 HD
ENDBRANCH  28  29
ENDBRANCH  27  28
ENDBRANCH  25  27
ENDBRANCH   8  23
BRANCH   1  32
ATOM     31  C   UNL     1       4.403   1.945  20.635  0.00  0.00    +0.000 C 
ATOM     32  C   UNL     1       4.043   1.846  19.145  0.00  0.00    +0.000 C 
ENDBRANCH   1  32
TORSDOF 7
ENDMDL
MODEL 2
REMARK VINA RESULT:      -7.2      0.531      1.056
REMARK  Name = 
REMARK  8 active torsions:
REMARK  status: ('A' for Active; 'I' for Inactive)
REMARK    1  A    between atoms: C_1  and  C_2
REMARK    2  A    between atoms: C_2  and  N_3
REMARK    3  A    between atoms: C_9  and  N_10
REMARK    4  A    between atoms: N_13  and  C_14
REMARK    5  A    between atoms: C_21  and  C_22
REMARK    6  A    between atoms: N_24  and  C_25
REMARK    7  A    between atoms: C_25  and  C_26
REMARK    8  A    between atoms: C_26  and  O_27
REMARK                            x       y       z     vdW  Elec       q    Type
REMARK                         _______ _______ _______ _____ _____    ______ ____
ROOT
ATOM      1  N   UNL     1       2.491   1.783  18.976  0.00  0.00    +0.000 NA
ATOM      2  C   UNL     1       2.008   2.301  17.681  0.00  0.00    +0.000 C 
ATOM      3  C   UNL     1       2.519   3.736  17.440  0.00  0.00    +0.000 C 
ATOM      4  C   UNL     1       2.328   4.602  18.669  0.00  0.00    +0.000 A 
ATOM      5  C   UNL     1       1.855   4.004  19.834  0.00  0.00    +0.000 A 
ATOM      6  S   UNL     1       1.600   5.151  20.994  0.00  0.00    +0.000 S 
ATOM      7  C   UNL     1       2.205   6.461  20.112  0.00  0.00    +0.000 A 
ATOM      8  C   UNL     1       2.648   5.989  18.843  0.00  0.00    +0.000 A 
ATOM      9  C   UNL     1       1.767   2.512  20.052  0.00  0.00    +0.000 C 
ENDROOT
BRANCH   7  10
ATOM     10  N   UNL     1       2.222   7.824  20.587  0.00  0.00    +0.000 N 
ATOM     11  C   UNL     1       1.095   8.486  20.996  0.00  0.00    +0.000 C 
ATOM     12  O   UNL     1       0.036   7.889  21.053  0.00  0.00    +0.000 OA
ATOM     13  N   UNL     1       1.126   9.833  21.256  0.00  0.00    +0.000 N 
ATOM     14  H   UNL     1       3.095   8.366  20.518  0.00  0.00    +0.000 HD
ATOM     15  H   UNL     1       2.017  10.330  21.097  0.00  0.00    +0.000 HD
BRANCH  13  16
ATOM     16  C   UNL     1      -0.031  10.628  21.585  0.00  0.00    +0.000 A 
ATOM     17  C   UNL     1      -0.613  10.666  22.882  0.00  0.00    +0.000 A 
ATOM     18  C   UNL     1      -1.767  11.403  23.130  0.00  0.00    +0.000 A 
ATOM     19  C   UNL     1      -2.375  12.120  22.103  0.00  0.00    +0.000 A 
ATOM     20 CL   UNL     1      -3.847  13.019  22.428  0.00  0.00    +0.000 Cl
ATOM     21  C   UNL     1      -1.810  12.120  20.824  0.00  0.00    +0.000 A 
ATOM     22  C   UNL     1      -0.647  11.383  20.569  0.00  0.00    +0.000 A 
ENDBRANCH  13  16
ENDBRANCH   7  10
BRANCH   8  23
ATOM     23  C   UNL     1       3.496   6.810  17.897  0.00  0.00    +0.000 C 
ATOM     24  O   UNL     1       3.210   7.990  17.762  0.00  0.00    +0.000 OA
ATOM     25  N   UNL     1       4.647   6.346  17.322  0.00  0.00    +0.000 N 
ATOM     26  H   UNL     1       4.885   5.357  17.331  0.00  0.00    +0.000 HD
BRANCH  25  27
ATOM     27  C   UNL     1       5.644   7.207  16.708  0.00  0.00    +0.000 C 
BRANCH  27  28
ATOM     28  C   UNL     1       6.998   7.007  17.412  0.00  0.00    +0.000 C 
BRANCH  28  29
ATOM     29  O   UNL     1       7.855   8.092  17.181  0.00  0.00    +0.000 OA
ATOM     30  H   UNL     1       8.029   8.513  18.063  0.00  0.00    +0.000 HD
ENDBRANCH  28  29
ENDBRANCH  27  28
ENDBRANCH  25  27
ENDBRANCH   8  23
BRANCH   1  32
ATOM     31  C   UNL     1       4.425   1.930  20.617  0.00  0.00    +0.000 C 
ATOM     32  C   UNL     1       3.972   1.912  19.150  0.00  0.00    +0.000 C 
ENDBRANCH   1  32
TORSDOF 7
ENDMDL
MODEL 3
REMARK VINA RESULT:      -6.9      3.902      8.884
REMARK  Name = 
REMARK  8 active torsions:
REMARK  status: ('A' for Active; 'I' for Inactive)
REMARK    1  A    between atoms: C_1  and  C_2
REMARK    2  A    between atoms: C_2  and  N_3
REMARK    3  A    between atoms: C_9  and  N_10
REMARK    4  A    between atoms: N_13  and  C_14
REMARK    5  A    between atoms: C_21  and  C_22
REMARK    6  A    between atoms: N_24  and  C_25
REMARK    7  A    between atoms: C_25  and  C_26
REMARK    8  A    between atoms: C_26  and  O_27
REMARK                            x       y       z     vdW  Elec       q    Type
REMARK                         _______ _______ _______ _____ _____    ______ ____
ROOT
ATOM      1  N   UNL     1      -3.838  13.788  22.199  0.00  0.00    +0.000 NA
ATOM      2  C   UNL     1      -2.761  14.777  22.397  0.00  0.00    +0.000 C 
ATOM      3  C   UNL     1      -1.454  14.307  21.725  0.00  0.00    +0.000 C 
ATOM      4  C   UNL     1      -1.159  12.857  22.052  0.00  0.00    +0.000 A 
ATOM      5  C   UNL     1      -2.104  12.134  22.776  0.00  0.00    +0.000 A 
ATOM      6  S   UNL     1      -1.517  10.632  23.127  0.00  0.00    +0.000 S 
ATOM      7  C   UNL     1      -0.073  10.777  22.262  0.00  0.00    +0.000 A 
ATOM      8  C   UNL     1      -0.038  12.060  21.645  0.00  0.00    +0.000 A 
ATOM      9  C   UNL     1      -3.518  12.599  23.034  0.00  0.00    +0.000 C 
ENDROOT
BRANCH   7  10
ATOM     10  N   UNL     1       0.949   9.758  22.207  0.00  0.00    +0.000 N 
ATOM     11  C   UNL     1       1.045   8.852  21.183  0.00  0.00    +0.000 C 
ATOM     12  O   UNL     1       0.303   8.950  20.224  0.00  0.00    +0.000 OA
ATOM     13  N   UNL     1       1.906   7.787  21.265  0.00  0.00    +0.000 N 
ATOM     14  H   UNL     1       1.570   9.628  23.018  0.00  0.00    +0.000 HD
ATOM     15  H   UNL     1       2.447   7.676  22.138  0.00  0.00    +0.000 HD
BRANCH  13  16
ATOM     16  C   UNL     1       1.995   6.732  20.287  0.00  0.00    +0.000 A 
ATOM     17  C   UNL     1       1.504   5.416  20.506  0.00  0.00    +0.000 A 
ATOM     18  C   UNL     1       1.670   4.419  19.550  0.00  0.00    +0.000 A 
ATOM     19  C   UNL     1       2.327   4.696  18.354  0.00  0.00    +0.000 A 
ATOM     20 CL   UNL     1       2.554   3.418  17.174  0.00  0.00    +0.000 Cl
ATOM     21  C   UNL     1       2.797   5.989  18.101  0.00  0.00    +0.000 A 
ATOM     22  C   UNL     1       2.629   6.998  19.058  0.00  0.00    +0.000 A 
ENDBRANCH  13  16
ENDBRANCH   7  10
BRANCH   8  23
ATOM     23  C   UNL     1       0.958  12.445  20.574  0.00  0.00    +0.000 C 
ATOM     24  O   UNL     1       1.997  12.976  20.933  0.00  0.00    +0.000 OA
ATOM     25  N   UNL     1       0.828  12.083  19.260  0.00  0.00    +0.000 N 
ATOM     26  H   UNL     1      -0.048  11.718  18.894  0.00  0.00    +0.000 HD
BRANCH  25  27
ATOM     27  C   UNL     1       1.918  12.132  18.301  0.00  0.00    +0.000 C 
BRANCH  27  28
ATOM     28  C   UNL     1       2.417  10.703  18.019  0.00  0.00    +0.000 C 
BRANCH  28  29
ATOM     29  O   UNL     1       1.413   9.922  17.431  0.00  0.00    +0.000 OA
ATOM     30  H   UNL     1       0.581  10.464  17.447  0.00  0.00    +0.000 HD
ENDBRANCH  28  29
ENDBRANCH  27  28
ENDBRANCH  25  27
ENDBRANCH   8  23
BRANCH   1  32
ATOM     31  C   UNL     1      -5.406  12.793  20.466  0.00  0.00    +0.000 C 
ATOM     32  C   UNL     1      -4.027  13.397  20.766  0.00  0.00    +0.000 C 
ENDBRANCH   1  32
TORSDOF 7
ENDMDL
MODEL 4
REMARK VINA RESULT:      -6.9      4.315      9.191
REMARK  Name = 
REMARK  8 active torsions:
REMARK  status: ('A' for Active; 'I' for Inactive)
REMARK    1  A    between atoms: C_1  and  C_2
REMARK    2  A    between atoms: C_2  and  N_3
REMARK    3  A    between atoms: C_9  and  N_10
REMARK    4  A    between atoms: N_13  and  C_14
REMARK    5  A    between atoms: C_21  and  C_22
REMARK    6  A    between atoms: N_24  and  C_25
REMARK    7  A    between atoms: C_25  and  C_26
REMARK    8  A    between atoms: C_26  and  O_27
REMARK                            x       y       z     vdW  Elec       q    Type
REMARK                         _______ _______ _______ _____ _____    ______ ____
ROOT
ATOM      1  N   UNL     1      -1.661  13.750  22.108  0.00  0.00    +0.000 NA
ATOM      2  C   UNL     1      -2.172  14.391  20.881  0.00  0.00    +0.000 C 
ATOM      3  C   UNL     1      -2.242  13.376  19.721  0.00  0.00    +0.000 C 
ATOM      4  C   UNL     1      -0.966  12.563  19.623  0.00  0.00    +0.000 A 
ATOM      5  C   UNL     1       0.007  12.737  20.603  0.00  0.00    +0.000 A 
ATOM      6  S   UNL     1       1.352  11.858  20.224  0.00  0.00    +0.000 S 
ATOM      7  C   UNL     1       0.715  11.105  18.852  0.00  0.00    +0.000 A 
ATOM      8  C   UNL     1      -0.629  11.543  18.675  0.00  0.00    +0.000 A 
ATOM      9  C   UNL     1      -0.214  13.474  21.903  0.00  0.00    +0.000 C 
ENDROOT
BRANCH   7  10
ATOM     10  N   UNL     1       1.453  10.197  18.005  0.00  0.00    +0.000 N 
ATOM     11  C   UNL     1       1.752   8.911  18.372  0.00  0.00    +0.000 C 
ATOM     12  O   UNL     1       1.310   8.466  19.414  0.00  0.00    +0.000 OA
ATOM     13  N   UNL     1       2.615   8.150  17.624  0.00  0.00    +0.000 N 
ATOM     14  H   UNL     1       1.870  10.554  17.133  0.00  0.00    +0.000 HD
ATOM     15  H   UNL     1       3.054   8.594  16.801  0.00  0.00    +0.000 HD
BRANCH  13  16
ATOM     16  C   UNL     1       3.068   6.831  17.991  0.00  0.00    +0.000 A 
ATOM     17  C   UNL     1       2.205   5.707  18.093  0.00  0.00    +0.000 A 
ATOM     18  C   UNL     1       2.685   4.469  18.511  0.00  0.00    +0.000 A 
ATOM     19  C   UNL     1       4.028   4.313  18.841  0.00  0.00    +0.000 A 
ATOM     20 CL   UNL     1       4.609   2.752  19.396  0.00  0.00    +0.000 Cl
ATOM     21  C   UNL     1       4.905   5.397  18.725  0.00  0.00    +0.000 A 
ATOM     22  C   UNL     1       4.428   6.644  18.302  0.00  0.00    +0.000 A 
ENDBRANCH  13  16
ENDBRANCH   7  10
BRANCH   8  23
ATOM     23  C   UNL     1      -1.603  10.882  17.725  0.00  0.00    +0.000 C 
ATOM     24  O   UNL     1      -1.993   9.759  18.006  0.00  0.00    +0.000 OA
ATOM     25  N   UNL     1      -2.187  11.533  16.672  0.00  0.00    +0.000 N 
ATOM     26  H   UNL     1      -1.841  12.432  16.345  0.00  0.00    +0.000 HD
BRANCH  25  27
ATOM     27  C   UNL     1      -3.365  11.042  15.976  0.00  0.00    +0.000 C 
BRANCH  27  28
ATOM     28  C   UNL     1      -2.937  10.046  14.884  0.00  0.00    +0.000 C 
BRANCH  28  29
ATOM     29  O   UNL     1      -3.375  10.462  13.619  0.00  0.00    +0.000 OA
ATOM     30  H   UNL     1      -4.366  10.399  13.623  0.00  0.00    +0.000 HD
ENDBRANCH  28  29
ENDBRANCH  27  28
ENDBRANCH  25  27
ENDBRANCH   8  23
BRANCH   1  32
ATOM     31  C   UNL     1      -1.528  11.458  23.194  0.00  0.00    +0.000 C 
ATOM     32  C   UNL     1      -2.397  12.499  22.473  0.00  0.00    +0.000 C 
ENDBRANCH   1  32
TORSDOF 7
ENDMDL
MODEL 5
REMARK VINA RESULT:      -6.8      2.528      4.592
REMARK  Name = 
REMARK  8 active torsions:
REMARK  status: ('A' for Active; 'I' for Inactive)
REMARK    1  A    between atoms: C_1  and  C_2
REMARK    2  A    between atoms: C_2  and  N_3
REMARK    3  A    between atoms: C_9  and  N_10
REMARK    4  A    between atoms: N_13  and  C_14
REMARK    5  A    between atoms: C_21  and  C_22
REMARK    6  A    between atoms: N_24  and  C_25
REMARK    7  A    between atoms: C_25  and  C_26
REMARK    8  A    between atoms: C_26  and  O_27
REMARK                            x       y       z     vdW  Elec       q    Type
REMARK                         _______ _______ _______ _____ _____    ______ ____
ROOT
ATOM      1  N   UNL     1       6.301   5.397  14.834  0.00  0.00    +0.000 NA
ATOM      2  C   UNL     1       7.168   4.704  15.806  0.00  0.00    +0.000 C 
ATOM      3  C   UNL     1       6.329   4.074  16.937  0.00  0.00    +0.000 C 
ATOM      4  C   UNL     1       5.301   5.053  17.469  0.00  0.00    +0.000 A 
ATOM      5  C   UNL     1       5.166   6.284  16.834  0.00  0.00    +0.000 A 
ATOM      6  S   UNL     1       4.092   7.229  17.658  0.00  0.00    +0.000 S 
ATOM      7  C   UNL     1       3.644   6.068  18.801  0.00  0.00    +0.000 A 
ATOM      8  C   UNL     1       4.353   4.863  18.528  0.00  0.00    +0.000 A 
ATOM      9  C   UNL     1       5.774   6.622  15.493  0.00  0.00    +0.000 C 
ENDROOT
BRANCH   7  10
ATOM     10  N   UNL     1       2.715   6.305  19.881  0.00  0.00    +0.000 N 
ATOM     11  C   UNL     1       1.977   7.453  19.992  0.00  0.00    +0.000 C 
ATOM     12  O   UNL     1       2.023   8.284  19.104  0.00  0.00    +0.000 OA
ATOM     13  N   UNL     1       1.256   7.719  21.128  0.00  0.00    +0.000 N 
ATOM     14  H   UNL     1       2.679   5.637  20.665  0.00  0.00    +0.000 HD
ATOM     15  H   UNL     1       1.321   7.041  21.905  0.00  0.00    +0.000 HD
BRANCH  13  16
ATOM     16  C   UNL     1       0.539   8.946  21.372  0.00  0.00    +0.000 A 
ATOM     17  C   UNL     1       0.348   9.951  20.386  0.00  0.00    +0.000 A 
ATOM     18  C   UNL     1      -0.299  11.145  20.694  0.00  0.00    +0.000 A 
ATOM     19  C   UNL     1      -0.772  11.374  21.982  0.00  0.00    +0.000 A 
ATOM     20 CL   UNL     1      -1.558  12.898  22.359  0.00  0.00    +0.000 Cl
ATOM     21  C   UNL     1      -0.620  10.391  22.966  0.00  0.00    +0.000 A 
ATOM     22  C   UNL     1       0.027   9.187  22.661  0.00  0.00    +0.000 A 
ENDBRANCH  13  16
ENDBRANCH   7  10
BRANCH   8  23
ATOM     23  C   UNL     1       4.010   3.532  19.160  0.00  0.00    +0.000 C 
ATOM     24  O   UNL     1       4.849   3.018  19.884  0.00  0.00    +0.000 OA
ATOM     25  N   UNL     1       2.767   2.965  19.095  0.00  0.00    +0.000 N 
ATOM     26  H   UNL     1       2.062   3.303  18.443  0.00  0.00    +0.000 HD
BRANCH  25  27
ATOM     27  C   UNL     1       2.325   1.891  19.969  0.00  0.00    +0.000 C 
BRANCH  27  28
ATOM     28  C   UNL     1       1.554   2.484  21.162  0.00  0.00    +0.000 C 
BRANCH  28  29
ATOM     29  O   UNL     1       0.843   3.633  20.785  0.00  0.00    +0.000 OA
ATOM     30  H   UNL     1      -0.121   3.418  20.884  0.00  0.00    +0.000 HD
ENDBRANCH  28  29
ENDBRANCH  27  28
ENDBRANCH  25  27
ENDBRANCH   8  23
BRANCH   1  32
ATOM     31  C   UNL     1       5.586   3.626  13.159  0.00  0.00    +0.000 C 
ATOM     32  C   UNL     1       5.183   4.543  14.323  0.00  0.00    +0.000 C 
ENDBRANCH   1  32
TORSDOF 7
ENDMDL
MODEL 6
REMARK VINA RESULT:      -6.8      2.518      4.618
REMARK  Name = 
REMARK  8 active torsions:
REMARK  status: ('A' for Active; 'I' for Inactive)
REMARK    1  A    between atoms: C_1  and  C_2
REMARK    2  A    between atoms: C_2  and  N_3
REMARK    3  A    between atoms: C_9  and  N_10
REMARK    4  A    between atoms: N_13  and  C_14
REMARK    5  A    between atoms: C_21  and  C_22
REMARK    6  A    between atoms: N_24  and  C_25
REMARK    7  A    between atoms: C_25  and  C_26
REMARK    8  A    between atoms: C_26  and  O_27
REMARK                            x       y       z     vdW  Elec       q    Type
REMARK                         _______ _______ _______ _____ _____    ______ ____
ROOT
ATOM      1  N   UNL     1       6.401   5.541  15.228  0.00  0.00    +0.000 NA
ATOM      2  C   UNL     1       7.210   4.902  16.283  0.00  0.00    +0.000 C 
ATOM      3  C   UNL     1       6.305   4.246  17.347  0.00  0.00    +0.000 C 
ATOM      4  C   UNL     1       5.190   5.182  17.771  0.00  0.00    +0.000 A 
ATOM      5  C   UNL     1       5.055   6.397  17.106  0.00  0.00    +0.000 A 
ATOM      6  S   UNL     1       3.870   7.301  17.818  0.00  0.00    +0.000 S 
ATOM      7  C   UNL     1       3.377   6.133  18.937  0.00  0.00    +0.000 A 
ATOM      8  C   UNL     1       4.162   4.960  18.746  0.00  0.00    +0.000 A 
ATOM      9  C   UNL     1       5.762   6.748  15.818  0.00  0.00    +0.000 C 
ENDROOT
BRANCH   7  10
ATOM     10  N   UNL     1       2.348   6.340  19.928  0.00  0.00    +0.000 N 
ATOM     11  C   UNL     1       1.705   7.537  20.099  0.00  0.00    +0.000 C 
ATOM     12  O   UNL     1       1.933   8.455  19.332  0.00  0.00    +0.000 OA
ATOM     13  N   UNL     1       0.876   7.744  21.172  0.00  0.00    +0.000 N 
ATOM     14  H   UNL     1       2.157   5.594  20.613  0.00  0.00    +0.000 HD
ATOM     15  H   UNL     1       0.786   6.979  21.860  0.00  0.00    +0.000 HD
BRANCH  13  16
ATOM     16  C   UNL     1       0.246   9.002  21.487  0.00  0.00    +0.000 A 
ATOM     17  C   UNL     1      -0.039   9.426  22.813  0.00  0.00    +0.000 A 
ATOM     18  C   UNL     1      -0.705  10.624  23.056  0.00  0.00    +0.000 A 
ATOM     19  C   UNL     1      -1.105  11.432  21.996  0.00  0.00    +0.000 A 
ATOM     20 CL   UNL     1      -1.971  12.924  22.321  0.00  0.00    +0.000 Cl
ATOM     21  C   UNL     1      -0.814  11.051  20.682  0.00  0.00    +0.000 A 
ATOM     22  C   UNL     1      -0.142   9.849  20.431  0.00  0.00    +0.000 A 
ENDBRANCH  13  16
ENDBRANCH   7  10
BRANCH   8  23
ATOM     23  C   UNL     1       3.827   3.622  19.368  0.00  0.00    +0.000 C 
ATOM     24  O   UNL     1       4.686   3.086  20.052  0.00  0.00    +0.000 OA
ATOM     25  N   UNL     1       2.576   3.071  19.338  0.00  0.00    +0.000 N 
ATOM     26  H   UNL     1       1.852   3.427  18.719  0.00  0.00    +0.000 HD
BRANCH  25  27
ATOM     27  C   UNL     1       2.153   1.987  20.209  0.00  0.00    +0.000 C 
BRANCH  27  28
ATOM     28  C   UNL     1       1.466   2.569  21.457  0.00  0.00    +0.000 C 
BRANCH  28  29
ATOM     29  O   UNL     1       2.401   3.147  22.327  0.00  0.00    +0.000 OA
ATOM     30  H   UNL     1       2.111   4.084  22.480  0.00  0.00    +0.000 HD
ENDBRANCH  28  29
ENDBRANCH  27  28
ENDBRANCH  25  27
ENDBRANCH   8  23
BRANCH   1  32
ATOM     31  C   UNL     1       5.897   3.776  13.472  0.00  0.00    +0.000 C 
ATOM     32  C   UNL     1       5.372   4.629  14.636  0.00  0.00    +0.000 C 
ENDBRANCH   1  32
TORSDOF 7
ENDMDL
MODEL 7
REMARK VINA RESULT:      -6.8      2.893      4.758
REMARK  Name = 
REMARK  8 active torsions:
REMARK  status: ('A' for Active; 'I' for Inactive)
REMARK    1  A    between atoms: C_1  and  C_2
REMARK    2  A    between atoms: C_2  and  N_3
REMARK    3  A    between atoms: C_9  and  N_10
REMARK    4  A    between atoms: N_13  and  C_14
REMARK    5  A    between atoms: C_21  and  C_22
REMARK    6  A    between atoms: N_24  and  C_25
REMARK    7  A    between atoms: C_25  and  C_26
REMARK    8  A    between atoms: C_26  and  O_27
REMARK                            x       y       z     vdW  Elec       q    Type
REMARK                         _______ _______ _______ _____ _____    ______ ____
ROOT
ATOM      1  N   UNL     1       7.206   4.864  16.091  0.00  0.00    +0.000 NA
ATOM      2  C   UNL     1       7.602   4.610  17.490  0.00  0.00    +0.000 C 
ATOM      3  C   UNL     1       6.361   4.398  18.381  0.00  0.00    +0.000 C 
ATOM      4  C   UNL     1       5.309   5.457  18.120  0.00  0.00    +0.000 A 
ATOM      5  C   UNL     1       5.525   6.366  17.088  0.00  0.00    +0.000 A 
ATOM      6  S   UNL     1       4.324   7.499  17.073  0.00  0.00    +0.000 S 
ATOM      7  C   UNL     1       3.392   6.814  18.305  0.00  0.00    +0.000 A 
ATOM      8  C   UNL     1       4.034   5.624  18.754  0.00  0.00    +0.000 A 
ATOM      9  C   UNL     1       6.598   6.221  16.034  0.00  0.00    +0.000 C 
ENDROOT
BRANCH   7  10
ATOM     10  N   UNL     1       2.168   7.387  18.814  0.00  0.00    +0.000 N 
ATOM     11  C   UNL     1       1.832   8.704  18.642  0.00  0.00    +0.000 C 
ATOM     12  O   UNL     1       2.539   9.418  17.957  0.00  0.00    +0.000 OA
ATOM     13  N   UNL     1       0.761   9.248  19.303  0.00  0.00    +0.000 N 
ATOM     14  H   UNL     1       1.566   6.817  19.426  0.00  0.00    +0.000 HD
ATOM     15  H   UNL     1       0.244   8.639  19.958  0.00  0.00    +0.000 HD
BRANCH  13  16
ATOM     16  C   UNL     1       0.401  10.644  19.265  0.00  0.00    +0.000 A 
ATOM     17  C   UNL     1      -0.590  11.175  18.396  0.00  0.00    +0.000 A 
ATOM     18  C   UNL     1      -0.854  12.541  18.357  0.00  0.00    +0.000 A 
ATOM     19  C   UNL     1      -0.145  13.416  19.174  0.00  0.00    +0.000 A 
ATOM     20 CL   UNL     1      -0.470  15.138  19.089  0.00  0.00    +0.000 Cl
ATOM     21  C   UNL     1       0.818  12.917  20.058  0.00  0.00    +0.000 A 
ATOM     22  C   UNL     1       1.086  11.544  20.104  0.00  0.00    +0.000 A 
ENDBRANCH  13  16
ENDBRANCH   7  10
BRANCH   8  23
ATOM     23  C   UNL     1       3.365   4.600  19.644  0.00  0.00    +0.000 C 
ATOM     24  O   UNL     1       2.775   5.010  20.632  0.00  0.00    +0.000 OA
ATOM     25  N   UNL     1       3.250   3.277  19.315  0.00  0.00    +0.000 N 
ATOM     26  H   UNL     1       3.788   2.869  18.554  0.00  0.00    +0.000 HD
BRANCH  25  27
ATOM     27  C   UNL     1       2.326   2.363  19.966  0.00  0.00    +0.000 C 
BRANCH  27  28
ATOM     28  C   UNL     1       0.913   2.565  19.390  0.00  0.00    +0.000 C 
BRANCH  28  29
ATOM     29  O   UNL     1       0.170   3.462  20.171  0.00  0.00    +0.000 OA
ATOM     30  H   UNL     1      -0.581   3.781  19.605  0.00  0.00    +0.000 HD
ENDBRANCH  28  29
ENDBRANCH  27  28
ENDBRANCH  25  27
ENDBRANCH   8  23
BRANCH   1  32
ATOM     31  C   UNL     1       5.935   4.025  14.058  0.00  0.00    +0.000 C 
ATOM     32  C   UNL     1       6.266   3.835  15.546  0.00  0.00    +0.000 C 
ENDBRANCH   1  32
TORSDOF 7
ENDMDL
MODEL 8
REMARK VINA RESULT:      -6.8      3.148      4.903
REMARK  Name = 
REMARK  8 active torsions:
REMARK  status: ('A' for Active; 'I' for Inactive)
REMARK    1  A    between atoms: C_1  and  C_2
REMARK    2  A    between atoms: C_2  and  N_3
REMARK    3  A    between atoms: C_9  and  N_10
REMARK    4  A    between atoms: N_13  and  C_14
REMARK    5  A    between atoms: C_21  and  C_22
REMARK    6  A    between atoms: N_24  and  C_25
REMARK    7  A    between atoms: C_25  and  C_26
REMARK    8  A    between atoms: C_26  and  O_27
REMARK                            x       y       z     vdW  Elec       q    Type
REMARK                         _______ _______ _______ _____ _____    ______ ____
ROOT
ATOM      1  N   UNL     1       6.275   4.611  15.120  0.00  0.00    +0.000 NA
ATOM      2  C   UNL     1       6.321   3.685  16.269  0.00  0.00    +0.000 C 
ATOM      3  C   UNL     1       4.965   3.657  17.005  0.00  0.00    +0.000 C 
ATOM      4  C   UNL     1       4.437   5.058  17.239  0.00  0.00    +0.000 A 
ATOM      5  C   UNL     1       5.136   6.130  16.691  0.00  0.00    +0.000 A 
ATOM      6  S   UNL     1       4.460   7.554  17.182  0.00  0.00    +0.000 S 
ATOM      7  C   UNL     1       3.157   6.876  18.018  0.00  0.00    +0.000 A 
ATOM      8  C   UNL     1       3.232   5.458  17.904  0.00  0.00    +0.000 A 
ATOM      9  C   UNL     1       6.231   5.996  15.659  0.00  0.00    +0.000 C 
ENDROOT
BRANCH   7  10
ATOM     10  N   UNL     1       2.169   7.639  18.743  0.00  0.00    +0.000 N 
ATOM     11  C   UNL     1       1.846   8.932  18.427  0.00  0.00    +0.000 C 
ATOM     12  O   UNL     1       2.335   9.449  17.440  0.00  0.00    +0.000 OA
ATOM     13  N   UNL     1       1.047   9.680  19.255  0.00  0.00    +0.000 N 
ATOM     14  H   UNL     1       1.762   7.242  19.603  0.00  0.00    +0.000 HD
ATOM     15  H   UNL     1       0.733   9.244  20.138  0.00  0.00    +0.000 HD
BRANCH  13  16
ATOM     16  C   UNL     1       0.745  11.076  19.056  0.00  0.00    +0.000 A 
ATOM     17  C   UNL     1       1.659  12.125  19.344  0.00  0.00    +0.000 A 
ATOM     18  C   UNL     1       1.293  13.459  19.191  0.00  0.00    +0.000 A 
ATOM     19  C   UNL     1       0.015  13.789  18.751  0.00  0.00    +0.000 A 
ATOM     20 CL   UNL     1      -0.439  15.477  18.593  0.00  0.00    +0.000 Cl
ATOM     21  C   UNL     1      -0.897  12.776  18.435  0.00  0.00    +0.000 A 
ATOM     22  C   UNL     1      -0.533  11.432  18.584  0.00  0.00    +0.000 A 
ENDBRANCH  13  16
ENDBRANCH   7  10
BRANCH   8  23
ATOM     23  C   UNL     1       2.099   4.529  18.282  0.00  0.00    +0.000 C 
ATOM     24  O   UNL     1       1.553   3.908  17.383  0.00  0.00    +0.000 OA
ATOM     25  N   UNL     1       1.770   4.231  19.576  0.00  0.00    +0.000 N 
ATOM     26  H   UNL     1       2.130   4.776  20.356  0.00  0.00    +0.000 HD
BRANCH  25  27
ATOM     27  C   UNL     1       0.941   3.099  19.956  0.00  0.00    +0.000 C 
BRANCH  27  28
ATOM     28  C   UNL     1       1.273   2.681  21.399  0.00  0.00    +0.000 C 
BRANCH  28  29
ATOM     29  O   UNL     1       2.234   3.531  21.965  0.00  0.00    +0.000 OA
ATOM     30  H   UNL     1       2.997   3.564  21.331  0.00  0.00    +0.000 HD
ENDBRANCH  28  29
ENDBRANCH  27  28
ENDBRANCH  25  27
ENDBRANCH   8  23
BRANCH   1  32
ATOM     31  C   UNL     1       5.498   3.596  12.925  0.00  0.00    +0.000 C 
ATOM     32  C   UNL     1       5.120   4.358  14.203  0.00  0.00    +0.000 C 
ENDBRANCH   1  32
TORSDOF 7
ENDMDL
MODEL 9
REMARK VINA RESULT:      -6.8      4.228      9.471
REMARK  Name = 
REMARK  8 active torsions:
REMARK  status: ('A' for Active; 'I' for Inactive)
REMARK    1  A    between atoms: C_1  and  C_2
REMARK    2  A    between atoms: C_2  and  N_3
REMARK    3  A    between atoms: C_9  and  N_10
REMARK    4  A    between atoms: N_13  and  C_14
REMARK    5  A    between atoms: C_21  and  C_22
REMARK    6  A    between atoms: N_24  and  C_25
REMARK    7  A    between atoms: C_25  and  C_26
REMARK    8  A    between atoms: C_26  and  O_27
REMARK                            x       y       z     vdW  Elec       q    Type
REMARK                         _______ _______ _______ _____ _____    ______ ____
ROOT
ATOM      1  N   UNL     1      -0.777  14.493  22.362  0.00  0.00    +0.000 NA
ATOM      2  C   UNL     1      -1.546  15.036  21.225  0.00  0.00    +0.000 C 
ATOM      3  C   UNL     1      -1.841  13.934  20.186  0.00  0.00    +0.000 C 
ATOM      4  C   UNL     1      -0.599  13.119  19.883  0.00  0.00    +0.000 A 
ATOM      5  C   UNL     1       0.555  13.370  20.619  0.00  0.00    +0.000 A 
ATOM      6  S   UNL     1       1.806  12.467  20.032  0.00  0.00    +0.000 S 
ATOM      7  C   UNL     1       0.909  11.609  18.885  0.00  0.00    +0.000 A 
ATOM      8  C   UNL     1      -0.450  12.029  18.963  0.00  0.00    +0.000 A 
ATOM      9  C   UNL     1       0.599  14.204  21.878  0.00  0.00    +0.000 C 
ENDROOT
BRANCH   7  10
ATOM     10  N   UNL     1       1.468  10.639  17.972  0.00  0.00    +0.000 N 
ATOM     11  C   UNL     1       1.761   9.352  18.338  0.00  0.00    +0.000 C 
ATOM     12  O   UNL     1       1.462   8.962  19.451  0.00  0.00    +0.000 OA
ATOM     13  N   UNL     1       2.466   8.526  17.500  0.00  0.00    +0.000 N 
ATOM     14  H   UNL     1       1.764  10.948  17.035  0.00  0.00    +0.000 HD
ATOM     15  H   UNL     1       2.795   8.922  16.605  0.00  0.00    +0.000 HD
BRANCH  13  16
ATOM     16  C   UNL     1       2.909   7.198  17.845  0.00  0.00    +0.000 A 
ATOM     17  C   UNL     1       4.276   6.813  17.880  0.00  0.00    +0.000 A 
ATOM     18  C   UNL     1       4.645   5.500  18.160  0.00  0.00    +0.000 A 
ATOM     19  C   UNL     1       3.673   4.536  18.411  0.00  0.00    +0.000 A 
ATOM     20 CL   UNL     1       4.156   2.880  18.732  0.00  0.00    +0.000 Cl
ATOM     21  C   UNL     1       2.320   4.894  18.408  0.00  0.00    +0.000 A 
ATOM     22  C   UNL     1       1.943   6.214  18.130  0.00  0.00    +0.000 A 
ENDBRANCH  13  16
ENDBRANCH   7  10
BRANCH   8  23
ATOM     23  C   UNL     1      -1.590  11.295  18.293  0.00  0.00    +0.000 C 
ATOM     24  O   UNL     1      -1.767  10.126  18.598  0.00  0.00    +0.000 OA
ATOM     25  N   UNL     1      -2.520  11.912  17.500  0.00  0.00    +0.000 N 
ATOM     26  H   UNL     1      -2.376  12.855  17.148  0.00  0.00    +0.000 HD
BRANCH  25  27
ATOM     27  C   UNL     1      -3.795  11.315  17.142  0.00  0.00    +0.000 C 
BRANCH  27  28
ATOM     28  C   UNL     1      -3.714  10.750  15.712  0.00  0.00    +0.000 C 
BRANCH  28  29
ATOM     29  O   UNL     1      -2.776   9.711  15.630  0.00  0.00    +0.000 OA
ATOM     30  H   UNL     1      -2.879   9.302  14.731  0.00  0.00    +0.000 HD
ENDBRANCH  28  29
ENDBRANCH  27  28
ENDBRANCH  25  27
ENDBRANCH   8  23
BRANCH   1  32
ATOM     31  C   UNL     1      -2.689  13.556  23.747  0.00  0.00    +0.000 C 
ATOM     32  C   UNL     1      -1.397  13.273  22.967  0.00  0.00    +0.000 C 
ENDBRANCH   1  32
TORSDOF 7
ENDMDL
