MODEL 1
REMARK VINA RESULT:      -8.7      0.000      0.000
REMARK  Name = 
REMARK  6 active torsions:
REMARK  status: ('A' for Active; 'I' for Inactive)
REMARK    1  A    between atoms: C_1  and  N_2
REMARK    2  A    between atoms: C_5  and  O_6
REMARK    3  A    between atoms: O_6  and  C_7
REMARK    4  A    between atoms: C_12  and  C_13
REMARK    5  A    between atoms: C_16  and  O_17
REMARK    6  A    between atoms: O_17  and  C_18
REMARK                            x       y       z     vdW  Elec       q    Type
REMARK                         _______ _______ _______ _____ _____    ______ ____
ROOT
ATOM      1  C   UNL     1       0.476   9.634  20.278  0.00  0.00    +0.000 A 
ATOM      2  C   UNL     1       0.707  10.196  19.019  0.00  0.00    +0.000 A 
ATOM      3  C   UNL     1       1.563   9.570  18.103  0.00  0.00    +0.000 A 
ATOM      4  C   UNL     1       2.195   8.376  18.449  0.00  0.00    +0.000 A 
ATOM      5  C   UNL     1       3.061   7.650  17.533  0.00  0.00    +0.000 A 
ATOM      6  C   UNL     1       3.652   6.512  17.928  0.00  0.00    +0.000 A 
ATOM      7  C   UNL     1       3.495   5.991  19.315  0.00  0.00    +0.000 A 
ATOM      8  O   UNL     1       4.124   5.024  19.730  0.00  0.00    +0.000 OA
ATOM      9  O   UNL     1       2.571   6.642  20.120  0.00  0.00    +0.000 OA
ATOM     10  C   UNL     1       1.940   7.824  19.700  0.00  0.00    +0.000 A 
ATOM     11  C   UNL     1       1.067   8.417  20.605  0.00  0.00    +0.000 A 
ENDROOT
BRANCH   6  12
ATOM     12  C   UNL     1       4.396   5.720  16.941  0.00  0.00    +0.000 A 
ATOM     13  C   UNL     1       4.353   4.324  16.936  0.00  0.00    +0.000 A 
ATOM     14  C   UNL     1       5.048   3.615  15.953  0.00  0.00    +0.000 A 
ATOM     15  C   UNL     1       5.784   4.283  14.967  0.00  0.00    +0.000 A 
ATOM     16  C   UNL     1       5.869   5.672  15.007  0.00  0.00    +0.000 A 
ATOM     17  C   UNL     1       5.163   6.387  15.978  0.00  0.00    +0.000 A 
BRANCH  15  18
ATOM     18  O   UNL     1       6.400   3.469  14.068  0.00  0.00    +0.000 OA
BRANCH  18  19
ATOM     19  C   UNL     1       5.964   3.458  12.716  0.00  0.00    +0.000 C 
ATOM     20  F   UNL     1       6.022   2.250  12.119  0.00  0.00    +0.000 F 
ATOM     21  F   UNL     1       4.694   3.913  12.654  0.00  0.00    +0.000 F 
ATOM     22  F   UNL     1       6.747   4.304  12.010  0.00  0.00    +0.000 F 
ENDBRANCH  18  19
ENDBRANCH  15  18
ENDBRANCH   6  12
BRANCH   1  23
ATOM     23  O   UNL     1      -0.362  10.326  21.107  0.00  0.00    +0.000 OA
BRANCH  23  28
ATOM     24  C   UNL     1      -2.172  15.641  21.219  0.00  0.00    +0.000 C 
ATOM     25  N   UNL     1      -1.875  14.223  21.427  0.00  0.00    +0.000 NA
ATOM     26  C   UNL     1      -2.267  13.439  20.248  0.00  0.00    +0.000 C 
ATOM     27  C   UNL     1      -2.010  11.952  20.471  0.00  0.00    +0.000 C 
ATOM     28  C   UNL     1      -0.540  11.717  20.803  0.00  0.00    +0.000 C 
ATOM     29  C   UNL     1      -0.134  12.563  22.007  0.00  0.00    +0.000 C 
ATOM     30  C   UNL     1      -0.457  14.036  21.760  0.00  0.00    +0.000 C 
ENDBRANCH  23  28
ENDBRANCH   1  23
TORSDOF 5
ENDMDL
MODEL 2
REMARK VINA RESULT:      -8.6      6.846     11.629
REMARK  Name = 
REMARK  6 active torsions:
REMARK  status: ('A' for Active; 'I' for Inactive)
REMARK    1  A    between atoms: C_1  and  N_2
REMARK    2  A    between atoms: C_5  and  O_6
REMARK    3  A    between atoms: O_6  and  C_7
REMARK    4  A    between atoms: C_12  and  C_13
REMARK    5  A    between atoms: C_16  and  O_17
REMARK    6  A    between atoms: O_17  and  C_18
REMARK                            x       y       z     vdW  Elec       q    Type
REMARK                         _______ _______ _______ _____ _____    ______ ____
ROOT
ATOM      1  C   UNL     1       2.093   8.019  18.642  0.00  0.00    +0.000 A 
ATOM      2  C   UNL     1       1.417   8.970  17.872  0.00  0.00    +0.000 A 
ATOM      3  C   UNL     1       0.589   9.923  18.479  0.00  0.00    +0.000 A 
ATOM      4  C   UNL     1       0.433   9.923  19.866  0.00  0.00    +0.000 A 
ATOM      5  C   UNL     1      -0.376  10.909  20.566  0.00  0.00    +0.000 A 
ATOM      6  C   UNL     1      -0.499  10.850  21.901  0.00  0.00    +0.000 A 
ATOM      7  C   UNL     1       0.127   9.756  22.695  0.00  0.00    +0.000 A 
ATOM      8  O   UNL     1      -0.076   9.616  23.896  0.00  0.00    +0.000 OA
ATOM      9  O   UNL     1       0.985   8.907  22.010  0.00  0.00    +0.000 OA
ATOM     10  C   UNL     1       1.127   8.980  20.615  0.00  0.00    +0.000 A 
ATOM     11  C   UNL     1       1.977   8.050  20.029  0.00  0.00    +0.000 A 
ENDROOT
BRANCH   6  12
ATOM     12  C   UNL     1      -1.191  11.941  22.598  0.00  0.00    +0.000 A 
ATOM     13  C   UNL     1      -0.613  13.203  22.746  0.00  0.00    +0.000 A 
ATOM     14  C   UNL     1      -1.328  14.220  23.385  0.00  0.00    +0.000 A 
ATOM     15  C   UNL     1      -2.620  13.994  23.875  0.00  0.00    +0.000 A 
ATOM     16  C   UNL     1      -3.172  12.720  23.774  0.00  0.00    +0.000 A 
ATOM     17  C   UNL     1      -2.469  11.704  23.122  0.00  0.00    +0.000 A 
BRANCH  15  18
ATOM     18  O   UNL     1      -3.202  15.074  24.462  0.00  0.00    +0.000 OA
BRANCH  18  19
ATOM     19  C   UNL     1      -4.347  15.666  23.866  0.00  0.00    +0.000 C 
ATOM     20  F   UNL     1      -5.507  15.034  24.134  0.00  0.00    +0.000 F 
ATOM     21  F   UNL     1      -4.447  16.951  24.273  0.00  0.00    +0.000 F 
ATOM     22  F   UNL     1      -4.177  15.664  22.524  0.00  0.00    +0.000 F 
ENDBRANCH  18  19
ENDBRANCH  15  18
ENDBRANCH   6  12
BRANCH   1  23
ATOM     23  O   UNL     1       2.865   7.122  17.957  0.00  0.00    +0.000 OA
BRANCH  23  28
ATOM     24  C   UNL     1       3.516   1.574  18.526  0.00  0.00    +0.000 C 
ATOM     25  N   UNL     1       3.416   2.968  18.095  0.00  0.00    +0.000 NA
ATOM     26  C   UNL     1       2.057   3.478  18.320  0.00  0.00    +0.000 C 
ATOM     27  C   UNL     1       1.925   4.917  17.827  0.00  0.00    +0.000 C 
ATOM     28  C   UNL     1       2.951   5.806  18.522  0.00  0.00    +0.000 C 
ATOM     29  C   UNL     1       4.356   5.247  18.311  0.00  0.00    +0.000 C 
ATOM     30  C   UNL     1       4.428   3.791  18.771  0.00  0.00    +0.000 C 
ENDBRANCH  23  28
ENDBRANCH   1  23
TORSDOF 5
ENDMDL
MODEL 3
REMARK VINA RESULT:      -8.6      2.423      3.398
REMARK  Name = 
REMARK  6 active torsions:
REMARK  status: ('A' for Active; 'I' for Inactive)
REMARK    1  A    between atoms: C_1  and  N_2
REMARK    2  A    between atoms: C_5  and  O_6
REMARK    3  A    between atoms: O_6  and  C_7
REMARK    4  A    between atoms: C_12  and  C_13
REMARK    5  A    between atoms: C_16  and  O_17
REMARK    6  A    between atoms: O_17  and  C_18
REMARK                            x       y       z     vdW  Elec       q    Type
REMARK                         _______ _______ _______ _____ _____    ______ ____
ROOT
ATOM      1  C   UNL     1      -0.413  11.127  22.182  0.00  0.00    +0.000 A 
ATOM      2  C   UNL     1      -0.271   9.915  22.865  0.00  0.00    +0.000 A 
ATOM      3  C   UNL     1       0.370   8.825  22.260  0.00  0.00    +0.000 A 
ATOM      4  C   UNL     1       0.870   8.947  20.964  0.00  0.00    +0.000 A 
ATOM      5  C   UNL     1       1.584   7.872  20.291  0.00  0.00    +0.000 A 
ATOM      6  C   UNL     1       2.030   8.044  19.038  0.00  0.00    +0.000 A 
ATOM      7  C   UNL     1       1.762   9.297  18.278  0.00  0.00    +0.000 A 
ATOM      8  O   UNL     1       2.052   9.424  17.094  0.00  0.00    +0.000 OA
ATOM      9  O   UNL     1       1.185  10.341  18.989  0.00  0.00    +0.000 OA
ATOM     10  C   UNL     1       0.734  10.165  20.307  0.00  0.00    +0.000 A 
ATOM     11  C   UNL     1       0.129  11.264  20.907  0.00  0.00    +0.000 A 
ENDROOT
BRANCH   6  12
ATOM     12  C   UNL     1       2.877   7.006  18.438  0.00  0.00    +0.000 A 
ATOM     13  C   UNL     1       2.416   5.703  18.242  0.00  0.00    +0.000 A 
ATOM     14  C   UNL     1       3.248   4.760  17.632  0.00  0.00    +0.000 A 
ATOM     15  C   UNL     1       4.537   5.103  17.209  0.00  0.00    +0.000 A 
ATOM     16  C   UNL     1       5.014   6.388  17.456  0.00  0.00    +0.000 A 
ATOM     17  C   UNL     1       4.181   7.340  18.050  0.00  0.00    +0.000 A 
BRANCH  15  18
ATOM     18  O   UNL     1       5.231   4.091  16.622  0.00  0.00    +0.000 OA
BRANCH  18  19
ATOM     19  C   UNL     1       5.932   4.330  15.410  0.00  0.00    +0.000 C 
ATOM     20  F   UNL     1       6.095   3.240  14.634  0.00  0.00    +0.000 F 
ATOM     21  F   UNL     1       5.282   5.278  14.700  0.00  0.00    +0.000 F 
ATOM     22  F   UNL     1       7.161   4.805  15.716  0.00  0.00    +0.000 F 
ENDBRANCH  18  19
ENDBRANCH  15  18
ENDBRANCH   6  12
BRANCH   1  23
ATOM     23  O   UNL     1      -1.066  12.125  22.848  0.00  0.00    +0.000 OA
BRANCH  23  28
ATOM     24  C   UNL     1      -6.501  13.538  22.864  0.00  0.00    +0.000 C 
ATOM     25  N   UNL     1      -5.040  13.462  22.845  0.00  0.00    +0.000 NA
ATOM     26  C   UNL     1      -4.544  12.818  24.068  0.00  0.00    +0.000 C 
ATOM     27  C   UNL     1      -3.018  12.778  24.084  0.00  0.00    +0.000 C 
ATOM     28  C   UNL     1      -2.499  12.049  22.849  0.00  0.00    +0.000 C 
ATOM     29  C   UNL     1      -3.049  12.706  21.585  0.00  0.00    +0.000 C 
ATOM     30  C   UNL     1      -4.575  12.770  21.636  0.00  0.00    +0.000 C 
ENDBRANCH  23  28
ENDBRANCH   1  23
TORSDOF 5
ENDMDL
MODEL 4
REMARK VINA RESULT:      -8.6      6.873     11.618
REMARK  Name = 
REMARK  6 active torsions:
REMARK  status: ('A' for Active; 'I' for Inactive)
REMARK    1  A    between atoms: C_1  and  N_2
REMARK    2  A    between atoms: C_5  and  O_6
REMARK    3  A    between atoms: O_6  and  C_7
REMARK    4  A    between atoms: C_12  and  C_13
REMARK    5  A    between atoms: C_16  and  O_17
REMARK    6  A    between atoms: O_17  and  C_18
REMARK                            x       y       z     vdW  Elec       q    Type
REMARK                         _______ _______ _______ _____ _____    ______ ____
ROOT
ATOM      1  C   UNL     1       2.056   8.076  18.598  0.00  0.00    +0.000 A 
ATOM      2  C   UNL     1       1.330   8.988  17.828  0.00  0.00    +0.000 A 
ATOM      3  C   UNL     1       0.493   9.932  18.439  0.00  0.00    +0.000 A 
ATOM      4  C   UNL     1       0.379   9.962  19.829  0.00  0.00    +0.000 A 
ATOM      5  C   UNL     1      -0.435  10.941  20.532  0.00  0.00    +0.000 A 
ATOM      6  C   UNL     1      -0.515  10.911  21.871  0.00  0.00    +0.000 A 
ATOM      7  C   UNL     1       0.166   9.854  22.670  0.00  0.00    +0.000 A 
ATOM      8  O   UNL     1       0.004   9.737  23.879  0.00  0.00    +0.000 OA
ATOM      9  O   UNL     1       1.027   9.013  21.979  0.00  0.00    +0.000 OA
ATOM     10  C   UNL     1       1.123   9.056  20.578  0.00  0.00    +0.000 A 
ATOM     11  C   UNL     1       1.982   8.137  19.987  0.00  0.00    +0.000 A 
ENDROOT
BRANCH   6  12
ATOM     12  C   UNL     1      -1.217  11.997  22.564  0.00  0.00    +0.000 A 
ATOM     13  C   UNL     1      -2.495  11.824  23.098  0.00  0.00    +0.000 A 
ATOM     14  C   UNL     1      -3.107  12.877  23.783  0.00  0.00    +0.000 A 
ATOM     15  C   UNL     1      -2.456  14.105  23.946  0.00  0.00    +0.000 A 
ATOM     16  C   UNL     1      -1.204  14.293  23.365  0.00  0.00    +0.000 A 
ATOM     17  C   UNL     1      -0.580  13.238  22.694  0.00  0.00    +0.000 A 
BRANCH  15  18
ATOM     18  O   UNL     1      -3.162  15.036  24.642  0.00  0.00    +0.000 OA
BRANCH  18  19
ATOM     19  C   UNL     1      -4.201  15.758  23.997  0.00  0.00    +0.000 C 
ATOM     20  F   UNL     1      -4.058  15.869  22.660  0.00  0.00    +0.000 F 
ATOM     21  F   UNL     1      -5.386  15.167  24.262  0.00  0.00    +0.000 F 
ATOM     22  F   UNL     1      -4.232  17.009  24.511  0.00  0.00    +0.000 F 
ENDBRANCH  18  19
ENDBRANCH  15  18
ENDBRANCH   6  12
BRANCH   1  23
ATOM     23  O   UNL     1       2.831   7.185  17.911  0.00  0.00    +0.000 OA
BRANCH  23  28
ATOM     24  C   UNL     1       3.507   1.643  18.515  0.00  0.00    +0.000 C 
ATOM     25  N   UNL     1       3.385   3.032  18.072  0.00  0.00    +0.000 NA
ATOM     26  C   UNL     1       2.041   3.547  18.366  0.00  0.00    +0.000 C 
ATOM     27  C   UNL     1       1.884   4.979  17.863  0.00  0.00    +0.000 C 
ATOM     28  C   UNL     1       2.948   5.876  18.487  0.00  0.00    +0.000 C 
ATOM     29  C   UNL     1       4.338   5.311  18.205  0.00  0.00    +0.000 C 
ATOM     30  C   UNL     1       4.434   3.862  18.679  0.00  0.00    +0.000 C 
ENDBRANCH  23  28
ENDBRANCH   1  23
TORSDOF 5
ENDMDL
MODEL 5
REMARK VINA RESULT:      -8.5      7.045     11.600
REMARK  Name = 
REMARK  6 active torsions:
REMARK  status: ('A' for Active; 'I' for Inactive)
REMARK    1  A    between atoms: C_1  and  N_2
REMARK    2  A    between atoms: C_5  and  O_6
REMARK    3  A    between atoms: O_6  and  C_7
REMARK    4  A    between atoms: C_12  and  C_13
REMARK    5  A    between atoms: C_16  and  O_17
REMARK    6  A    between atoms: O_17  and  C_18
REMARK                            x       y       z     vdW  Elec       q    Type
REMARK                         _______ _______ _______ _____ _____    ______ ____
ROOT
ATOM      1  C   UNL     1       2.268   7.817  18.562  0.00  0.00    +0.000 A 
ATOM      2  C   UNL     1       1.633   8.744  17.730  0.00  0.00    +0.000 A 
ATOM      3  C   UNL     1       0.821   9.750  18.270  0.00  0.00    +0.000 A 
ATOM      4  C   UNL     1       0.639   9.828  19.651  0.00  0.00    +0.000 A 
ATOM      5  C   UNL     1      -0.154  10.871  20.282  0.00  0.00    +0.000 A 
ATOM      6  C   UNL     1      -0.303  10.886  21.615  0.00  0.00    +0.000 A 
ATOM      7  C   UNL     1       0.277   9.819  22.479  0.00  0.00    +0.000 A 
ATOM      8  O   UNL     1       0.048   9.749  23.681  0.00  0.00    +0.000 OA
ATOM      9  O   UNL     1       1.123   8.912  21.857  0.00  0.00    +0.000 OA
ATOM     10  C   UNL     1       1.292   8.907  20.463  0.00  0.00    +0.000 A 
ATOM     11  C   UNL     1       2.127   7.925  19.943  0.00  0.00    +0.000 A 
ENDROOT
BRANCH   6  12
ATOM     12  C   UNL     1      -0.978  12.030  22.240  0.00  0.00    +0.000 A 
ATOM     13  C   UNL     1      -2.213  11.897  22.879  0.00  0.00    +0.000 A 
ATOM     14  C   UNL     1      -2.798  13.008  23.492  0.00  0.00    +0.000 A 
ATOM     15  C   UNL     1      -2.161  14.255  23.482  0.00  0.00    +0.000 A 
ATOM     16  C   UNL     1      -0.956  14.397  22.798  0.00  0.00    +0.000 A 
ATOM     17  C   UNL     1      -0.359  13.286  22.197  0.00  0.00    +0.000 A 
BRANCH  15  18
ATOM     18  O   UNL     1      -2.837  15.244  24.126  0.00  0.00    +0.000 OA
BRANCH  18  19
ATOM     19  C   UNL     1      -2.370  15.711  25.383  0.00  0.00    +0.000 C 
ATOM     20  F   UNL     1      -1.070  16.069  25.400  0.00  0.00    +0.000 F 
ATOM     21  F   UNL     1      -3.118  16.766  25.772  0.00  0.00    +0.000 F 
ATOM     22  F   UNL     1      -2.535  14.722  26.292  0.00  0.00    +0.000 F 
ENDBRANCH  18  19
ENDBRANCH  15  18
ENDBRANCH   6  12
BRANCH   1  23
ATOM     23  O   UNL     1       3.027   6.865  17.941  0.00  0.00    +0.000 OA
BRANCH  23  28
ATOM     24  C   UNL     1       3.555   1.328  18.715  0.00  0.00    +0.000 C 
ATOM     25  N   UNL     1       3.537   2.715  18.248  0.00  0.00    +0.000 NA
ATOM     26  C   UNL     1       2.161   3.226  18.215  0.00  0.00    +0.000 C 
ATOM     27  C   UNL     1       2.123   4.656  17.682  0.00  0.00    +0.000 C 
ATOM     28  C   UNL     1       3.008   5.559  18.535  0.00  0.00    +0.000 C 
ATOM     29  C   UNL     1       4.426   4.998  18.591  0.00  0.00    +0.000 C 
ATOM     30  C   UNL     1       4.411   3.551  19.081  0.00  0.00    +0.000 C 
ENDBRANCH  23  28
ENDBRANCH   1  23
TORSDOF 5
ENDMDL
MODEL 6
REMARK VINA RESULT:      -8.3      1.140      1.500
REMARK  Name = 
REMARK  6 active torsions:
REMARK  status: ('A' for Active; 'I' for Inactive)
REMARK    1  A    between atoms: C_1  and  N_2
REMARK    2  A    between atoms: C_5  and  O_6
REMARK    3  A    between atoms: O_6  and  C_7
REMARK    4  A    between atoms: C_12  and  C_13
REMARK    5  A    between atoms: C_16  and  O_17
REMARK    6  A    between atoms: O_17  and  C_18
REMARK                            x       y       z     vdW  Elec       q    Type
REMARK                         _______ _______ _______ _____ _____    ______ ____
ROOT
ATOM      1  C   UNL     1       0.545  10.139  20.011  0.00  0.00    +0.000 A 
ATOM      2  C   UNL     1       0.935  10.681  18.783  0.00  0.00    +0.000 A 
ATOM      3  C   UNL     1       1.799   9.977  17.933  0.00  0.00    +0.000 A 
ATOM      4  C   UNL     1       2.279   8.723  18.316  0.00  0.00    +0.000 A 
ATOM      5  C   UNL     1       3.142   7.918  17.466  0.00  0.00    +0.000 A 
ATOM      6  C   UNL     1       3.582   6.726  17.894  0.00  0.00    +0.000 A 
ATOM      7  C   UNL     1       3.258   6.217  19.257  0.00  0.00    +0.000 A 
ATOM      8  O   UNL     1       3.751   5.190  19.710  0.00  0.00    +0.000 OA
ATOM      9  O   UNL     1       2.338   6.954  19.990  0.00  0.00    +0.000 OA
ATOM     10  C   UNL     1       1.865   8.194  19.533  0.00  0.00    +0.000 A 
ATOM     11  C   UNL     1       0.983   8.867  20.370  0.00  0.00    +0.000 A 
ENDROOT
BRANCH   6  12
ATOM     12  C   UNL     1       4.324   5.867  16.963  0.00  0.00    +0.000 A 
ATOM     13  C   UNL     1       4.137   4.484  16.930  0.00  0.00    +0.000 A 
ATOM     14  C   UNL     1       4.839   3.714  15.999  0.00  0.00    +0.000 A 
ATOM     15  C   UNL     1       5.726   4.308  15.094  0.00  0.00    +0.000 A 
ATOM     16  C   UNL     1       5.952   5.681  15.166  0.00  0.00    +0.000 A 
ATOM     17  C   UNL     1       5.240   6.458  16.083  0.00  0.00    +0.000 A 
BRANCH  15  18
ATOM     18  O   UNL     1       6.331   3.441  14.238  0.00  0.00    +0.000 OA
BRANCH  18  19
ATOM     19  C   UNL     1       6.004   3.474  12.857  0.00  0.00    +0.000 C 
ATOM     20  F   UNL     1       6.044   2.274  12.243  0.00  0.00    +0.000 F 
ATOM     21  F   UNL     1       4.770   4.001  12.703  0.00  0.00    +0.000 F 
ATOM     22  F   UNL     1       6.887   4.285  12.230  0.00  0.00    +0.000 F 
ENDBRANCH  18  19
ENDBRANCH  15  18
ENDBRANCH   6  12
BRANCH   1  23
ATOM     23  O   UNL     1      -0.287  10.908  20.775  0.00  0.00    +0.000 OA
BRANCH  23  28
ATOM     24  C   UNL     1      -5.203  12.796  18.827  0.00  0.00    +0.000 C 
ATOM     25  N   UNL     1      -4.091  12.124  19.499  0.00  0.00    +0.000 NA
ATOM     26  C   UNL     1      -3.232  11.449  18.517  0.00  0.00    +0.000 C 
ATOM     27  C   UNL     1      -2.095  10.702  19.209  0.00  0.00    +0.000 C 
ATOM     28  C   UNL     1      -1.276  11.665  20.063  0.00  0.00    +0.000 C 
ATOM     29  C   UNL     1      -2.185  12.386  21.055  0.00  0.00    +0.000 C 
ATOM     30  C   UNL     1      -3.335  13.076  20.324  0.00  0.00    +0.000 C 
ENDBRANCH  23  28
ENDBRANCH   1  23
TORSDOF 5
ENDMDL
MODEL 7
REMARK VINA RESULT:      -8.2      7.099     11.925
REMARK  Name = 
REMARK  6 active torsions:
REMARK  status: ('A' for Active; 'I' for Inactive)
REMARK    1  A    between atoms: C_1  and  N_2
REMARK    2  A    between atoms: C_5  and  O_6
REMARK    3  A    between atoms: O_6  and  C_7
REMARK    4  A    between atoms: C_12  and  C_13
REMARK    5  A    between atoms: C_16  and  O_17
REMARK    6  A    between atoms: O_17  and  C_18
REMARK                            x       y       z     vdW  Elec       q    Type
REMARK                         _______ _______ _______ _____ _____    ______ ____
ROOT
ATOM      1  C   UNL     1       1.966   7.956  19.086  0.00  0.00    +0.000 A 
ATOM      2  C   UNL     1       1.849   7.571  20.425  0.00  0.00    +0.000 A 
ATOM      3  C   UNL     1       1.212   8.405  21.354  0.00  0.00    +0.000 A 
ATOM      4  C   UNL     1       0.692   9.632  20.943  0.00  0.00    +0.000 A 
ATOM      5  C   UNL     1      -0.019  10.527  21.843  0.00  0.00    +0.000 A 
ATOM      6  C   UNL     1      -0.486  11.701  21.392  0.00  0.00    +0.000 A 
ATOM      7  C   UNL     1      -0.244  12.152  19.993  0.00  0.00    +0.000 A 
ATOM      8  O   UNL     1      -0.553  13.271  19.600  0.00  0.00    +0.000 OA
ATOM      9  O   UNL     1       0.331  11.225  19.134  0.00  0.00    +0.000 OA
ATOM     10  C   UNL     1       0.804   9.989  19.604  0.00  0.00    +0.000 A 
ATOM     11  C   UNL     1       1.403   9.158  18.665  0.00  0.00    +0.000 A 
ENDROOT
BRANCH   6  12
ATOM     12  C   UNL     1      -1.329  12.515  22.276  0.00  0.00    +0.000 A 
ATOM     13  C   UNL     1      -2.689  12.246  22.447  0.00  0.00    +0.000 A 
ATOM     14  C   UNL     1      -3.442  13.026  23.328  0.00  0.00    +0.000 A 
ATOM     15  C   UNL     1      -2.853  14.073  24.047  0.00  0.00    +0.000 A 
ATOM     16  C   UNL     1      -1.510  14.373  23.834  0.00  0.00    +0.000 A 
ATOM     17  C   UNL     1      -0.748  13.586  22.967  0.00  0.00    +0.000 A 
BRANCH  15  18
ATOM     18  O   UNL     1      -3.700  14.740  24.876  0.00  0.00    +0.000 OA
BRANCH  18  19
ATOM     19  C   UNL     1      -4.508  15.788  24.360  0.00  0.00    +0.000 C 
ATOM     20  F   UNL     1      -4.071  16.311  23.197  0.00  0.00    +0.000 F 
ATOM     21  F   UNL     1      -5.769  15.335  24.188  0.00  0.00    +0.000 F 
ATOM     22  F   UNL     1      -4.543  16.786  25.273  0.00  0.00    +0.000 F 
ENDBRANCH  18  19
ENDBRANCH  15  18
ENDBRANCH   6  12
BRANCH   1  23
ATOM     23  O   UNL     1       2.617   7.084  18.259  0.00  0.00    +0.000 OA
BRANCH  23  28
ATOM     24  C   UNL     1       3.523   1.545  18.453  0.00  0.00    +0.000 C 
ATOM     25  N   UNL     1       3.398   2.967  18.129  0.00  0.00    +0.000 NA
ATOM     26  C   UNL     1       1.993   3.387  18.199  0.00  0.00    +0.000 C 
ATOM     27  C   UNL     1       1.842   4.856  17.813  0.00  0.00    +0.000 C 
ATOM     28  C   UNL     1       2.705   5.728  18.719  0.00  0.00    +0.000 C 
ATOM     29  C   UNL     1       4.157   5.259  18.666  0.00  0.00    +0.000 C 
ATOM     30  C   UNL     1       4.254   3.773  19.008  0.00  0.00    +0.000 C 
ENDBRANCH  23  28
ENDBRANCH   1  23
TORSDOF 5
ENDMDL
MODEL 8
REMARK VINA RESULT:      -8.2      3.335      4.701
REMARK  Name = 
REMARK  6 active torsions:
REMARK  status: ('A' for Active; 'I' for Inactive)
REMARK    1  A    between atoms: C_1  and  N_2
REMARK    2  A    between atoms: C_5  and  O_6
REMARK    3  A    between atoms: O_6  and  C_7
REMARK    4  A    between atoms: C_12  and  C_13
REMARK    5  A    between atoms: C_16  and  O_17
REMARK    6  A    between atoms: O_17  and  C_18
REMARK                            x       y       z     vdW  Elec       q    Type
REMARK                         _______ _______ _______ _____ _____    ______ ____
ROOT
ATOM      1  C   UNL     1      -0.574  11.954  22.115  0.00  0.00    +0.000 A 
ATOM      2  C   UNL     1      -0.824  10.951  23.057  0.00  0.00    +0.000 A 
ATOM      3  C   UNL     1      -0.387   9.638  22.835  0.00  0.00    +0.000 A 
ATOM      4  C   UNL     1       0.301   9.325  21.662  0.00  0.00    +0.000 A 
ATOM      5  C   UNL     1       0.820   7.994  21.386  0.00  0.00    +0.000 A 
ATOM      6  C   UNL     1       1.463   7.751  20.234  0.00  0.00    +0.000 A 
ATOM      7  C   UNL     1       1.612   8.799  19.185  0.00  0.00    +0.000 A 
ATOM      8  O   UNL     1       2.085   8.562  18.080  0.00  0.00    +0.000 OA
ATOM      9  O   UNL     1       1.211  10.082  19.532  0.00  0.00    +0.000 OA
ATOM     10  C   UNL     1       0.554  10.340  20.746  0.00  0.00    +0.000 A 
ATOM     11  C   UNL     1       0.156  11.653  20.969  0.00  0.00    +0.000 A 
ENDROOT
BRANCH   6  12
ATOM     12  C   UNL     1       2.109   6.447  20.044  0.00  0.00    +0.000 A 
ATOM     13  C   UNL     1       1.670   5.304  20.715  0.00  0.00    +0.000 A 
ATOM     14  C   UNL     1       2.293   4.077  20.472  0.00  0.00    +0.000 A 
ATOM     15  C   UNL     1       3.352   3.974  19.562  0.00  0.00    +0.000 A 
ATOM     16  C   UNL     1       3.823   5.125  18.936  0.00  0.00    +0.000 A 
ATOM     17  C   UNL     1       3.193   6.352  19.162  0.00  0.00    +0.000 A 
BRANCH  15  18
ATOM     18  O   UNL     1       3.856   2.720  19.415  0.00  0.00    +0.000 OA
BRANCH  18  19
ATOM     19  C   UNL     1       3.203   1.795  18.558  0.00  0.00    +0.000 C 
ATOM     20  F   UNL     1       2.885   2.286  17.343  0.00  0.00    +0.000 F 
ATOM     21  F   UNL     1       3.986   0.706  18.397  0.00  0.00    +0.000 F 
ATOM     22  F   UNL     1       2.054   1.400  19.155  0.00  0.00    +0.000 F 
ENDBRANCH  18  19
ENDBRANCH  15  18
ENDBRANCH   6  12
BRANCH   1  23
ATOM     23  O   UNL     1      -1.052  13.199  22.415  0.00  0.00    +0.000 OA
BRANCH  23  28
ATOM     24  C   UNL     1      -6.246  14.907  23.696  0.00  0.00    +0.000 C 
ATOM     25  N   UNL     1      -4.883  14.710  23.201  0.00  0.00    +0.000 NA
ATOM     26  C   UNL     1      -3.935  14.654  24.321  0.00  0.00    +0.000 C 
ATOM     27  C   UNL     1      -2.502  14.500  23.817  0.00  0.00    +0.000 C 
ATOM     28  C   UNL     1      -2.381  13.249  22.952  0.00  0.00    +0.000 C 
ATOM     29  C   UNL     1      -3.396  13.303  21.812  0.00  0.00    +0.000 C 
ATOM     30  C   UNL     1      -4.807  13.509  22.360  0.00  0.00    +0.000 C 
ENDBRANCH  23  28
ENDBRANCH   1  23
TORSDOF 5
ENDMDL
MODEL 9
REMARK VINA RESULT:      -8.1      3.136      4.589
REMARK  Name = 
REMARK  6 active torsions:
REMARK  status: ('A' for Active; 'I' for Inactive)
REMARK    1  A    between atoms: C_1  and  N_2
REMARK    2  A    between atoms: C_5  and  O_6
REMARK    3  A    between atoms: O_6  and  C_7
REMARK    4  A    between atoms: C_12  and  C_13
REMARK    5  A    between atoms: C_16  and  O_17
REMARK    6  A    between atoms: O_17  and  C_18
REMARK                            x       y       z     vdW  Elec       q    Type
REMARK                         _______ _______ _______ _____ _____    ______ ____
ROOT
ATOM      1  C   UNL     1      -0.635  11.859  22.317  0.00  0.00    +0.000 A 
ATOM      2  C   UNL     1      -0.914  10.804  23.190  0.00  0.00    +0.000 A 
ATOM      3  C   UNL     1      -0.482   9.503  22.899  0.00  0.00    +0.000 A 
ATOM      4  C   UNL     1       0.232   9.256  21.726  0.00  0.00    +0.000 A 
ATOM      5  C   UNL     1       0.749   7.940  21.381  0.00  0.00    +0.000 A 
ATOM      6  C   UNL     1       1.417   7.761  20.232  0.00  0.00    +0.000 A 
ATOM      7  C   UNL     1       1.599   8.870  19.253  0.00  0.00    +0.000 A 
ATOM      8  O   UNL     1       2.096   8.696  18.147  0.00  0.00    +0.000 OA
ATOM      9  O   UNL     1       1.199  10.133  19.668  0.00  0.00    +0.000 OA
ATOM     10  C   UNL     1       0.514  10.322  20.879  0.00  0.00    +0.000 A 
ATOM     11  C   UNL     1       0.120  11.623  21.172  0.00  0.00    +0.000 A 
ENDROOT
BRANCH   6  12
ATOM     12  C   UNL     1       2.059   6.466  19.979  0.00  0.00    +0.000 A 
ATOM     13  C   UNL     1       3.142   6.340  19.107  0.00  0.00    +0.000 A 
ATOM     14  C   UNL     1       3.744   5.092  18.928  0.00  0.00    +0.000 A 
ATOM     15  C   UNL     1       3.281   3.963  19.615  0.00  0.00    +0.000 A 
ATOM     16  C   UNL     1       2.167   4.081  20.442  0.00  0.00    +0.000 A 
ATOM     17  C   UNL     1       1.571   5.330  20.638  0.00  0.00    +0.000 A 
BRANCH  15  18
ATOM     18  O   UNL     1       3.967   2.818  19.355  0.00  0.00    +0.000 OA
BRANCH  18  19
ATOM     19  C   UNL     1       3.582   2.002  18.257  0.00  0.00    +0.000 C 
ATOM     20  F   UNL     1       2.262   2.014  17.986  0.00  0.00    +0.000 F 
ATOM     21  F   UNL     1       4.257   2.393  17.154  0.00  0.00    +0.000 F 
ATOM     22  F   UNL     1       3.934   0.725  18.533  0.00  0.00    +0.000 F 
ENDBRANCH  18  19
ENDBRANCH  15  18
ENDBRANCH   6  12
BRANCH   1  23
ATOM     23  O   UNL     1      -1.112  13.088  22.680  0.00  0.00    +0.000 OA
BRANCH  23  28
ATOM     24  C   UNL     1      -6.543  12.462  21.396  0.00  0.00    +0.000 C 
ATOM     25  N   UNL     1      -5.135  12.331  21.772  0.00  0.00    +0.000 NA
ATOM     26  C   UNL     1      -4.269  12.788  20.678  0.00  0.00    +0.000 C 
ATOM     27  C   UNL     1      -2.796  12.610  21.037  0.00  0.00    +0.000 C 
ATOM     28  C   UNL     1      -2.474  13.365  22.323  0.00  0.00    +0.000 C 
ATOM     29  C   UNL     1      -3.404  12.907  23.444  0.00  0.00    +0.000 C 
ATOM     30  C   UNL     1      -4.865  13.055  23.021  0.00  0.00    +0.000 C 
ENDBRANCH  23  28
ENDBRANCH   1  23
TORSDOF 5
ENDMDL
