MODEL 1
REMARK VINA RESULT:      -6.1      0.000      0.000
REMARK  Name = 
REMARK  9 active torsions:
REMARK  status: ('A' for Active; 'I' for Inactive)
REMARK    1  A    between atoms: C_1  and  C_2
REMARK    2  A    between atoms: C_6  and  C_7
REMARK    3  A    between atoms: C_7  and  O_9
REMARK    4  A    between atoms: O_9  and  C_10
REMARK    5  A    between atoms: C_10  and  C_11
REMARK    6  A    between atoms: C_11  and  C_12
REMARK    7  A    between atoms: N_14  and  C_15
REMARK    8  A    between atoms: C_15  and  C_16
REMARK    9  A    between atoms: C_15  and  C_17
REMARK                            x       y       z     vdW  Elec       q    Type
REMARK                         _______ _______ _______ _____ _____    ______ ____
ROOT
ATOM      1  O   UNL     1       4.713   5.409  18.054  0.00  0.00    +0.000 OA
ENDROOT
BRANCH   1   2
ATOM      2  C   UNL     1       4.786   4.413  18.987  0.00  0.00    +0.000 C 
ATOM      3  O   UNL     1       5.835   3.935  19.399  0.00  0.00    +0.000 OA
BRANCH   2   9
ATOM      4  C   UNL     1       3.535   1.527  18.437  0.00  0.00    +0.000 C 
ATOM      5  C   UNL     1       2.896   2.655  19.178  0.00  0.00    +0.000 A 
ATOM      6  N   UNL     1       1.669   2.459  19.665  0.00  0.00    +0.000 NA
ATOM      7  S   UNL     1       1.162   3.827  20.438  0.00  0.00    +0.000 S 
ATOM      8  C   UNL     1       2.575   4.730  20.139  0.00  0.00    +0.000 A 
ATOM      9  C   UNL     1       3.473   3.957  19.421  0.00  0.00    +0.000 A 
ENDBRANCH   2   9
ENDBRANCH   1   2
BRANCH   1  10
ATOM     10  C   UNL     1       4.280   5.000  16.747  0.00  0.00    +0.000 C 
BRANCH  10  11
ATOM     11  C   UNL     1       5.264   5.470  15.678  0.00  0.00    +0.000 C 
BRANCH  11  12
ATOM     12  C   UNL     1       6.605   5.770  16.304  0.00  0.00    +0.000 C 
ATOM     13  O   UNL     1       7.542   4.974  16.277  0.00  0.00    +0.000 OA
ATOM     14  N   UNL     1       6.694   7.011  16.899  0.00  0.00    +0.000 N 
ATOM     15  H   UNL     1       5.854   7.562  17.021  0.00  0.00    +0.000 HD
BRANCH  14  16
ATOM     16  C   UNL     1       7.924   7.439  17.555  0.00  0.00    +0.000 C 
ATOM     17  C   UNL     1       7.930   8.949  17.771  0.00  0.00    +0.000 C 
ATOM     18  C   UNL     1       8.128   6.713  18.883  0.00  0.00    +0.000 C 
ENDBRANCH  14  16
ENDBRANCH  11  12
ENDBRANCH  10  11
ENDBRANCH   1  10
TORSDOF 6
ENDMDL
MODEL 2
REMARK VINA RESULT:      -6.0      2.723      5.971
REMARK  Name = 
REMARK  9 active torsions:
REMARK  status: ('A' for Active; 'I' for Inactive)
REMARK    1  A    between atoms: C_1  and  C_2
REMARK    2  A    between atoms: C_6  and  C_7
REMARK    3  A    between atoms: C_7  and  O_9
REMARK    4  A    between atoms: O_9  and  C_10
REMARK    5  A    between atoms: C_10  and  C_11
REMARK    6  A    between atoms: C_11  and  C_12
REMARK    7  A    between atoms: N_14  and  C_15
REMARK    8  A    between atoms: C_15  and  C_16
REMARK    9  A    between atoms: C_15  and  C_17
REMARK                            x       y       z     vdW  Elec       q    Type
REMARK                         _______ _______ _______ _____ _____    ______ ____
ROOT
ATOM      1  O   UNL     1       4.792   5.796  19.062  0.00  0.00    +0.000 OA
ENDROOT
BRANCH   1   2
ATOM      2  C   UNL     1       5.339   4.625  18.617  0.00  0.00    +0.000 C 
ATOM      3  O   UNL     1       5.316   3.576  19.247  0.00  0.00    +0.000 OA
BRANCH   2   9
ATOM      4  C   UNL     1       7.625   6.730  17.885  0.00  0.00    +0.000 C 
ATOM      5  C   UNL     1       7.016   5.715  16.975  0.00  0.00    +0.000 A 
ATOM      6  N   UNL     1       7.456   5.670  15.716  0.00  0.00    +0.000 NA
ATOM      7  S   UNL     1       6.649   4.485  14.897  0.00  0.00    +0.000 S 
ATOM      8  C   UNL     1       5.678   3.996  16.209  0.00  0.00    +0.000 A 
ATOM      9  C   UNL     1       5.982   4.767  17.319  0.00  0.00    +0.000 A 
ENDBRANCH   2   9
ENDBRANCH   1   2
BRANCH   1  10
ATOM     10  C   UNL     1       3.681   6.289  18.294  0.00  0.00    +0.000 C 
BRANCH  10  11
ATOM     11  C   UNL     1       2.714   7.071  19.180  0.00  0.00    +0.000 C 
BRANCH  11  12
ATOM     12  C   UNL     1       1.958   6.127  20.083  0.00  0.00    +0.000 C 
ATOM     13  O   UNL     1       1.264   6.519  21.020  0.00  0.00    +0.000 OA
ATOM     14  N   UNL     1       2.102   4.793  19.766  0.00  0.00    +0.000 N 
ATOM     15  H   UNL     1       2.798   4.520  19.083  0.00  0.00    +0.000 HD
BRANCH  14  16
ATOM     16  C   UNL     1       1.441   3.760  20.555  0.00  0.00    +0.000 C 
ATOM     17  C   UNL     1       0.752   2.742  19.653  0.00  0.00    +0.000 C 
ATOM     18  C   UNL     1       2.424   3.061  21.491  0.00  0.00    +0.000 C 
ENDBRANCH  14  16
ENDBRANCH  11  12
ENDBRANCH  10  11
ENDBRANCH   1  10
TORSDOF 6
ENDMDL
MODEL 3
REMARK VINA RESULT:      -6.0      1.265      1.295
REMARK  Name = 
REMARK  9 active torsions:
REMARK  status: ('A' for Active; 'I' for Inactive)
REMARK    1  A    between atoms: C_1  and  C_2
REMARK    2  A    between atoms: C_6  and  C_7
REMARK    3  A    between atoms: C_7  and  O_9
REMARK    4  A    between atoms: O_9  and  C_10
REMARK    5  A    between atoms: C_10  and  C_11
REMARK    6  A    between atoms: C_11  and  C_12
REMARK    7  A    between atoms: N_14  and  C_15
REMARK    8  A    between atoms: C_15  and  C_16
REMARK    9  A    between atoms: C_15  and  C_17
REMARK                            x       y       z     vdW  Elec       q    Type
REMARK                         _______ _______ _______ _____ _____    ______ ____
ROOT
ATOM      1  O   UNL     1       4.355   3.336  17.470  0.00  0.00    +0.000 OA
ENDROOT
BRANCH   1   2
ATOM      2  C   UNL     1       4.507   3.597  18.803  0.00  0.00    +0.000 C 
ATOM      3  O   UNL     1       5.536   3.384  19.429  0.00  0.00    +0.000 OA
BRANCH   2   9
ATOM      4  C   UNL     1       1.757   2.022  19.187  0.00  0.00    +0.000 C 
ATOM      5  C   UNL     1       2.047   3.431  19.587  0.00  0.00    +0.000 A 
ATOM      6  N   UNL     1       1.063   4.125  20.163  0.00  0.00    +0.000 NA
ATOM      7  S   UNL     1       1.601   5.645  20.517  0.00  0.00    +0.000 S 
ATOM      8  C   UNL     1       3.175   5.421  19.903  0.00  0.00    +0.000 A 
ATOM      9  C   UNL     1       3.297   4.132  19.408  0.00  0.00    +0.000 A 
ENDBRANCH   2   9
ENDBRANCH   1   2
BRANCH   1  10
ATOM     10  C   UNL     1       4.269   4.492  16.620  0.00  0.00    +0.000 C 
BRANCH  10  11
ATOM     11  C   UNL     1       5.318   4.429  15.512  0.00  0.00    +0.000 C 
BRANCH  11  12
ATOM     12  C   UNL     1       6.586   5.116  15.958  0.00  0.00    +0.000 C 
ATOM     13  O   UNL     1       7.558   5.259  15.219  0.00  0.00    +0.000 OA
ATOM     14  N   UNL     1       6.561   5.576  17.258  0.00  0.00    +0.000 N 
ATOM     15  H   UNL     1       5.798   5.303  17.864  0.00  0.00    +0.000 HD
BRANCH  14  16
ATOM     16  C   UNL     1       7.717   6.251  17.835  0.00  0.00    +0.000 C 
ATOM     17  C   UNL     1       7.634   7.759  17.620  0.00  0.00    +0.000 C 
ATOM     18  C   UNL     1       7.860   5.935  19.322  0.00  0.00    +0.000 C 
ENDBRANCH  14  16
ENDBRANCH  11  12
ENDBRANCH  10  11
ENDBRANCH   1  10
TORSDOF 6
ENDMDL
MODEL 4
REMARK VINA RESULT:      -6.0      2.682      4.195
REMARK  Name = 
REMARK  9 active torsions:
REMARK  status: ('A' for Active; 'I' for Inactive)
REMARK    1  A    between atoms: C_1  and  C_2
REMARK    2  A    between atoms: C_6  and  C_7
REMARK    3  A    between atoms: C_7  and  O_9
REMARK    4  A    between atoms: O_9  and  C_10
REMARK    5  A    between atoms: C_10  and  C_11
REMARK    6  A    between atoms: C_11  and  C_12
REMARK    7  A    between atoms: N_14  and  C_15
REMARK    8  A    between atoms: C_15  and  C_16
REMARK    9  A    between atoms: C_15  and  C_17
REMARK                            x       y       z     vdW  Elec       q    Type
REMARK                         _______ _______ _______ _____ _____    ______ ____
ROOT
ATOM      1  O   UNL     1       5.177   5.365  17.448  0.00  0.00    +0.000 OA
ENDROOT
BRANCH   1   2
ATOM      2  C   UNL     1       5.079   4.500  18.501  0.00  0.00    +0.000 C 
ATOM      3  O   UNL     1       6.026   4.156  19.196  0.00  0.00    +0.000 OA
BRANCH   2   9
ATOM      4  C   UNL     1       2.589   6.219  19.519  0.00  0.00    +0.000 C 
ATOM      5  C   UNL     1       2.590   4.771  19.153  0.00  0.00    +0.000 A 
ATOM      6  N   UNL     1       1.438   4.106  19.260  0.00  0.00    +0.000 NA
ATOM      7  S   UNL     1       1.670   2.534  18.809  0.00  0.00    +0.000 S 
ATOM      8  C   UNL     1       3.329   2.697  18.457  0.00  0.00    +0.000 A 
ATOM      9  C   UNL     1       3.724   4.004  18.692  0.00  0.00    +0.000 A 
ENDBRANCH   2   9
ENDBRANCH   1   2
BRANCH   1  10
ATOM     10  C   UNL     1       5.187   4.756  16.147  0.00  0.00    +0.000 C 
BRANCH  10  11
ATOM     11  C   UNL     1       6.613   4.432  15.710  0.00  0.00    +0.000 C 
BRANCH  11  12
ATOM     12  C   UNL     1       6.715   4.467  14.204  0.00  0.00    +0.000 C 
ATOM     13  O   UNL     1       7.391   5.302  13.605  0.00  0.00    +0.000 OA
ATOM     14  N   UNL     1       5.997   3.483  13.558  0.00  0.00    +0.000 N 
ATOM     15  H   UNL     1       5.345   2.919  14.089  0.00  0.00    +0.000 HD
BRANCH  14  16
ATOM     16  C   UNL     1       5.989   3.396  12.103  0.00  0.00    +0.000 C 
ATOM     17  C   UNL     1       6.836   2.223  11.621  0.00  0.00    +0.000 C 
ATOM     18  C   UNL     1       4.565   3.280  11.561  0.00  0.00    +0.000 C 
ENDBRANCH  14  16
ENDBRANCH  11  12
ENDBRANCH  10  11
ENDBRANCH   1  10
TORSDOF 6
ENDMDL
MODEL 5
REMARK VINA RESULT:      -5.9      1.920      3.393
REMARK  Name = 
REMARK  9 active torsions:
REMARK  status: ('A' for Active; 'I' for Inactive)
REMARK    1  A    between atoms: C_1  and  C_2
REMARK    2  A    between atoms: C_6  and  C_7
REMARK    3  A    between atoms: C_7  and  O_9
REMARK    4  A    between atoms: O_9  and  C_10
REMARK    5  A    between atoms: C_10  and  C_11
REMARK    6  A    between atoms: C_11  and  C_12
REMARK    7  A    between atoms: N_14  and  C_15
REMARK    8  A    between atoms: C_15  and  C_16
REMARK    9  A    between atoms: C_15  and  C_17
REMARK                            x       y       z     vdW  Elec       q    Type
REMARK                         _______ _______ _______ _____ _____    ______ ____
ROOT
ATOM      1  O   UNL     1       4.444   5.693  17.430  0.00  0.00    +0.000 OA
ENDROOT
BRANCH   1   2
ATOM      2  C   UNL     1       3.187   5.939  17.907  0.00  0.00    +0.000 C 
ATOM      3  O   UNL     1       2.686   7.053  17.974  0.00  0.00    +0.000 OA
BRANCH   2   9
ATOM      4  C   UNL     1       1.755   5.538  20.732  0.00  0.00    +0.000 C 
ATOM      5  C   UNL     1       1.864   4.535  19.632  0.00  0.00    +0.000 A 
ATOM      6  N   UNL     1       1.316   3.335  19.832  0.00  0.00    +0.000 NA
ATOM      7  S   UNL     1       1.556   2.393  18.497  0.00  0.00    +0.000 S 
ATOM      8  C   UNL     1       2.409   3.569  17.606  0.00  0.00    +0.000 A 
ATOM      9  C   UNL     1       2.515   4.729  18.356  0.00  0.00    +0.000 A 
ENDBRANCH   2   9
ENDBRANCH   1   2
BRANCH   1  10
ATOM     10  C   UNL     1       5.290   6.847  17.294  0.00  0.00    +0.000 C 
BRANCH  10  11
ATOM     11  C   UNL     1       6.755   6.473  17.505  0.00  0.00    +0.000 C 
BRANCH  11  12
ATOM     12  C   UNL     1       7.160   5.392  16.533  0.00  0.00    +0.000 C 
ATOM     13  O   UNL     1       7.891   4.455  16.849  0.00  0.00    +0.000 OA
ATOM     14  N   UNL     1       6.638   5.538  15.265  0.00  0.00    +0.000 N 
ATOM     15  H   UNL     1       6.168   6.400  15.020  0.00  0.00    +0.000 HD
BRANCH  14  16
ATOM     16  C   UNL     1       6.949   4.578  14.212  0.00  0.00    +0.000 C 
ATOM     17  C   UNL     1       5.679   3.935  13.666  0.00  0.00    +0.000 C 
ATOM     18  C   UNL     1       7.743   5.230  13.082  0.00  0.00    +0.000 C 
ENDBRANCH  14  16
ENDBRANCH  11  12
ENDBRANCH  10  11
ENDBRANCH   1  10
TORSDOF 6
ENDMDL
MODEL 6
REMARK VINA RESULT:      -5.8      2.760      4.353
REMARK  Name = 
REMARK  9 active torsions:
REMARK  status: ('A' for Active; 'I' for Inactive)
REMARK    1  A    between atoms: C_1  and  C_2
REMARK    2  A    between atoms: C_6  and  C_7
REMARK    3  A    between atoms: C_7  and  O_9
REMARK    4  A    between atoms: O_9  and  C_10
REMARK    5  A    between atoms: C_10  and  C_11
REMARK    6  A    between atoms: C_11  and  C_12
REMARK    7  A    between atoms: N_14  and  C_15
REMARK    8  A    between atoms: C_15  and  C_16
REMARK    9  A    between atoms: C_15  and  C_17
REMARK                            x       y       z     vdW  Elec       q    Type
REMARK                         _______ _______ _______ _____ _____    ______ ____
ROOT
ATOM      1  O   UNL     1       4.661   4.486  17.272  0.00  0.00    +0.000 OA
ENDROOT
BRANCH   1   2
ATOM      2  C   UNL     1       3.628   5.183  17.833  0.00  0.00    +0.000 C 
ATOM      3  O   UNL     1       3.577   6.405  17.892  0.00  0.00    +0.000 OA
BRANCH   2   9
ATOM      4  C   UNL     1       1.941   5.729  20.488  0.00  0.00    +0.000 C 
ATOM      5  C   UNL     1       1.831   4.547  19.583  0.00  0.00    +0.000 A 
ATOM      6  N   UNL     1       0.942   3.603  19.903  0.00  0.00    +0.000 NA
ATOM      7  S   UNL     1       0.992   2.400  18.774  0.00  0.00    +0.000 S 
ATOM      8  C   UNL     1       2.214   3.106  17.819  0.00  0.00    +0.000 A 
ATOM      9  C   UNL     1       2.600   4.312  18.383  0.00  0.00    +0.000 A 
ENDBRANCH   2   9
ENDBRANCH   1   2
BRANCH   1  10
ATOM     10  C   UNL     1       5.340   5.150  16.194  0.00  0.00    +0.000 C 
BRANCH  10  11
ATOM     11  C   UNL     1       6.539   4.331  15.721  0.00  0.00    +0.000 C 
BRANCH  11  12
ATOM     12  C   UNL     1       6.648   4.393  14.217  0.00  0.00    +0.000 C 
ATOM     13  O   UNL     1       7.288   5.267  13.635  0.00  0.00    +0.000 OA
ATOM     14  N   UNL     1       5.981   3.386  13.552  0.00  0.00    +0.000 N 
ATOM     15  H   UNL     1       5.353   2.784  14.069  0.00  0.00    +0.000 HD
BRANCH  14  16
ATOM     16  C   UNL     1       5.986   3.320  12.095  0.00  0.00    +0.000 C 
ATOM     17  C   UNL     1       6.751   2.094  11.607  0.00  0.00    +0.000 C 
ATOM     18  C   UNL     1       4.566   3.318  11.534  0.00  0.00    +0.000 C 
ENDBRANCH  14  16
ENDBRANCH  11  12
ENDBRANCH  10  11
ENDBRANCH   1  10
TORSDOF 6
ENDMDL
MODEL 7
REMARK VINA RESULT:      -5.8      2.436      3.178
REMARK  Name = 
REMARK  9 active torsions:
REMARK  status: ('A' for Active; 'I' for Inactive)
REMARK    1  A    between atoms: C_1  and  C_2
REMARK    2  A    between atoms: C_6  and  C_7
REMARK    3  A    between atoms: C_7  and  O_9
REMARK    4  A    between atoms: O_9  and  C_10
REMARK    5  A    between atoms: C_10  and  C_11
REMARK    6  A    between atoms: C_11  and  C_12
REMARK    7  A    between atoms: N_14  and  C_15
REMARK    8  A    between atoms: C_15  and  C_16
REMARK    9  A    between atoms: C_15  and  C_17
REMARK                            x       y       z     vdW  Elec       q    Type
REMARK                         _______ _______ _______ _____ _____    ______ ____
ROOT
ATOM      1  O   UNL     1       2.804   4.970  17.410  0.00  0.00    +0.000 OA
ENDROOT
BRANCH   1   2
ATOM      2  C   UNL     1       2.120   3.921  17.958  0.00  0.00    +0.000 C 
ATOM      3  O   UNL     1       0.995   3.582  17.615  0.00  0.00    +0.000 OA
BRANCH   2   9
ATOM      4  C   UNL     1       1.191   3.649  21.000  0.00  0.00    +0.000 C 
ATOM      5  C   UNL     1       2.457   3.134  20.400  0.00  0.00    +0.000 A 
ATOM      6  N   UNL     1       3.308   2.493  21.204  0.00  0.00    +0.000 NA
ATOM      7  S   UNL     1       4.629   2.017  20.336  0.00  0.00    +0.000 S 
ATOM      8  C   UNL     1       4.102   2.660  18.849  0.00  0.00    +0.000 A 
ATOM      9  C   UNL     1       2.866   3.263  19.020  0.00  0.00    +0.000 A 
ENDBRANCH   2   9
ENDBRANCH   1   2
BRANCH   1  10
ATOM     10  C   UNL     1       2.964   6.116  18.262  0.00  0.00    +0.000 C 
BRANCH  10  11
ATOM     11  C   UNL     1       3.712   7.232  17.537  0.00  0.00    +0.000 C 
BRANCH  11  12
ATOM     12  C   UNL     1       4.811   6.649  16.683  0.00  0.00    +0.000 C 
ATOM     13  O   UNL     1       5.053   7.052  15.546  0.00  0.00    +0.000 OA
ATOM     14  N   UNL     1       5.527   5.635  17.283  0.00  0.00    +0.000 N 
ATOM     15  H   UNL     1       5.193   5.244  18.156  0.00  0.00    +0.000 HD
BRANCH  14  16
ATOM     16  C   UNL     1       6.614   4.965  16.578  0.00  0.00    +0.000 C 
ATOM     17  C   UNL     1       7.682   4.483  17.553  0.00  0.00    +0.000 C 
ATOM     18  C   UNL     1       6.096   3.800  15.738  0.00  0.00    +0.000 C 
ENDBRANCH  14  16
ENDBRANCH  11  12
ENDBRANCH  10  11
ENDBRANCH   1  10
TORSDOF 6
ENDMDL
MODEL 8
REMARK VINA RESULT:      -5.8      1.259      1.516
REMARK  Name = 
REMARK  9 active torsions:
REMARK  status: ('A' for Active; 'I' for Inactive)
REMARK    1  A    between atoms: C_1  and  C_2
REMARK    2  A    between atoms: C_6  and  C_7
REMARK    3  A    between atoms: C_7  and  O_9
REMARK    4  A    between atoms: O_9  and  C_10
REMARK    5  A    between atoms: C_10  and  C_11
REMARK    6  A    between atoms: C_11  and  C_12
REMARK    7  A    between atoms: N_14  and  C_15
REMARK    8  A    between atoms: C_15  and  C_16
REMARK    9  A    between atoms: C_15  and  C_17
REMARK                            x       y       z     vdW  Elec       q    Type
REMARK                         _______ _______ _______ _____ _____    ______ ____
ROOT
ATOM      1  O   UNL     1       4.929   4.253  18.571  0.00  0.00    +0.000 OA
ENDROOT
BRANCH   1   2
ATOM      2  C   UNL     1       3.913   4.979  19.125  0.00  0.00    +0.000 C 
ATOM      3  O   UNL     1       3.907   6.201  19.204  0.00  0.00    +0.000 OA
BRANCH   2   9
ATOM      4  C   UNL     1       1.180   4.305  17.619  0.00  0.00    +0.000 C 
ATOM      5  C   UNL     1       1.601   3.826  18.969  0.00  0.00    +0.000 A 
ATOM      6  N   UNL     1       0.758   3.036  19.636  0.00  0.00    +0.000 NA
ATOM      7  S   UNL     1       1.423   2.632  21.092  0.00  0.00    +0.000 S 
ATOM      8  C   UNL     1       2.866   3.511  20.875  0.00  0.00    +0.000 A 
ATOM      9  C   UNL     1       2.842   4.138  19.640  0.00  0.00    +0.000 A 
ENDBRANCH   2   9
ENDBRANCH   1   2
BRANCH   1  10
ATOM     10  C   UNL     1       4.667   3.723  17.262  0.00  0.00    +0.000 C 
BRANCH  10  11
ATOM     11  C   UNL     1       5.135   4.693  16.180  0.00  0.00    +0.000 C 
BRANCH  11  12
ATOM     12  C   UNL     1       6.517   5.205  16.505  0.00  0.00    +0.000 C 
ATOM     13  O   UNL     1       7.540   4.662  16.090  0.00  0.00    +0.000 OA
ATOM     14  N   UNL     1       6.539   6.334  17.296  0.00  0.00    +0.000 N 
ATOM     15  H   UNL     1       5.680   6.650  17.728  0.00  0.00    +0.000 HD
BRANCH  14  16
ATOM     16  C   UNL     1       7.802   6.939  17.703  0.00  0.00    +0.000 C 
ATOM     17  C   UNL     1       7.733   8.460  17.613  0.00  0.00    +0.000 C 
ATOM     18  C   UNL     1       8.196   6.508  19.114  0.00  0.00    +0.000 C 
ENDBRANCH  14  16
ENDBRANCH  11  12
ENDBRANCH  10  11
ENDBRANCH   1  10
TORSDOF 6
ENDMDL
MODEL 9
REMARK VINA RESULT:      -5.8      2.938      6.279
REMARK  Name = 
REMARK  9 active torsions:
REMARK  status: ('A' for Active; 'I' for Inactive)
REMARK    1  A    between atoms: C_1  and  C_2
REMARK    2  A    between atoms: C_6  and  C_7
REMARK    3  A    between atoms: C_7  and  O_9
REMARK    4  A    between atoms: O_9  and  C_10
REMARK    5  A    between atoms: C_10  and  C_11
REMARK    6  A    between atoms: C_11  and  C_12
REMARK    7  A    between atoms: N_14  and  C_15
REMARK    8  A    between atoms: C_15  and  C_16
REMARK    9  A    between atoms: C_15  and  C_17
REMARK                            x       y       z     vdW  Elec       q    Type
REMARK                         _______ _______ _______ _____ _____    ______ ____
ROOT
ATOM      1  O   UNL     1       4.112   5.789  17.561  0.00  0.00    +0.000 OA
ENDROOT
BRANCH   1   2
ATOM      2  C   UNL     1       4.508   4.586  17.048  0.00  0.00    +0.000 C 
ATOM      3  O   UNL     1       4.063   3.506  17.412  0.00  0.00    +0.000 OA
BRANCH   2   9
ATOM      4  C   UNL     1       7.373   5.929  17.477  0.00  0.00    +0.000 C 
ATOM      5  C   UNL     1       6.843   5.331  16.216  0.00  0.00    +0.000 A 
ATOM      6  N   UNL     1       7.633   5.354  15.140  0.00  0.00    +0.000 NA
ATOM      7  S   UNL     1       6.849   4.647  13.871  0.00  0.00    +0.000 S 
ATOM      8  C   UNL     1       5.420   4.288  14.725  0.00  0.00    +0.000 A 
ATOM      9  C   UNL     1       5.544   4.725  16.035  0.00  0.00    +0.000 A 
ENDBRANCH   2   9
ENDBRANCH   1   2
BRANCH   1  10
ATOM     10  C   UNL     1       4.104   5.877  18.995  0.00  0.00    +0.000 C 
BRANCH  10  11
ATOM     11  C   UNL     1       2.874   6.637  19.485  0.00  0.00    +0.000 C 
BRANCH  11  12
ATOM     12  C   UNL     1       1.867   5.675  20.066  0.00  0.00    +0.000 C 
ATOM     13  O   UNL     1       1.052   6.007  20.925  0.00  0.00    +0.000 OA
ATOM     14  N   UNL     1       1.931   4.398  19.550  0.00  0.00    +0.000 N 
ATOM     15  H   UNL     1       2.711   4.143  18.958  0.00  0.00    +0.000 HD
BRANCH  14  16
ATOM     16  C   UNL     1       1.028   3.354  20.021  0.00  0.00    +0.000 C 
ATOM     17  C   UNL     1       0.785   2.311  18.935  0.00  0.00    +0.000 C 
ATOM     18  C   UNL     1       1.563   2.687  21.287  0.00  0.00    +0.000 C 
ENDBRANCH  14  16
ENDBRANCH  11  12
ENDBRANCH  10  11
ENDBRANCH   1  10
TORSDOF 6
ENDMDL
