MODEL 1
REMARK VINA RESULT:      -8.1      0.000      0.000
REMARK  Name = 
REMARK  6 active torsions:
REMARK  status: ('A' for Active; 'I' for Inactive)
REMARK    1  A    between atoms: N_1  and  S_2
REMARK    2  A    between atoms: S_2  and  C_5
REMARK    3  A    between atoms: C_8  and  C_9
REMARK    4  A    between atoms: C_9  and  N_10
REMARK    5  A    between atoms: C_11  and  C_13
REMARK    6  A    between atoms: C_13  and  N_14
REMARK                            x       y       z     vdW  Elec       q    Type
REMARK                         _______ _______ _______ _____ _____    ______ ____
ROOT
ATOM      1  N   UNL     1       2.715   6.766  18.763  0.00  0.00    +0.000 N 
ATOM      2  C   UNL     1       2.142   5.527  18.513  0.00  0.00    +0.000 C 
ATOM      3  O   UNL     1       1.258   5.365  17.692  0.00  0.00    +0.000 OA
ATOM      4  H   UNL     1       3.615   6.805  19.236  0.00  0.00    +0.000 HD
ENDROOT
BRANCH   1   5
ATOM      5  C   UNL     1       2.227   7.941  18.072  0.00  0.00    +0.000 C 
BRANCH   5   9
ATOM      6  C   UNL     1       0.213  10.716  20.701  0.00  0.00    +0.000 A 
ATOM      7  C   UNL     1       0.669   9.497  21.198  0.00  0.00    +0.000 A 
ATOM      8  C   UNL     1       1.309   8.605  20.330  0.00  0.00    +0.000 A 
ATOM      9  C   UNL     1       1.496   8.917  18.971  0.00  0.00    +0.000 A 
ATOM     10  C   UNL     1       1.012  10.146  18.490  0.00  0.00    +0.000 A 
ATOM     11  C   UNL     1       0.365  11.035  19.350  0.00  0.00    +0.000 A 
BRANCH   6  12
ATOM     12  S   UNL     1      -0.559  11.910  21.747  0.00  0.00    +0.000 S 
ATOM     13  O   UNL     1      -1.926  12.111  21.331  0.00  0.00    +0.000 OA
ATOM     14  O   UNL     1       0.355  13.008  21.961  0.00  0.00    +0.000 OA
BRANCH  12  15
ATOM     15  N   UNL     1      -0.606  11.062  23.199  0.00  0.00    +0.000 NA
ATOM     16  H   UNL     1       0.337  10.985  23.580  0.00  0.00    +0.000 HD
ATOM     17  H   UNL     1      -1.073  10.163  23.087  0.00  0.00    +0.000 HD
ENDBRANCH  12  15
ENDBRANCH   6  12
ENDBRANCH   5   9
ENDBRANCH   1   5
BRANCH   2  18
ATOM     18  C   UNL     1       2.809   4.365  19.278  0.00  0.00    +0.000 C 
BRANCH  18  19
ATOM     19  N   UNL     1       4.024   4.048  18.568  0.00  0.00    +0.000 N 
ATOM     20  C   UNL     1       4.169   3.108  17.602  0.00  0.00    +0.000 C 
ATOM     21  O   UNL     1       3.419   2.194  17.339  0.00  0.00    +0.000 OA
ATOM     22  N   UNL     1       5.376   3.346  16.966  0.00  0.00    +0.000 N 
ATOM     23  C   UNL     1       6.020   4.564  17.443  0.00  0.00    +0.000 C 
ATOM     24  C   UNL     1       5.648   5.748  16.520  0.00  0.00    +0.000 C 
ATOM     25  C   UNL     1       5.954   7.137  17.089  0.00  0.00    +0.000 C 
ATOM     26  C   UNL     1       7.419   7.403  17.436  0.00  0.00    +0.000 C 
ATOM     27  C   UNL     1       7.915   6.696  18.694  0.00  0.00    +0.000 C 
ATOM     28  C   UNL     1       8.288   5.222  18.542  0.00  0.00    +0.000 C 
ATOM     29  C   UNL     1       7.531   4.384  17.521  0.00  0.00    +0.000 C 
ATOM     30  C   UNL     1       5.207   4.699  18.754  0.00  0.00    +0.000 C 
ATOM     31  O   UNL     1       5.454   5.397  19.722  0.00  0.00    +0.000 OA
ATOM     32  H   UNL     1       5.608   2.830  16.127  0.00  0.00    +0.000 HD
ENDBRANCH  18  19
ENDBRANCH   2  18
TORSDOF 6
ENDMDL
MODEL 2
REMARK VINA RESULT:      -8.1      4.862      6.852
REMARK  Name = 
REMARK  6 active torsions:
REMARK  status: ('A' for Active; 'I' for Inactive)
REMARK    1  A    between atoms: N_1  and  S_2
REMARK    2  A    between atoms: S_2  and  C_5
REMARK    3  A    between atoms: C_8  and  C_9
REMARK    4  A    between atoms: C_9  and  N_10
REMARK    5  A    between atoms: C_11  and  C_13
REMARK    6  A    between atoms: C_13  and  N_14
REMARK                            x       y       z     vdW  Elec       q    Type
REMARK                         _______ _______ _______ _____ _____    ______ ____
ROOT
ATOM      1  N   UNL     1       7.113   7.695  17.345  0.00  0.00    +0.000 N 
ATOM      2  C   UNL     1       6.278   6.635  17.672  0.00  0.00    +0.000 C 
ATOM      3  O   UNL     1       6.416   5.979  18.687  0.00  0.00    +0.000 OA
ATOM      4  H   UNL     1       6.800   8.371  16.653  0.00  0.00    +0.000 HD
ENDROOT
BRANCH   1   5
ATOM      5  C   UNL     1       8.232   8.024  18.202  0.00  0.00    +0.000 C 
BRANCH   5   9
ATOM      6  C   UNL     1       9.117  12.244  18.484  0.00  0.00    +0.000 A 
ATOM      7  C   UNL     1       9.744  11.345  19.343  0.00  0.00    +0.000 A 
ATOM      8  C   UNL     1       9.437   9.983  19.246  0.00  0.00    +0.000 A 
ATOM      9  C   UNL     1       8.508   9.510  18.301  0.00  0.00    +0.000 A 
ATOM     10  C   UNL     1       7.877  10.439  17.456  0.00  0.00    +0.000 A 
ATOM     11  C   UNL     1       8.174  11.799  17.554  0.00  0.00    +0.000 A 
BRANCH   6  12
ATOM     12  S   UNL     1       9.491  13.969  18.516  0.00  0.00    +0.000 S 
ATOM     13  O   UNL     1      10.722  14.214  17.804  0.00  0.00    +0.000 OA
ATOM     14  O   UNL     1       9.251  14.476  19.848  0.00  0.00    +0.000 OA
BRANCH  12  15
ATOM     15  N   UNL     1       8.242  14.571  17.564  0.00  0.00    +0.000 NA
ATOM     16  H   UNL     1       8.466  15.521  17.267  0.00  0.00    +0.000 HD
ATOM     17  H   UNL     1       7.345  14.496  18.040  0.00  0.00    +0.000 HD
ENDBRANCH  12  15
ENDBRANCH   6  12
ENDBRANCH   5   9
ENDBRANCH   1   5
BRANCH   2  18
ATOM     18  C   UNL     1       5.099   6.446  16.696  0.00  0.00    +0.000 C 
BRANCH  18  19
ATOM     19  N   UNL     1       4.643   5.087  16.860  0.00  0.00    +0.000 N 
ATOM     20  C   UNL     1       5.283   3.967  16.441  0.00  0.00    +0.000 C 
ATOM     21  O   UNL     1       6.187   3.888  15.638  0.00  0.00    +0.000 OA
ATOM     22  N   UNL     1       4.690   2.887  17.071  0.00  0.00    +0.000 N 
ATOM     23  C   UNL     1       3.684   3.299  18.044  0.00  0.00    +0.000 C 
ATOM     24  C   UNL     1       4.321   3.381  19.451  0.00  0.00    +0.000 C 
ATOM     25  C   UNL     1       3.492   4.134  20.496  0.00  0.00    +0.000 C 
ATOM     26  C   UNL     1       2.098   3.567  20.769  0.00  0.00    +0.000 C 
ATOM     27  C   UNL     1       1.078   3.825  19.665  0.00  0.00    +0.000 C 
ATOM     28  C   UNL     1       1.143   2.900  18.451  0.00  0.00    +0.000 C 
ATOM     29  C   UNL     1       2.498   2.343  18.035  0.00  0.00    +0.000 C 
ATOM     30  C   UNL     1       3.497   4.741  17.512  0.00  0.00    +0.000 C 
ATOM     31  O   UNL     1       2.595   5.521  17.761  0.00  0.00    +0.000 OA
ATOM     32  H   UNL     1       5.110   1.969  16.990  0.00  0.00    +0.000 HD
ENDBRANCH  18  19
ENDBRANCH   2  18
TORSDOF 6
ENDMDL
MODEL 3
REMARK VINA RESULT:      -8.0      1.913      3.707
REMARK  Name = 
REMARK  6 active torsions:
REMARK  status: ('A' for Active; 'I' for Inactive)
REMARK    1  A    between atoms: N_1  and  S_2
REMARK    2  A    between atoms: S_2  and  C_5
REMARK    3  A    between atoms: C_8  and  C_9
REMARK    4  A    between atoms: C_9  and  N_10
REMARK    5  A    between atoms: C_11  and  C_13
REMARK    6  A    between atoms: C_13  and  N_14
REMARK                            x       y       z     vdW  Elec       q    Type
REMARK                         _______ _______ _______ _____ _____    ______ ____
ROOT
ATOM      1  N   UNL     1       4.339   7.156  17.488  0.00  0.00    +0.000 N 
ATOM      2  C   UNL     1       5.157   6.654  16.486  0.00  0.00    +0.000 C 
ATOM      3  O   UNL     1       4.913   6.802  15.303  0.00  0.00    +0.000 OA
ATOM      4  H   UNL     1       4.715   7.251  18.428  0.00  0.00    +0.000 HD
ENDROOT
BRANCH   1   5
ATOM      5  C   UNL     1       3.113   7.845  17.143  0.00  0.00    +0.000 C 
BRANCH   5   9
ATOM      6  C   UNL     1       0.906   9.139  20.625  0.00  0.00    +0.000 A 
ATOM      7  C   UNL     1       1.634   7.952  20.667  0.00  0.00    +0.000 A 
ATOM      8  C   UNL     1       2.334   7.542  19.527  0.00  0.00    +0.000 A 
ATOM      9  C   UNL     1       2.312   8.303  18.343  0.00  0.00    +0.000 A 
ATOM     10  C   UNL     1       1.556   9.488  18.321  0.00  0.00    +0.000 A 
ATOM     11  C   UNL     1       0.850   9.898  19.453  0.00  0.00    +0.000 A 
BRANCH   6  12
ATOM     12  S   UNL     1       0.039   9.743  22.039  0.00  0.00    +0.000 S 
ATOM     13  O   UNL     1      -0.872  10.789  21.642  0.00  0.00    +0.000 OA
ATOM     14  O   UNL     1       0.974   9.902  23.130  0.00  0.00    +0.000 OA
BRANCH  12  15
ATOM     15  N   UNL     1      -0.893   8.397  22.425  0.00  0.00    +0.000 NA
ATOM     16  H   UNL     1      -0.298   7.673  22.828  0.00  0.00    +0.000 HD
ATOM     17  H   UNL     1      -1.433   8.079  21.622  0.00  0.00    +0.000 HD
ENDBRANCH  12  15
ENDBRANCH   6  12
ENDBRANCH   5   9
ENDBRANCH   1   5
BRANCH   2  18
ATOM     18  C   UNL     1       6.453   6.001  17.007  0.00  0.00    +0.000 C 
BRANCH  18  19
ATOM     19  N   UNL     1       6.057   5.044  18.012  0.00  0.00    +0.000 N 
ATOM     20  C   UNL     1       6.459   5.024  19.306  0.00  0.00    +0.000 C 
ATOM     21  O   UNL     1       7.400   5.607  19.799  0.00  0.00    +0.000 OA
ATOM     22  N   UNL     1       5.614   4.169  19.992  0.00  0.00    +0.000 N 
ATOM     23  C   UNL     1       4.525   3.678  19.154  0.00  0.00    +0.000 C 
ATOM     24  C   UNL     1       3.277   4.573  19.343  0.00  0.00    +0.000 C 
ATOM     25  C   UNL     1       2.188   4.401  18.279  0.00  0.00    +0.000 C 
ATOM     26  C   UNL     1       1.603   2.994  18.151  0.00  0.00    +0.000 C 
ATOM     27  C   UNL     1       2.522   1.979  17.481  0.00  0.00    +0.000 C 
ATOM     28  C   UNL     1       3.617   1.372  18.358  0.00  0.00    +0.000 C 
ATOM     29  C   UNL     1       4.209   2.223  19.473  0.00  0.00    +0.000 C 
ATOM     30  C   UNL     1       5.171   4.031  17.792  0.00  0.00    +0.000 C 
ATOM     31  O   UNL     1       4.850   3.638  16.685  0.00  0.00    +0.000 OA
ATOM     32  H   UNL     1       5.667   4.117  21.002  0.00  0.00    +0.000 HD
ENDBRANCH  18  19
ENDBRANCH   2  18
TORSDOF 6
ENDMDL
MODEL 4
REMARK VINA RESULT:      -8.0      2.878      4.752
REMARK  Name = 
REMARK  6 active torsions:
REMARK  status: ('A' for Active; 'I' for Inactive)
REMARK    1  A    between atoms: N_1  and  S_2
REMARK    2  A    between atoms: S_2  and  C_5
REMARK    3  A    between atoms: C_8  and  C_9
REMARK    4  A    between atoms: C_9  and  N_10
REMARK    5  A    between atoms: C_11  and  C_13
REMARK    6  A    between atoms: C_13  and  N_14
REMARK                            x       y       z     vdW  Elec       q    Type
REMARK                         _______ _______ _______ _____ _____    ______ ____
ROOT
ATOM      1  N   UNL     1       1.663   9.365  18.102  0.00  0.00    +0.000 N 
ATOM      2  C   UNL     1       2.295   8.174  18.433  0.00  0.00    +0.000 C 
ATOM      3  O   UNL     1       2.303   7.727  19.565  0.00  0.00    +0.000 OA
ATOM      4  H   UNL     1       1.446   9.551  17.126  0.00  0.00    +0.000 HD
ENDROOT
BRANCH   1   5
ATOM      5  C   UNL     1       1.024  10.155  19.133  0.00  0.00    +0.000 C 
BRANCH   5   9
ATOM      6  C   UNL     1      -3.078  11.157  18.216  0.00  0.00    +0.000 A 
ATOM      7  C   UNL     1      -2.437  10.143  17.509  0.00  0.00    +0.000 A 
ATOM      8  C   UNL     1      -1.105   9.839  17.811  0.00  0.00    +0.000 A 
ATOM      9  C   UNL     1      -0.405  10.539  18.810  0.00  0.00    +0.000 A 
ATOM     10  C   UNL     1      -1.068  11.570  19.499  0.00  0.00    +0.000 A 
ATOM     11  C   UNL     1      -2.394  11.882  19.195  0.00  0.00    +0.000 A 
BRANCH   6  12
ATOM     12  S   UNL     1      -4.770  11.562  17.923  0.00  0.00    +0.000 S 
ATOM     13  O   UNL     1      -5.618  10.511  18.431  0.00  0.00    +0.000 OA
ATOM     14  O   UNL     1      -4.903  12.084  16.582  0.00  0.00    +0.000 OA
BRANCH  12  15
ATOM     15  N   UNL     1      -4.952  12.882  18.950  0.00  0.00    +0.000 NA
ATOM     16  H   UNL     1      -4.215  13.562  18.766  0.00  0.00    +0.000 HD
ATOM     17  H   UNL     1      -4.999  12.588  19.924  0.00  0.00    +0.000 HD
ENDBRANCH  12  15
ENDBRANCH   6  12
ENDBRANCH   5   9
ENDBRANCH   1   5
BRANCH   2  18
ATOM     18  C   UNL     1       2.875   7.418  17.221  0.00  0.00    +0.000 C 
BRANCH  18  19
ATOM     19  N   UNL     1       3.429   6.187  17.730  0.00  0.00    +0.000 N 
ATOM     20  C   UNL     1       4.717   5.974  18.095  0.00  0.00    +0.000 C 
ATOM     21  O   UNL     1       5.685   6.650  17.824  0.00  0.00    +0.000 OA
ATOM     22  N   UNL     1       4.756   4.795  18.820  0.00  0.00    +0.000 N 
ATOM     23  C   UNL     1       3.425   4.247  19.056  0.00  0.00    +0.000 C 
ATOM     24  C   UNL     1       2.901   4.721  20.432  0.00  0.00    +0.000 C 
ATOM     25  C   UNL     1       1.399   4.524  20.657  0.00  0.00    +0.000 C 
ATOM     26  C   UNL     1       0.899   3.082  20.563  0.00  0.00    +0.000 C 
ATOM     27  C   UNL     1       0.835   2.521  19.146  0.00  0.00    +0.000 C 
ATOM     28  C   UNL     1       2.154   2.032  18.550  0.00  0.00    +0.000 C 
ATOM     29  C   UNL     1       3.443   2.727  18.970  0.00  0.00    +0.000 C 
ATOM     30  C   UNL     1       2.698   5.058  17.956  0.00  0.00    +0.000 C 
ATOM     31  O   UNL     1       1.591   4.861  17.486  0.00  0.00    +0.000 OA
ATOM     32  H   UNL     1       5.611   4.529  19.294  0.00  0.00    +0.000 HD
ENDBRANCH  18  19
ENDBRANCH   2  18
TORSDOF 6
ENDMDL
MODEL 5
REMARK VINA RESULT:      -7.9      1.958      2.475
REMARK  Name = 
REMARK  6 active torsions:
REMARK  status: ('A' for Active; 'I' for Inactive)
REMARK    1  A    between atoms: N_1  and  S_2
REMARK    2  A    between atoms: S_2  and  C_5
REMARK    3  A    between atoms: C_8  and  C_9
REMARK    4  A    between atoms: C_9  and  N_10
REMARK    5  A    between atoms: C_11  and  C_13
REMARK    6  A    between atoms: C_13  and  N_14
REMARK                            x       y       z     vdW  Elec       q    Type
REMARK                         _______ _______ _______ _____ _____    ______ ____
ROOT
ATOM      1  N   UNL     1       2.213   6.901  19.868  0.00  0.00    +0.000 N 
ATOM      2  C   UNL     1       1.841   5.567  19.947  0.00  0.00    +0.000 C 
ATOM      3  O   UNL     1       1.167   5.125  20.859  0.00  0.00    +0.000 OA
ATOM      4  H   UNL     1       2.525   7.272  18.974  0.00  0.00    +0.000 HD
ENDROOT
BRANCH   1   5
ATOM      5  C   UNL     1       1.843   7.818  20.925  0.00  0.00    +0.000 C 
BRANCH   5   9
ATOM      6  C   UNL     1      -0.690  11.029  19.530  0.00  0.00    +0.000 A 
ATOM      7  C   UNL     1       0.112  10.336  18.627  0.00  0.00    +0.000 A 
ATOM      8  C   UNL     1       0.935   9.307  19.097  0.00  0.00    +0.000 A 
ATOM      9  C   UNL     1       0.967   8.964  20.461  0.00  0.00    +0.000 A 
ATOM     10  C   UNL     1       0.161   9.688  21.356  0.00  0.00    +0.000 A 
ATOM     11  C   UNL     1      -0.656  10.721  20.892  0.00  0.00    +0.000 A 
BRANCH   6  12
ATOM     12  S   UNL     1      -1.788  12.305  19.002  0.00  0.00    +0.000 S 
ATOM     13  O   UNL     1      -1.831  13.353  19.993  0.00  0.00    +0.000 OA
ATOM     14  O   UNL     1      -2.985  11.701  18.460  0.00  0.00    +0.000 OA
BRANCH  12  15
ATOM     15  N   UNL     1      -0.942  12.911  17.680  0.00  0.00    +0.000 NA
ATOM     16  H   UNL     1      -0.992  13.929  17.680  0.00  0.00    +0.000 HD
ATOM     17  H   UNL     1      -1.263  12.488  16.811  0.00  0.00    +0.000 HD
ENDBRANCH  12  15
ENDBRANCH   6  12
ENDBRANCH   5   9
ENDBRANCH   1   5
BRANCH   2  18
ATOM     18  C   UNL     1       2.255   4.730  18.719  0.00  0.00    +0.000 C 
BRANCH  18  19
ATOM     19  N   UNL     1       3.665   4.462  18.860  0.00  0.00    +0.000 N 
ATOM     20  C   UNL     1       4.223   3.379  19.456  0.00  0.00    +0.000 C 
ATOM     21  O   UNL     1       3.690   2.587  20.202  0.00  0.00    +0.000 OA
ATOM     22  N   UNL     1       5.559   3.346  19.094  0.00  0.00    +0.000 N 
ATOM     23  C   UNL     1       5.893   4.380  18.121  0.00  0.00    +0.000 C 
ATOM     24  C   UNL     1       5.804   3.800  16.690  0.00  0.00    +0.000 C 
ATOM     25  C   UNL     1       5.778   4.842  15.567  0.00  0.00    +0.000 C 
ATOM     26  C   UNL     1       6.990   5.773  15.500  0.00  0.00    +0.000 C 
ATOM     27  C   UNL     1       7.036   6.839  16.589  0.00  0.00    +0.000 C 
ATOM     28  C   UNL     1       7.543   6.388  17.959  0.00  0.00    +0.000 C 
ATOM     29  C   UNL     1       7.278   4.953  18.394  0.00  0.00    +0.000 C 
ATOM     30  C   UNL     1       4.647   5.266  18.362  0.00  0.00    +0.000 C 
ATOM     31  O   UNL     1       4.469   6.421  18.017  0.00  0.00    +0.000 OA
ATOM     32  H   UNL     1       6.121   2.538  19.331  0.00  0.00    +0.000 HD
ENDBRANCH  18  19
ENDBRANCH   2  18
TORSDOF 6
ENDMDL
MODEL 6
REMARK VINA RESULT:      -7.9      1.944      2.310
REMARK  Name = 
REMARK  6 active torsions:
REMARK  status: ('A' for Active; 'I' for Inactive)
REMARK    1  A    between atoms: N_1  and  S_2
REMARK    2  A    between atoms: S_2  and  C_5
REMARK    3  A    between atoms: C_8  and  C_9
REMARK    4  A    between atoms: C_9  and  N_10
REMARK    5  A    between atoms: C_11  and  C_13
REMARK    6  A    between atoms: C_13  and  N_14
REMARK                            x       y       z     vdW  Elec       q    Type
REMARK                         _______ _______ _______ _____ _____    ______ ____
ROOT
ATOM      1  N   UNL     1       2.077   6.721  19.789  0.00  0.00    +0.000 N 
ATOM      2  C   UNL     1       1.750   5.374  19.847  0.00  0.00    +0.000 C 
ATOM      3  O   UNL     1       1.061   4.902  20.733  0.00  0.00    +0.000 OA
ATOM      4  H   UNL     1       2.407   7.108  18.908  0.00  0.00    +0.000 HD
ENDROOT
BRANCH   1   5
ATOM      5  C   UNL     1       1.639   7.617  20.838  0.00  0.00    +0.000 C 
BRANCH   5   9
ATOM      6  C   UNL     1      -0.141  11.306  19.463  0.00  0.00    +0.000 A 
ATOM      7  C   UNL     1      -0.538  10.756  20.679  0.00  0.00    +0.000 A 
ATOM      8  C   UNL     1       0.040   9.554  21.104  0.00  0.00    +0.000 A 
ATOM      9  C   UNL     1       1.010   8.896  20.326  0.00  0.00    +0.000 A 
ATOM     10  C   UNL     1       1.382   9.463  19.095  0.00  0.00    +0.000 A 
ATOM     11  C   UNL     1       0.802  10.657  18.663  0.00  0.00    +0.000 A 
BRANCH   6  12
ATOM     12  S   UNL     1      -0.791  12.843  18.887  0.00  0.00    +0.000 S 
ATOM     13  O   UNL     1       0.291  13.713  18.495  0.00  0.00    +0.000 OA
ATOM     14  O   UNL     1      -1.846  13.270  19.778  0.00  0.00    +0.000 OA
BRANCH  12  15
ATOM     15  N   UNL     1      -1.557  12.342  17.476  0.00  0.00    +0.000 NA
ATOM     16  H   UNL     1      -0.904  11.805  16.905  0.00  0.00    +0.000 HD
ATOM     17  H   UNL     1      -1.975  13.130  16.983  0.00  0.00    +0.000 HD
ENDBRANCH  12  15
ENDBRANCH   6  12
ENDBRANCH   5   9
ENDBRANCH   1   5
BRANCH   2  18
ATOM     18  C   UNL     1       2.235   4.560  18.630  0.00  0.00    +0.000 C 
BRANCH  18  19
ATOM     19  N   UNL     1       3.648   4.338  18.820  0.00  0.00    +0.000 N 
ATOM     20  C   UNL     1       4.222   3.250  19.390  0.00  0.00    +0.000 C 
ATOM     21  O   UNL     1       3.689   2.405  20.075  0.00  0.00    +0.000 OA
ATOM     22  N   UNL     1       5.572   3.283  19.084  0.00  0.00    +0.000 N 
ATOM     23  C   UNL     1       5.906   4.373  18.175  0.00  0.00    +0.000 C 
ATOM     24  C   UNL     1       5.899   3.858  16.716  0.00  0.00    +0.000 C 
ATOM     25  C   UNL     1       5.879   4.949  15.642  0.00  0.00    +0.000 C 
ATOM     26  C   UNL     1       7.055   5.927  15.669  0.00  0.00    +0.000 C 
ATOM     27  C   UNL     1       7.015   6.941  16.806  0.00  0.00    +0.000 C 
ATOM     28  C   UNL     1       7.482   6.446  18.174  0.00  0.00    +0.000 C 
ATOM     29  C   UNL     1       7.254   4.984  18.533  0.00  0.00    +0.000 C 
ATOM     30  C   UNL     1       4.617   5.200  18.401  0.00  0.00    +0.000 C 
ATOM     31  O   UNL     1       4.409   6.363  18.101  0.00  0.00    +0.000 OA
ATOM     32  H   UNL     1       6.154   2.486  19.309  0.00  0.00    +0.000 HD
ENDBRANCH  18  19
ENDBRANCH   2  18
TORSDOF 6
ENDMDL
MODEL 7
REMARK VINA RESULT:      -7.9      1.780      3.756
REMARK  Name = 
REMARK  6 active torsions:
REMARK  status: ('A' for Active; 'I' for Inactive)
REMARK    1  A    between atoms: N_1  and  S_2
REMARK    2  A    between atoms: S_2  and  C_5
REMARK    3  A    between atoms: C_8  and  C_9
REMARK    4  A    between atoms: C_9  and  N_10
REMARK    5  A    between atoms: C_11  and  C_13
REMARK    6  A    between atoms: C_13  and  N_14
REMARK                            x       y       z     vdW  Elec       q    Type
REMARK                         _______ _______ _______ _____ _____    ______ ____
ROOT
ATOM      1  N   UNL     1       4.128   7.210  17.598  0.00  0.00    +0.000 N 
ATOM      2  C   UNL     1       5.019   6.766  16.631  0.00  0.00    +0.000 C 
ATOM      3  O   UNL     1       4.811   6.891  15.438  0.00  0.00    +0.000 OA
ATOM      4  H   UNL     1       4.460   7.336  18.551  0.00  0.00    +0.000 HD
ENDROOT
BRANCH   1   5
ATOM      5  C   UNL     1       2.869   7.804  17.202  0.00  0.00    +0.000 C 
BRANCH   5   9
ATOM      6  C   UNL     1       0.880  10.097  20.277  0.00  0.00    +0.000 A 
ATOM      7  C   UNL     1       1.159  10.685  19.045  0.00  0.00    +0.000 A 
ATOM      8  C   UNL     1       1.814   9.932  18.064  0.00  0.00    +0.000 A 
ATOM      9  C   UNL     1       2.196   8.598  18.302  0.00  0.00    +0.000 A 
ATOM     10  C   UNL     1       1.917   8.033  19.559  0.00  0.00    +0.000 A 
ATOM     11  C   UNL     1       1.271   8.783  20.543  0.00  0.00    +0.000 A 
BRANCH   6  12
ATOM     12  S   UNL     1       0.013  10.971  21.542  0.00  0.00    +0.000 S 
ATOM     13  O   UNL     1       0.307  10.384  22.827  0.00  0.00    +0.000 OA
ATOM     14  O   UNL     1      -1.338  11.225  21.097  0.00  0.00    +0.000 OA
BRANCH  12  15
ATOM     15  N   UNL     1       0.802  12.455  21.486  0.00  0.00    +0.000 NA
ATOM     16  H   UNL     1       1.496  12.502  22.232  0.00  0.00    +0.000 HD
ATOM     17  H   UNL     1       0.138  13.227  21.501  0.00  0.00    +0.000 HD
ENDBRANCH  12  15
ENDBRANCH   6  12
ENDBRANCH   5   9
ENDBRANCH   1   5
BRANCH   2  18
ATOM     18  C   UNL     1       6.339   6.213  17.206  0.00  0.00    +0.000 C 
BRANCH  18  19
ATOM     19  N   UNL     1       5.979   5.174  18.140  0.00  0.00    +0.000 N 
ATOM     20  C   UNL     1       6.437   5.039  19.409  0.00  0.00    +0.000 C 
ATOM     21  O   UNL     1       7.405   5.571  19.907  0.00  0.00    +0.000 OA
ATOM     22  N   UNL     1       5.615   4.132  20.055  0.00  0.00    +0.000 N 
ATOM     23  C   UNL     1       4.485   3.723  19.227  0.00  0.00    +0.000 C 
ATOM     24  C   UNL     1       3.256   4.605  19.549  0.00  0.00    +0.000 C 
ATOM     25  C   UNL     1       2.119   4.534  18.524  0.00  0.00    +0.000 C 
ATOM     26  C   UNL     1       1.515   3.147  18.301  0.00  0.00    +0.000 C 
ATOM     27  C   UNL     1       2.393   2.189  17.504  0.00  0.00    +0.000 C 
ATOM     28  C   UNL     1       3.519   1.501  18.274  0.00  0.00    +0.000 C 
ATOM     29  C   UNL     1       4.169   2.248  19.431  0.00  0.00    +0.000 C 
ATOM     30  C   UNL     1       5.074   4.190  17.873  0.00  0.00    +0.000 C 
ATOM     31  O   UNL     1       4.700   3.897  16.751  0.00  0.00    +0.000 OA
ATOM     32  H   UNL     1       5.712   3.992  21.053  0.00  0.00    +0.000 HD
ENDBRANCH  18  19
ENDBRANCH   2  18
TORSDOF 6
ENDMDL
MODEL 8
REMARK VINA RESULT:      -7.9      1.862      3.791
REMARK  Name = 
REMARK  6 active torsions:
REMARK  status: ('A' for Active; 'I' for Inactive)
REMARK    1  A    between atoms: N_1  and  S_2
REMARK    2  A    between atoms: S_2  and  C_5
REMARK    3  A    between atoms: C_8  and  C_9
REMARK    4  A    between atoms: C_9  and  N_10
REMARK    5  A    between atoms: C_11  and  C_13
REMARK    6  A    between atoms: C_13  and  N_14
REMARK                            x       y       z     vdW  Elec       q    Type
REMARK                         _______ _______ _______ _____ _____    ______ ____
ROOT
ATOM      1  N   UNL     1       3.029   7.756  18.246  0.00  0.00    +0.000 N 
ATOM      2  C   UNL     1       3.942   7.145  17.398  0.00  0.00    +0.000 C 
ATOM      3  O   UNL     1       4.045   7.439  16.221  0.00  0.00    +0.000 OA
ATOM      4  H   UNL     1       3.167   7.681  19.251  0.00  0.00    +0.000 HD
ENDROOT
BRANCH   1   5
ATOM      5  C   UNL     1       2.115   8.752  17.728  0.00  0.00    +0.000 C 
BRANCH   5   9
ATOM      6  C   UNL     1      -0.097  10.766  20.845  0.00  0.00    +0.000 A 
ATOM      7  C   UNL     1       0.561   9.570  21.124  0.00  0.00    +0.000 A 
ATOM      8  C   UNL     1       1.263   8.925  20.100  0.00  0.00    +0.000 A 
ATOM      9  C   UNL     1       1.313   9.460  18.799  0.00  0.00    +0.000 A 
ATOM     10  C   UNL     1       0.627  10.660  18.539  0.00  0.00    +0.000 A 
ATOM     11  C   UNL     1      -0.082  11.302  19.555  0.00  0.00    +0.000 A 
BRANCH   6  12
ATOM     12  S   UNL     1      -0.961  11.659  22.098  0.00  0.00    +0.000 S 
ATOM     13  O   UNL     1      -0.860  10.957  23.355  0.00  0.00    +0.000 OA
ATOM     14  O   UNL     1      -2.225  12.114  21.564  0.00  0.00    +0.000 OA
BRANCH  12  15
ATOM     15  N   UNL     1       0.006  13.030  22.220  0.00  0.00    +0.000 NA
ATOM     16  H   UNL     1       0.855  12.899  21.671  0.00  0.00    +0.000 HD
ATOM     17  H   UNL     1       0.184  13.271  23.194  0.00  0.00    +0.000 HD
ENDBRANCH  12  15
ENDBRANCH   6  12
ENDBRANCH   5   9
ENDBRANCH   1   5
BRANCH   2  18
ATOM     18  C   UNL     1       4.885   6.152  18.107  0.00  0.00    +0.000 C 
BRANCH  18  19
ATOM     19  N   UNL     1       4.338   4.835  17.888  0.00  0.00    +0.000 N 
ATOM     20  C   UNL     1       4.899   3.842  17.154  0.00  0.00    +0.000 C 
ATOM     21  O   UNL     1       5.794   3.936  16.343  0.00  0.00    +0.000 OA
ATOM     22  N   UNL     1       4.235   2.668  17.464  0.00  0.00    +0.000 N 
ATOM     23  C   UNL     1       3.262   2.850  18.535  0.00  0.00    +0.000 C 
ATOM     24  C   UNL     1       3.906   2.487  19.893  0.00  0.00    +0.000 C 
ATOM     25  C   UNL     1       3.132   2.963  21.127  0.00  0.00    +0.000 C 
ATOM     26  C   UNL     1       1.703   2.434  21.257  0.00  0.00    +0.000 C 
ATOM     27  C   UNL     1       0.700   3.061  20.294  0.00  0.00    +0.000 C 
ATOM     28  C   UNL     1       0.700   2.518  18.865  0.00  0.00    +0.000 C 
ATOM     29  C   UNL     1       2.013   2.016  18.280  0.00  0.00    +0.000 C 
ATOM     30  C   UNL     1       3.172   4.393  18.439  0.00  0.00    +0.000 C 
ATOM     31  O   UNL     1       2.326   5.127  18.918  0.00  0.00    +0.000 OA
ATOM     32  H   UNL     1       4.591   1.786  17.117  0.00  0.00    +0.000 HD
ENDBRANCH  18  19
ENDBRANCH   2  18
TORSDOF 6
ENDMDL
MODEL 9
REMARK VINA RESULT:      -7.8      4.441      7.038
REMARK  Name = 
REMARK  6 active torsions:
REMARK  status: ('A' for Active; 'I' for Inactive)
REMARK    1  A    between atoms: N_1  and  S_2
REMARK    2  A    between atoms: S_2  and  C_5
REMARK    3  A    between atoms: C_8  and  C_9
REMARK    4  A    between atoms: C_9  and  N_10
REMARK    5  A    between atoms: C_11  and  C_13
REMARK    6  A    between atoms: C_13  and  N_14
REMARK                            x       y       z     vdW  Elec       q    Type
REMARK                         _______ _______ _______ _____ _____    ______ ____
ROOT
ATOM      1  N   UNL     1       7.302   7.051  17.886  0.00  0.00    +0.000 N 
ATOM      2  C   UNL     1       6.967   5.708  17.983  0.00  0.00    +0.000 C 
ATOM      3  O   UNL     1       7.541   4.940  18.732  0.00  0.00    +0.000 OA
ATOM      4  H   UNL     1       6.633   7.695  17.470  0.00  0.00    +0.000 HD
ENDROOT
BRANCH   1   5
ATOM      5  C   UNL     1       8.408   7.577  18.658  0.00  0.00    +0.000 C 
BRANCH   5   9
ATOM      6  C   UNL     1       8.931  11.859  18.397  0.00  0.00    +0.000 A 
ATOM      7  C   UNL     1       9.541  11.147  19.427  0.00  0.00    +0.000 A 
ATOM      8  C   UNL     1       9.352   9.763  19.503  0.00  0.00    +0.000 A 
ATOM      9  C   UNL     1       8.557   9.082  18.563  0.00  0.00    +0.000 A 
ATOM     10  C   UNL     1       7.939   9.825  17.542  0.00  0.00    +0.000 A 
ATOM     11  C   UNL     1       8.118  11.207  17.467  0.00  0.00    +0.000 A 
BRANCH   6  12
ATOM     12  S   UNL     1       9.164  13.598  18.210  0.00  0.00    +0.000 S 
ATOM     13  O   UNL     1       9.885  14.118  19.346  0.00  0.00    +0.000 OA
ATOM     14  O   UNL     1       7.933  14.189  17.736  0.00  0.00    +0.000 OA
BRANCH  12  15
ATOM     15  N   UNL     1      10.220  13.627  16.901  0.00  0.00    +0.000 NA
ATOM     16  H   UNL     1      10.873  14.404  17.006  0.00  0.00    +0.000 HD
ATOM     17  H   UNL     1       9.713  13.639  16.017  0.00  0.00    +0.000 HD
ENDBRANCH  12  15
ENDBRANCH   6  12
ENDBRANCH   5   9
ENDBRANCH   1   5
BRANCH   2  18
ATOM     18  C   UNL     1       5.732   5.311  17.148  0.00  0.00    +0.000 C 
BRANCH  18  19
ATOM     19  N   UNL     1       4.574   5.665  17.933  0.00  0.00    +0.000 N 
ATOM     20  C   UNL     1       3.867   6.818  17.848  0.00  0.00    +0.000 C 
ATOM     21  O   UNL     1       4.203   7.856  17.321  0.00  0.00    +0.000 OA
ATOM     22  N   UNL     1       2.671   6.625  18.518  0.00  0.00    +0.000 N 
ATOM     23  C   UNL     1       2.511   5.250  18.977  0.00  0.00    +0.000 C 
ATOM     24  C   UNL     1       1.706   4.441  17.932  0.00  0.00    +0.000 C 
ATOM     25  C   UNL     1       1.765   2.920  18.102  0.00  0.00    +0.000 C 
ATOM     26  C   UNL     1       1.254   2.383  19.440  0.00  0.00    +0.000 C 
ATOM     27  C   UNL     1       2.186   2.626  20.622  0.00  0.00    +0.000 C 
ATOM     28  C   UNL     1       2.145   4.021  21.243  0.00  0.00    +0.000 C 
ATOM     29  C   UNL     1       1.835   5.208  20.341  0.00  0.00    +0.000 C 
ATOM     30  C   UNL     1       4.000   4.844  18.858  0.00  0.00    +0.000 C 
ATOM     31  O   UNL     1       4.554   3.871  19.338  0.00  0.00    +0.000 OA
ATOM     32  H   UNL     1       1.945   7.329  18.458  0.00  0.00    +0.000 HD
ENDBRANCH  18  19
ENDBRANCH   2  18
TORSDOF 6
ENDMDL
