MODEL 1
REMARK VINA RESULT:      -7.8      0.000      0.000
REMARK  Name = 
REMARK  6 active torsions:
REMARK  status: ('A' for Active; 'I' for Inactive)
REMARK    1  A    between atoms: C_1  and  C_2
REMARK    2  A    between atoms: C_2  and  C_3
REMARK    3  A    between atoms: C_2  and  C_4
REMARK    4  A    between atoms: N_15  and  C_16
REMARK    5  A    between atoms: C_16  and  C_17
REMARK    6  A    between atoms: C_16  and  C_18
REMARK                            x       y       z     vdW  Elec       q    Type
REMARK                         _______ _______ _______ _____ _____    ______ ____
ROOT
ATOM      1  C   UNL     1       5.487   5.818  17.167  0.00  0.00    +0.000 C 
ATOM      2  C   UNL     1       6.001   4.490  16.621  0.00  0.00    +0.000 C 
ATOM      3  O   UNL     1       4.897   3.589  16.699  0.00  0.00    +0.000 OA
ATOM      4  C   UNL     1       3.985   4.109  17.578  0.00  0.00    +0.000 C 
ATOM      5  O   UNL     1       2.991   3.491  17.927  0.00  0.00    +0.000 OA
ATOM      6  N   UNL     1       4.354   5.395  17.937  0.00  0.00    +0.000 N 
ATOM      7  C   UNL     1       3.428   6.272  18.539  0.00  0.00    +0.000 A 
ATOM      8  C   UNL     1       2.791   5.845  19.684  0.00  0.00    +0.000 A 
ATOM      9  C   UNL     1       1.916   6.730  20.250  0.00  0.00    +0.000 A 
ATOM     10  N   UNL     1       1.632   7.926  19.716  0.00  0.00    +0.000 NA
ATOM     11  C   UNL     1       2.258   8.253  18.577  0.00  0.00    +0.000 A 
ATOM     12  N   UNL     1       1.863   9.396  17.918  0.00  0.00    +0.000 N 
ATOM     13  N   UNL     1       3.204   7.490  17.997  0.00  0.00    +0.000 NA
ATOM     14  H   UNL     1       2.426   9.598  17.107  0.00  0.00    +0.000 HD
ENDROOT
BRANCH   1  16
ATOM     15  C   UNL     1       7.389   5.738  18.922  0.00  0.00    +0.000 C 
ATOM     16  C   UNL     1       6.551   6.610  17.973  0.00  0.00    +0.000 C 
ATOM     17  C   UNL     1       7.489   7.390  17.047  0.00  0.00    +0.000 C 
ENDBRANCH   1  16
BRANCH  12  18
ATOM     18  C   UNL     1       1.357  10.521  18.696  0.00  0.00    +0.000 C 
ATOM     19  C   UNL     1       2.159  11.779  18.351  0.00  0.00    +0.000 C 
BRANCH  18  20
ATOM     20  C   UNL     1      -0.140  10.733  18.446  0.00  0.00    +0.000 A 
ATOM     21  C   UNL     1      -0.828   9.849  17.611  0.00  0.00    +0.000 A 
ATOM     22  C   UNL     1      -2.204  10.011  17.425  0.00  0.00    +0.000 A 
ATOM     23  C   UNL     1      -2.850  11.061  18.062  0.00  0.00    +0.000 A 
ATOM     24 BR   UNL     1      -4.705  11.322  17.849  0.00  0.00    +0.000 Br
ATOM     25  C   UNL     1      -2.102  11.914  18.857  0.00  0.00    +0.000 A 
ATOM     26  N   UNL     1      -0.765  11.774  19.061  0.00  0.00    +0.000 NA
ENDBRANCH  18  20
ENDBRANCH  12  18
TORSDOF 3
ENDMDL
MODEL 2
REMARK VINA RESULT:      -7.7      2.804      4.202
REMARK  Name = 
REMARK  6 active torsions:
REMARK  status: ('A' for Active; 'I' for Inactive)
REMARK    1  A    between atoms: C_1  and  C_2
REMARK    2  A    between atoms: C_2  and  C_3
REMARK    3  A    between atoms: C_2  and  C_4
REMARK    4  A    between atoms: N_15  and  C_16
REMARK    5  A    between atoms: C_16  and  C_17
REMARK    6  A    between atoms: C_16  and  C_18
REMARK                            x       y       z     vdW  Elec       q    Type
REMARK                         _______ _______ _______ _____ _____    ______ ____
ROOT
ATOM      1  C   UNL     1       2.953   4.581  20.006  0.00  0.00    +0.000 C 
ATOM      2  C   UNL     1       4.087   3.612  19.687  0.00  0.00    +0.000 C 
ATOM      3  O   UNL     1       5.093   4.397  19.047  0.00  0.00    +0.000 OA
ATOM      4  C   UNL     1       4.513   5.556  18.605  0.00  0.00    +0.000 C 
ATOM      5  O   UNL     1       5.116   6.365  17.918  0.00  0.00    +0.000 OA
ATOM      6  N   UNL     1       3.218   5.650  19.087  0.00  0.00    +0.000 N 
ATOM      7  C   UNL     1       2.531   6.881  19.079  0.00  0.00    +0.000 A 
ATOM      8  C   UNL     1       2.419   7.545  17.876  0.00  0.00    +0.000 A 
ATOM      9  C   UNL     1       1.729   8.725  17.903  0.00  0.00    +0.000 A 
ATOM     10  N   UNL     1       1.227   9.258  19.026  0.00  0.00    +0.000 NA
ATOM     11  C   UNL     1       1.414   8.575  20.165  0.00  0.00    +0.000 A 
ATOM     12  N   UNL     1       1.061   9.174  21.353  0.00  0.00    +0.000 N 
ATOM     13  N   UNL     1       1.996   7.362  20.224  0.00  0.00    +0.000 NA
ATOM     14  H   UNL     1       1.177   8.569  22.151  0.00  0.00    +0.000 HD
ENDROOT
BRANCH   1  16
ATOM     15  C   UNL     1       1.292   3.279  18.504  0.00  0.00    +0.000 C 
ATOM     16  C   UNL     1       1.542   3.950  19.864  0.00  0.00    +0.000 C 
ATOM     17  C   UNL     1       1.266   2.939  20.982  0.00  0.00    +0.000 C 
ENDBRANCH   1  16
BRANCH  12  18
ATOM     18  C   UNL     1      -0.055  10.114  21.366  0.00  0.00    +0.000 C 
ATOM     19  C   UNL     1      -0.576  10.265  22.798  0.00  0.00    +0.000 C 
BRANCH  18  20
ATOM     20  C   UNL     1       0.361  11.469  20.782  0.00  0.00    +0.000 A 
ATOM     21  C   UNL     1      -0.449  12.078  19.820  0.00  0.00    +0.000 A 
ATOM     22  C   UNL     1      -0.097  13.337  19.326  0.00  0.00    +0.000 A 
ATOM     23  C   UNL     1       1.060  13.944  19.791  0.00  0.00    +0.000 A 
ATOM     24 BR   UNL     1       1.578  15.644  19.162  0.00  0.00    +0.000 Br
ATOM     25  C   UNL     1       1.829  13.272  20.728  0.00  0.00    +0.000 A 
ATOM     26  N   UNL     1       1.506  12.051  21.231  0.00  0.00    +0.000 NA
ENDBRANCH  18  20
ENDBRANCH  12  18
TORSDOF 3
ENDMDL
MODEL 3
REMARK VINA RESULT:      -7.4      0.879      1.214
REMARK  Name = 
REMARK  6 active torsions:
REMARK  status: ('A' for Active; 'I' for Inactive)
REMARK    1  A    between atoms: C_1  and  C_2
REMARK    2  A    between atoms: C_2  and  C_3
REMARK    3  A    between atoms: C_2  and  C_4
REMARK    4  A    between atoms: N_15  and  C_16
REMARK    5  A    between atoms: C_16  and  C_17
REMARK    6  A    between atoms: C_16  and  C_18
REMARK                            x       y       z     vdW  Elec       q    Type
REMARK                         _______ _______ _______ _____ _____    ______ ____
ROOT
ATOM      1  C   UNL     1       4.764   5.448  17.262  0.00  0.00    +0.000 C 
ATOM      2  C   UNL     1       5.057   4.028  16.789  0.00  0.00    +0.000 C 
ATOM      3  O   UNL     1       3.865   3.285  17.047  0.00  0.00    +0.000 OA
ATOM      4  C   UNL     1       3.117   3.982  17.956  0.00  0.00    +0.000 C 
ATOM      5  O   UNL     1       2.096   3.524  18.447  0.00  0.00    +0.000 OA
ATOM      6  N   UNL     1       3.672   5.233  18.167  0.00  0.00    +0.000 N 
ATOM      7  C   UNL     1       2.925   6.264  18.771  0.00  0.00    +0.000 A 
ATOM      8  C   UNL     1       2.360   6.010  20.003  0.00  0.00    +0.000 A 
ATOM      9  C   UNL     1       1.661   7.040  20.567  0.00  0.00    +0.000 A 
ATOM     10  N   UNL     1       1.469   8.219  19.959  0.00  0.00    +0.000 NA
ATOM     11  C   UNL     1       2.011   8.376  18.743  0.00  0.00    +0.000 A 
ATOM     12  N   UNL     1       1.692   9.507  18.026  0.00  0.00    +0.000 N 
ATOM     13  N   UNL     1       2.795   7.457  18.148  0.00  0.00    +0.000 NA
ATOM     14  H   UNL     1       2.190   9.574  17.152  0.00  0.00    +0.000 HD
ENDROOT
BRANCH   1  16
ATOM     15  C   UNL     1       6.522   5.466  19.163  0.00  0.00    +0.000 C 
ATOM     16  C   UNL     1       5.992   6.155  17.896  0.00  0.00    +0.000 C 
ATOM     17  C   UNL     1       7.136   6.301  16.887  0.00  0.00    +0.000 C 
ENDBRANCH   1  16
BRANCH  12  18
ATOM     18  C   UNL     1       1.407  10.743  18.745  0.00  0.00    +0.000 C 
ATOM     19  C   UNL     1       2.183  11.896  18.102  0.00  0.00    +0.000 C 
BRANCH  18  20
ATOM     20  C   UNL     1      -0.098  11.032  18.766  0.00  0.00    +0.000 A 
ATOM     21  C   UNL     1      -0.587  12.066  19.569  0.00  0.00    +0.000 A 
ATOM     22  C   UNL     1      -1.953  12.363  19.548  0.00  0.00    +0.000 A 
ATOM     23  C   UNL     1      -2.793  11.610  18.742  0.00  0.00    +0.000 A 
ATOM     24 BR   UNL     1      -4.642  11.972  18.672  0.00  0.00    +0.000 Br
ATOM     25  C   UNL     1      -2.244  10.583  17.989  0.00  0.00    +0.000 A 
ATOM     26  N   UNL     1      -0.920  10.279  17.985  0.00  0.00    +0.000 NA
ENDBRANCH  18  20
ENDBRANCH  12  18
TORSDOF 3
ENDMDL
MODEL 4
REMARK VINA RESULT:      -7.4      3.202      4.569
REMARK  Name = 
REMARK  6 active torsions:
REMARK  status: ('A' for Active; 'I' for Inactive)
REMARK    1  A    between atoms: C_1  and  C_2
REMARK    2  A    between atoms: C_2  and  C_3
REMARK    3  A    between atoms: C_2  and  C_4
REMARK    4  A    between atoms: N_15  and  C_16
REMARK    5  A    between atoms: C_16  and  C_17
REMARK    6  A    between atoms: C_16  and  C_18
REMARK                            x       y       z     vdW  Elec       q    Type
REMARK                         _______ _______ _______ _____ _____    ______ ____
ROOT
ATOM      1  C   UNL     1       3.044   5.083  19.717  0.00  0.00    +0.000 C 
ATOM      2  C   UNL     1       4.180   4.202  19.209  0.00  0.00    +0.000 C 
ATOM      3  O   UNL     1       5.025   5.067  18.449  0.00  0.00    +0.000 OA
ATOM      4  C   UNL     1       4.310   6.189  18.129  0.00  0.00    +0.000 C 
ATOM      5  O   UNL     1       4.748   7.050  17.383  0.00  0.00    +0.000 OA
ATOM      6  N   UNL     1       3.097   6.184  18.798  0.00  0.00    +0.000 N 
ATOM      7  C   UNL     1       2.335   7.363  18.925  0.00  0.00    +0.000 A 
ATOM      8  C   UNL     1       2.002   8.038  17.770  0.00  0.00    +0.000 A 
ATOM      9  C   UNL     1       1.245   9.165  17.931  0.00  0.00    +0.000 A 
ATOM     10  N   UNL     1       0.882   9.642  19.129  0.00  0.00    +0.000 NA
ATOM     11  C   UNL     1       1.281   8.956  20.209  0.00  0.00    +0.000 A 
ATOM     12  N   UNL     1       1.069   9.509  21.452  0.00  0.00    +0.000 N 
ATOM     13  N   UNL     1       1.946   7.786  20.148  0.00  0.00    +0.000 NA
ATOM     14  H   UNL     1       1.343   8.900  22.207  0.00  0.00    +0.000 HD
ENDROOT
BRANCH   1  16
ATOM     15  C   UNL     1       1.383   3.486  18.535  0.00  0.00    +0.000 C 
ATOM     16  C   UNL     1       1.673   4.357  19.768  0.00  0.00    +0.000 C 
ATOM     17  C   UNL     1       1.540   3.500  21.032  0.00  0.00    +0.000 C 
ENDBRANCH   1  16
BRANCH  12  18
ATOM     18  C   UNL     1      -0.092  10.367  21.654  0.00  0.00    +0.000 C 
ATOM     19  C   UNL     1      -0.761  10.012  22.985  0.00  0.00    +0.000 C 
BRANCH  18  20
ATOM     20  C   UNL     1       0.303  11.847  21.611  0.00  0.00    +0.000 A 
ATOM     21  C   UNL     1      -0.558  12.804  22.154  0.00  0.00    +0.000 A 
ATOM     22  C   UNL     1      -0.173  14.148  22.162  0.00  0.00    +0.000 A 
ATOM     23  C   UNL     1       1.050  14.500  21.611  0.00  0.00    +0.000 A 
ATOM     24 BR   UNL     1       1.620  16.297  21.600  0.00  0.00    +0.000 Br
ATOM     25  C   UNL     1       1.844  13.503  21.067  0.00  0.00    +0.000 A 
ATOM     26  N   UNL     1       1.498  12.189  21.054  0.00  0.00    +0.000 NA
ENDBRANCH  18  20
ENDBRANCH  12  18
TORSDOF 3
ENDMDL
MODEL 5
REMARK VINA RESULT:      -7.3      1.252      1.467
REMARK  Name = 
REMARK  6 active torsions:
REMARK  status: ('A' for Active; 'I' for Inactive)
REMARK    1  A    between atoms: C_1  and  C_2
REMARK    2  A    between atoms: C_2  and  C_3
REMARK    3  A    between atoms: C_2  and  C_4
REMARK    4  A    between atoms: N_15  and  C_16
REMARK    5  A    between atoms: C_16  and  C_17
REMARK    6  A    between atoms: C_16  and  C_18
REMARK                            x       y       z     vdW  Elec       q    Type
REMARK                         _______ _______ _______ _____ _____    ______ ____
ROOT
ATOM      1  C   UNL     1       4.085   5.548  17.339  0.00  0.00    +0.000 C 
ATOM      2  C   UNL     1       4.200   4.106  16.858  0.00  0.00    +0.000 C 
ATOM      3  O   UNL     1       2.971   3.479  17.225  0.00  0.00    +0.000 OA
ATOM      4  C   UNL     1       2.373   4.246  18.188  0.00  0.00    +0.000 C 
ATOM      5  O   UNL     1       1.361   3.889  18.770  0.00  0.00    +0.000 OA
ATOM      6  N   UNL     1       3.060   5.439  18.337  0.00  0.00    +0.000 N 
ATOM      7  C   UNL     1       2.468   6.538  18.993  0.00  0.00    +0.000 A 
ATOM      8  C   UNL     1       1.991   6.342  20.271  0.00  0.00    +0.000 A 
ATOM      9  C   UNL     1       1.444   7.435  20.882  0.00  0.00    +0.000 A 
ATOM     10  N   UNL     1       1.312   8.625  20.280  0.00  0.00    +0.000 NA
ATOM     11  C   UNL     1       1.758   8.728  19.021  0.00  0.00    +0.000 A 
ATOM     12  N   UNL     1       1.486   9.882  18.322  0.00  0.00    +0.000 N 
ATOM     13  N   UNL     1       2.397   7.737  18.370  0.00  0.00    +0.000 NA
ATOM     14  H   UNL     1       1.910   9.900  17.407  0.00  0.00    +0.000 HD
ENDROOT
BRANCH   1  16
ATOM     15  C   UNL     1       5.999   5.399  19.076  0.00  0.00    +0.000 C 
ATOM     16  C   UNL     1       5.423   6.138  17.857  0.00  0.00    +0.000 C 
ATOM     17  C   UNL     1       6.482   6.180  16.750  0.00  0.00    +0.000 C 
ENDBRANCH   1  16
BRANCH  12  18
ATOM     18  C   UNL     1       1.382  11.141  19.050  0.00  0.00    +0.000 C 
ATOM     19  C   UNL     1       2.166  12.226  18.305  0.00  0.00    +0.000 C 
BRANCH  18  20
ATOM     20  C   UNL     1      -0.084  11.548  19.238  0.00  0.00    +0.000 A 
ATOM     21  C   UNL     1      -1.001  11.302  18.213  0.00  0.00    +0.000 A 
ATOM     22  C   UNL     1      -2.347  11.625  18.406  0.00  0.00    +0.000 A 
ATOM     23  C   UNL     1      -2.736  12.200  19.607  0.00  0.00    +0.000 A 
ATOM     24 BR   UNL     1      -4.540  12.650  19.920  0.00  0.00    +0.000 Br
ATOM     25  C   UNL     1      -1.770  12.438  20.571  0.00  0.00    +0.000 A 
ATOM     26  N   UNL     1      -0.456  12.127  20.412  0.00  0.00    +0.000 NA
ENDBRANCH  18  20
ENDBRANCH  12  18
TORSDOF 3
ENDMDL
MODEL 6
REMARK VINA RESULT:      -7.2      4.340      8.220
REMARK  Name = 
REMARK  6 active torsions:
REMARK  status: ('A' for Active; 'I' for Inactive)
REMARK    1  A    between atoms: C_1  and  C_2
REMARK    2  A    between atoms: C_2  and  C_3
REMARK    3  A    between atoms: C_2  and  C_4
REMARK    4  A    between atoms: N_15  and  C_16
REMARK    5  A    between atoms: C_16  and  C_17
REMARK    6  A    between atoms: C_16  and  C_18
REMARK                            x       y       z     vdW  Elec       q    Type
REMARK                         _______ _______ _______ _____ _____    ______ ____
ROOT
ATOM      1  C   UNL     1      -0.769  11.461  18.571  0.00  0.00    +0.000 C 
ATOM      2  C   UNL     1      -1.161  12.919  18.792  0.00  0.00    +0.000 C 
ATOM      3  O   UNL     1      -0.289  13.399  19.815  0.00  0.00    +0.000 OA
ATOM      4  C   UNL     1       0.240  12.318  20.467  0.00  0.00    +0.000 C 
ATOM      5  O   UNL     1       0.932  12.435  21.466  0.00  0.00    +0.000 OA
ATOM      6  N   UNL     1      -0.099  11.152  19.802  0.00  0.00    +0.000 N 
ATOM      7  C   UNL     1       0.593   9.950  20.050  0.00  0.00    +0.000 A 
ATOM      8  C   UNL     1       0.661   9.505  21.353  0.00  0.00    +0.000 A 
ATOM      9  C   UNL     1       1.323   8.326  21.552  0.00  0.00    +0.000 A 
ATOM     10  N   UNL     1       1.929   7.648  20.567  0.00  0.00    +0.000 NA
ATOM     11  C   UNL     1       1.859   8.165  19.333  0.00  0.00    +0.000 A 
ATOM     12  N   UNL     1       2.609   7.585  18.336  0.00  0.00    +0.000 N 
ATOM     13  N   UNL     1       1.151   9.268  19.023  0.00  0.00    +0.000 NA
ATOM     14  H   UNL     1       2.449   7.997  17.430  0.00  0.00    +0.000 HD
ENDROOT
BRANCH   1  16
ATOM     15  C   UNL     1      -3.334  11.254  18.282  0.00  0.00    +0.000 C 
ATOM     16  C   UNL     1      -1.974  10.538  18.249  0.00  0.00    +0.000 C 
ATOM     17  C   UNL     1      -1.802   9.847  16.892  0.00  0.00    +0.000 C 
ENDBRANCH   1  16
BRANCH  12  18
ATOM     18  C   UNL     1       2.877   6.152  18.396  0.00  0.00    +0.000 C 
ATOM     19  C   UNL     1       1.569   5.382  18.192  0.00  0.00    +0.000 C 
BRANCH  18  20
ATOM     20  C   UNL     1       3.928   5.745  17.357  0.00  0.00    +0.000 A 
ATOM     21  C   UNL     1       4.145   4.390  17.095  0.00  0.00    +0.000 A 
ATOM     22  C   UNL     1       5.065   4.021  16.110  0.00  0.00    +0.000 A 
ATOM     23  C   UNL     1       5.756   5.012  15.429  0.00  0.00    +0.000 A 
ATOM     24 BR   UNL     1       7.004   4.569  14.088  0.00  0.00    +0.000 Br
ATOM     25  C   UNL     1       5.509   6.336  15.756  0.00  0.00    +0.000 A 
ATOM     26  N   UNL     1       4.614   6.723  16.703  0.00  0.00    +0.000 NA
ENDBRANCH  18  20
ENDBRANCH  12  18
TORSDOF 3
ENDMDL
MODEL 7
REMARK VINA RESULT:      -7.2      2.612      4.264
REMARK  Name = 
REMARK  6 active torsions:
REMARK  status: ('A' for Active; 'I' for Inactive)
REMARK    1  A    between atoms: C_1  and  C_2
REMARK    2  A    between atoms: C_2  and  C_3
REMARK    3  A    between atoms: C_2  and  C_4
REMARK    4  A    between atoms: N_15  and  C_16
REMARK    5  A    between atoms: C_16  and  C_17
REMARK    6  A    between atoms: C_16  and  C_18
REMARK                            x       y       z     vdW  Elec       q    Type
REMARK                         _______ _______ _______ _____ _____    ______ ____
ROOT
ATOM      1  C   UNL     1       2.995   3.661  19.462  0.00  0.00    +0.000 C 
ATOM      2  C   UNL     1       3.804   2.491  20.010  0.00  0.00    +0.000 C 
ATOM      3  O   UNL     1       5.156   2.949  20.059  0.00  0.00    +0.000 OA
ATOM      4  C   UNL     1       5.265   4.042  19.242  0.00  0.00    +0.000 C 
ATOM      5  O   UNL     1       6.339   4.571  19.002  0.00  0.00    +0.000 OA
ATOM      6  N   UNL     1       4.011   4.434  18.806  0.00  0.00    +0.000 N 
ATOM      7  C   UNL     1       3.803   5.714  18.253  0.00  0.00    +0.000 A 
ATOM      8  C   UNL     1       4.589   6.085  17.182  0.00  0.00    +0.000 A 
ATOM      9  C   UNL     1       4.345   7.325  16.660  0.00  0.00    +0.000 A 
ATOM     10  N   UNL     1       3.444   8.174  17.172  0.00  0.00    +0.000 NA
ATOM     11  C   UNL     1       2.749   7.760  18.241  0.00  0.00    +0.000 A 
ATOM     12  N   UNL     1       1.941   8.667  18.889  0.00  0.00    +0.000 N 
ATOM     13  N   UNL     1       2.850   6.524  18.766  0.00  0.00    +0.000 NA
ATOM     14  H   UNL     1       1.410   8.257  19.642  0.00  0.00    +0.000 HD
ENDROOT
BRANCH   1  16
ATOM     15  C   UNL     1       2.233   2.224  17.446  0.00  0.00    +0.000 C 
ATOM     16  C   UNL     1       1.825   3.226  18.539  0.00  0.00    +0.000 C 
ATOM     17  C   UNL     1       0.661   2.643  19.347  0.00  0.00    +0.000 C 
ENDBRANCH   1  16
BRANCH  12  18
ATOM     18  C   UNL     1       1.316   9.734  18.116  0.00  0.00    +0.000 C 
ATOM     19  C   UNL     1      -0.195   9.496  18.049  0.00  0.00    +0.000 C 
BRANCH  18  20
ATOM     20  C   UNL     1       1.635  11.108  18.718  0.00  0.00    +0.000 A 
ATOM     21  C   UNL     1       2.431  12.003  18.000  0.00  0.00    +0.000 A 
ATOM     22  C   UNL     1       2.678  13.275  18.525  0.00  0.00    +0.000 A 
ATOM     23  C   UNL     1       2.138  13.610  19.759  0.00  0.00    +0.000 A 
ATOM     24 BR   UNL     1       2.436  15.312  20.510  0.00  0.00    +0.000 Br
ATOM     25  C   UNL     1       1.378  12.664  20.428  0.00  0.00    +0.000 A 
ATOM     26  N   UNL     1       1.116  11.424  19.936  0.00  0.00    +0.000 NA
ENDBRANCH  18  20
ENDBRANCH  12  18
TORSDOF 3
ENDMDL
MODEL 8
REMARK VINA RESULT:      -7.2      2.522      3.856
REMARK  Name = 
REMARK  6 active torsions:
REMARK  status: ('A' for Active; 'I' for Inactive)
REMARK    1  A    between atoms: C_1  and  C_2
REMARK    2  A    between atoms: C_2  and  C_3
REMARK    3  A    between atoms: C_2  and  C_4
REMARK    4  A    between atoms: N_15  and  C_16
REMARK    5  A    between atoms: C_16  and  C_17
REMARK    6  A    between atoms: C_16  and  C_18
REMARK                            x       y       z     vdW  Elec       q    Type
REMARK                         _______ _______ _______ _____ _____    ______ ____
ROOT
ATOM      1  C   UNL     1       2.942   3.624  19.569  0.00  0.00    +0.000 C 
ATOM      2  C   UNL     1       3.839   2.442  19.921  0.00  0.00    +0.000 C 
ATOM      3  O   UNL     1       5.166   2.968  19.965  0.00  0.00    +0.000 OA
ATOM      4  C   UNL     1       5.175   4.161  19.295  0.00  0.00    +0.000 C 
ATOM      5  O   UNL     1       6.206   4.778  19.076  0.00  0.00    +0.000 OA
ATOM      6  N   UNL     1       3.880   4.532  18.973  0.00  0.00    +0.000 N 
ATOM      7  C   UNL     1       3.577   5.858  18.604  0.00  0.00    +0.000 A 
ATOM      8  C   UNL     1       4.283   6.409  17.556  0.00  0.00    +0.000 A 
ATOM      9  C   UNL     1       3.949   7.690  17.213  0.00  0.00    +0.000 A 
ATOM     10  N   UNL     1       3.034   8.412  17.874  0.00  0.00    +0.000 NA
ATOM     11  C   UNL     1       2.421   7.824  18.911  0.00  0.00    +0.000 A 
ATOM     12  N   UNL     1       1.603   8.592  19.710  0.00  0.00    +0.000 N 
ATOM     13  N   UNL     1       2.613   6.539  19.264  0.00  0.00    +0.000 NA
ATOM     14  H   UNL     1       1.136   8.059  20.426  0.00  0.00    +0.000 HD
ENDROOT
BRANCH   1  16
ATOM     15  C   UNL     1       2.136   2.355  17.460  0.00  0.00    +0.000 C 
ATOM     16  C   UNL     1       1.748   3.244  18.653  0.00  0.00    +0.000 C 
ATOM     17  C   UNL     1       0.629   2.561  19.446  0.00  0.00    +0.000 C 
ENDBRANCH   1  16
BRANCH  12  18
ATOM     18  C   UNL     1       0.883   9.712  19.114  0.00  0.00    +0.000 C 
ATOM     19  C   UNL     1       0.049   9.209  17.932  0.00  0.00    +0.000 C 
BRANCH  18  20
ATOM     20  C   UNL     1       0.004  10.416  20.153  0.00  0.00    +0.000 A 
ATOM     21  C   UNL     1       0.095  10.041  21.496  0.00  0.00    +0.000 A 
ATOM     22  C   UNL     1      -0.668  10.718  22.451  0.00  0.00    +0.000 A 
ATOM     23  C   UNL     1      -1.515  11.736  22.037  0.00  0.00    +0.000 A 
ATOM     24 BR   UNL     1      -2.563  12.686  23.283  0.00  0.00    +0.000 Br
ATOM     25  C   UNL     1      -1.574  12.040  20.686  0.00  0.00    +0.000 A 
ATOM     26  N   UNL     1      -0.837  11.403  19.738  0.00  0.00    +0.000 NA
ENDBRANCH  18  20
ENDBRANCH  12  18
TORSDOF 3
ENDMDL
MODEL 9
REMARK VINA RESULT:      -7.1      3.117      4.510
REMARK  Name = 
REMARK  6 active torsions:
REMARK  status: ('A' for Active; 'I' for Inactive)
REMARK    1  A    between atoms: C_1  and  C_2
REMARK    2  A    between atoms: C_2  and  C_3
REMARK    3  A    between atoms: C_2  and  C_4
REMARK    4  A    between atoms: N_15  and  C_16
REMARK    5  A    between atoms: C_16  and  C_17
REMARK    6  A    between atoms: C_16  and  C_18
REMARK                            x       y       z     vdW  Elec       q    Type
REMARK                         _______ _______ _______ _____ _____    ______ ____
ROOT
ATOM      1  C   UNL     1       2.984   4.907  19.991  0.00  0.00    +0.000 C 
ATOM      2  C   UNL     1       4.103   3.945  19.606  0.00  0.00    +0.000 C 
ATOM      3  O   UNL     1       5.025   4.718  18.836  0.00  0.00    +0.000 OA
ATOM      4  C   UNL     1       4.379   5.844  18.402  0.00  0.00    +0.000 C 
ATOM      5  O   UNL     1       4.894   6.631  17.624  0.00  0.00    +0.000 OA
ATOM      6  N   UNL     1       3.135   5.938  19.004  0.00  0.00    +0.000 N 
ATOM      7  C   UNL     1       2.423   7.154  19.008  0.00  0.00    +0.000 A 
ATOM      8  C   UNL     1       2.181   7.760  17.794  0.00  0.00    +0.000 A 
ATOM      9  C   UNL     1       1.470   8.927  17.836  0.00  0.00    +0.000 A 
ATOM     10  N   UNL     1       1.068   9.502  18.978  0.00  0.00    +0.000 NA
ATOM     11  C   UNL     1       1.380   8.877  20.122  0.00  0.00    +0.000 A 
ATOM     12  N   UNL     1       1.130   9.525  21.311  0.00  0.00    +0.000 N 
ATOM     13  N   UNL     1       1.991   7.679  20.177  0.00  0.00    +0.000 NA
ATOM     14  H   UNL     1       1.336   8.959  22.120  0.00  0.00    +0.000 HD
ENDROOT
BRANCH   1  16
ATOM     15  C   UNL     1       1.195   3.550  18.701  0.00  0.00    +0.000 C 
ATOM     16  C   UNL     1       1.580   4.246  20.016  0.00  0.00    +0.000 C 
ATOM     17  C   UNL     1       1.453   3.246  21.170  0.00  0.00    +0.000 C 
ENDBRANCH   1  16
BRANCH  12  18
ATOM     18  C   UNL     1       0.000  10.444  21.391  0.00  0.00    +0.000 C 
ATOM     19  C   UNL     1      -0.820  10.132  22.646  0.00  0.00    +0.000 C 
BRANCH  18  20
ATOM     20  C   UNL     1       0.476  11.901  21.388  0.00  0.00    +0.000 A 
ATOM     21  C   UNL     1       1.557  12.267  20.582  0.00  0.00    +0.000 A 
ATOM     22  C   UNL     1       1.957  13.606  20.539  0.00  0.00    +0.000 A 
ATOM     23  C   UNL     1       1.280  14.536  21.314  0.00  0.00    +0.000 A 
ATOM     24 BR   UNL     1       1.775  16.355  21.290  0.00  0.00    +0.000 Br
ATOM     25  C   UNL     1       0.232  14.099  22.109  0.00  0.00    +0.000 A 
ATOM     26  N   UNL     1      -0.182  12.805  22.163  0.00  0.00    +0.000 NA
ENDBRANCH  18  20
ENDBRANCH  12  18
TORSDOF 3
ENDMDL
