MODEL 1
REMARK VINA RESULT:      -7.6      0.000      0.000
REMARK  Name = 
REMARK  4 active torsions:
REMARK  status: ('A' for Active; 'I' for Inactive)
REMARK    1  A    between atoms: C_4  and  C_5
REMARK    2  A    between atoms: C_5  and  N_6
REMARK    3  A    between atoms: C_9  and  C_10
REMARK    4  A    between atoms: C_10  and  C_12
REMARK                            x       y       z     vdW  Elec       q    Type
REMARK                         _______ _______ _______ _____ _____    ______ ____
ROOT
ATOM      1  N   UNL     1       1.282   8.241  19.219  0.00  0.00    +0.000 NA
ATOM      2  C   UNL     1       1.005   8.617  20.608  0.00  0.00    +0.000 C 
ATOM      3  C   UNL     1      -0.252   9.474  20.724  0.00  0.00    +0.000 C 
ATOM      4  C   UNL     1      -0.126  10.766  19.918  0.00  0.00    +0.000 C 
ATOM      5  C   UNL     1       0.150  10.370  18.460  0.00  0.00    +0.000 C 
ATOM      6  C   UNL     1       1.346   9.418  18.326  0.00  0.00    +0.000 C 
ENDROOT
BRANCH   4   7
ATOM      7  C   UNL     1       0.954  11.726  20.452  0.00  0.00    +0.000 C 
ATOM      8  O   UNL     1       1.604  11.473  21.461  0.00  0.00    +0.000 OA
BRANCH   7   9
ATOM      9  C   UNL     1       1.275  12.994  19.721  0.00  0.00    +0.000 A 
ATOM     10  C   UNL     1       2.490  13.211  19.058  0.00  0.00    +0.000 A 
ATOM     11  C   UNL     1       2.728  14.421  18.398  0.00  0.00    +0.000 A 
ATOM     12  C   UNL     1       1.766  15.424  18.423  0.00  0.00    +0.000 A 
ATOM     13  F   UNL     1       2.007  16.584  17.803  0.00  0.00    +0.000 F 
ATOM     14  C   UNL     1       0.560  15.235  19.084  0.00  0.00    +0.000 A 
ATOM     15  C   UNL     1       0.313  14.020  19.728  0.00  0.00    +0.000 A 
ENDBRANCH   7   9
ENDBRANCH   4   7
BRANCH   1  16
ATOM     16  C   UNL     1       2.562   7.503  19.119  0.00  0.00    +0.000 C 
BRANCH  16  20
ATOM     17  O   UNL     1       3.962   4.033  19.878  0.00  0.00    +0.000 OA
ATOM     18  C   UNL     1       4.011   4.865  18.978  0.00  0.00    +0.000 C 
ATOM     19  C   UNL     1       2.813   5.183  18.115  0.00  0.00    +0.000 C 
ATOM     20  C   UNL     1       2.750   6.683  17.814  0.00  0.00    +0.000 C 
ATOM     21  C   UNL     1       4.008   7.075  17.027  0.00  0.00    +0.000 C 
ATOM     22  C   UNL     1       5.280   6.598  17.685  0.00  0.00    +0.000 A 
ATOM     23  C   UNL     1       6.501   7.178  17.321  0.00  0.00    +0.000 A 
ATOM     24  C   UNL     1       7.683   6.786  17.950  0.00  0.00    +0.000 A 
ATOM     25  C   UNL     1       7.658   5.819  18.955  0.00  0.00    +0.000 A 
ATOM     26  C   UNL     1       6.456   5.209  19.304  0.00  0.00    +0.000 A 
ATOM     27  C   UNL     1       5.276   5.573  18.649  0.00  0.00    +0.000 A 
ENDBRANCH  16  20
ENDBRANCH   1  16
TORSDOF 4
ENDMDL
MODEL 2
REMARK VINA RESULT:      -7.5      3.065      4.579
REMARK  Name = 
REMARK  4 active torsions:
REMARK  status: ('A' for Active; 'I' for Inactive)
REMARK    1  A    between atoms: C_4  and  C_5
REMARK    2  A    between atoms: C_5  and  N_6
REMARK    3  A    between atoms: C_9  and  C_10
REMARK    4  A    between atoms: C_10  and  C_12
REMARK                            x       y       z     vdW  Elec       q    Type
REMARK                         _______ _______ _______ _____ _____    ______ ____
ROOT
ATOM      1  N   UNL     1       2.268   8.351  18.686  0.00  0.00    +0.000 NA
ATOM      2  C   UNL     1       2.052   9.381  17.666  0.00  0.00    +0.000 C 
ATOM      3  C   UNL     1       1.868  10.763  18.285  0.00  0.00    +0.000 C 
ATOM      4  C   UNL     1       0.668  10.798  19.230  0.00  0.00    +0.000 C 
ATOM      5  C   UNL     1       0.901   9.728  20.306  0.00  0.00    +0.000 C 
ATOM      6  C   UNL     1       1.198   8.347  19.708  0.00  0.00    +0.000 C 
ENDROOT
BRANCH   4   7
ATOM      7  C   UNL     1      -0.685  10.594  18.521  0.00  0.00    +0.000 C 
ATOM      8  O   UNL     1      -0.808   9.829  17.569  0.00  0.00    +0.000 OA
BRANCH   7   9
ATOM      9  C   UNL     1      -1.914  11.300  19.006  0.00  0.00    +0.000 A 
ATOM     10  C   UNL     1      -3.143  11.248  18.336  0.00  0.00    +0.000 A 
ATOM     11  C   UNL     1      -4.252  11.935  18.841  0.00  0.00    +0.000 A 
ATOM     12  C   UNL     1      -4.127  12.695  19.998  0.00  0.00    +0.000 A 
ATOM     13  F   UNL     1      -5.188  13.362  20.466  0.00  0.00    +0.000 F 
ATOM     14  C   UNL     1      -2.916  12.771  20.670  0.00  0.00    +0.000 A 
ATOM     15  C   UNL     1      -1.812  12.071  20.178  0.00  0.00    +0.000 A 
ENDBRANCH   7   9
ENDBRANCH   4   7
BRANCH   1  16
ATOM     16  C   UNL     1       2.335   7.007  18.069  0.00  0.00    +0.000 C 
BRANCH  16  20
ATOM     17  O   UNL     1       2.128   3.468  16.653  0.00  0.00    +0.000 OA
ATOM     18  C   UNL     1       2.667   4.051  17.588  0.00  0.00    +0.000 C 
ATOM     19  C   UNL     1       3.788   5.040  17.376  0.00  0.00    +0.000 C 
ATOM     20  C   UNL     1       3.649   6.223  18.339  0.00  0.00    +0.000 C 
ATOM     21  C   UNL     1       3.758   5.697  19.776  0.00  0.00    +0.000 C 
ATOM     22  C   UNL     1       2.836   4.533  20.042  0.00  0.00    +0.000 A 
ATOM     23  C   UNL     1       2.532   4.185  21.364  0.00  0.00    +0.000 A 
ATOM     24  C   UNL     1       1.644   3.143  21.633  0.00  0.00    +0.000 A 
ATOM     25  C   UNL     1       1.043   2.444  20.587  0.00  0.00    +0.000 A 
ATOM     26  C   UNL     1       1.362   2.755  19.267  0.00  0.00    +0.000 A 
ATOM     27  C   UNL     1       2.279   3.774  18.997  0.00  0.00    +0.000 A 
ENDBRANCH  16  20
ENDBRANCH   1  16
TORSDOF 4
ENDMDL
MODEL 3
REMARK VINA RESULT:      -7.5      5.408      9.036
REMARK  Name = 
REMARK  4 active torsions:
REMARK  status: ('A' for Active; 'I' for Inactive)
REMARK    1  A    between atoms: C_4  and  C_5
REMARK    2  A    between atoms: C_5  and  N_6
REMARK    3  A    between atoms: C_9  and  C_10
REMARK    4  A    between atoms: C_10  and  C_12
REMARK                            x       y       z     vdW  Elec       q    Type
REMARK                         _______ _______ _______ _____ _____    ______ ____
ROOT
ATOM      1  N   UNL     1       5.977   5.745  18.553  0.00  0.00    +0.000 NA
ATOM      2  C   UNL     1       5.932   4.499  17.781  0.00  0.00    +0.000 C 
ATOM      3  C   UNL     1       7.177   4.321  16.918  0.00  0.00    +0.000 C 
ATOM      4  C   UNL     1       7.337   5.469  15.923  0.00  0.00    +0.000 C 
ATOM      5  C   UNL     1       7.398   6.772  16.733  0.00  0.00    +0.000 C 
ATOM      6  C   UNL     1       6.211   6.924  17.692  0.00  0.00    +0.000 C 
ENDROOT
BRANCH   4   7
ATOM      7  C   UNL     1       6.227   5.524  14.856  0.00  0.00    +0.000 C 
ATOM      8  O   UNL     1       5.365   6.399  14.862  0.00  0.00    +0.000 OA
BRANCH   7   9
ATOM      9  C   UNL     1       6.190   4.524  13.741  0.00  0.00    +0.000 A 
ATOM     10  C   UNL     1       5.055   3.764  13.429  0.00  0.00    +0.000 A 
ATOM     11  C   UNL     1       5.089   2.844  12.376  0.00  0.00    +0.000 A 
ATOM     12  C   UNL     1       6.263   2.661  11.655  0.00  0.00    +0.000 A 
ATOM     13  F   UNL     1       6.293   1.767  10.660  0.00  0.00    +0.000 F 
ATOM     14  C   UNL     1       7.403   3.394  11.955  0.00  0.00    +0.000 A 
ATOM     15  C   UNL     1       7.365   4.327  12.994  0.00  0.00    +0.000 A 
ENDBRANCH   7   9
ENDBRANCH   4   7
BRANCH   1  16
ATOM     16  C   UNL     1       4.713   5.947  19.298  0.00  0.00    +0.000 C 
BRANCH  16  20
ATOM     17  O   UNL     1       1.575   6.337  21.436  0.00  0.00    +0.000 OA
ATOM     18  C   UNL     1       1.867   6.052  20.279  0.00  0.00    +0.000 C 
ATOM     19  C   UNL     1       2.435   7.073  19.322  0.00  0.00    +0.000 C 
ATOM     20  C   UNL     1       3.515   6.439  18.440  0.00  0.00    +0.000 C 
ATOM     21  C   UNL     1       2.870   5.326  17.604  0.00  0.00    +0.000 C 
ATOM     22  C   UNL     1       2.066   4.361  18.440  0.00  0.00    +0.000 A 
ATOM     23  C   UNL     1       1.735   3.106  17.914  0.00  0.00    +0.000 A 
ATOM     24  C   UNL     1       1.034   2.179  18.686  0.00  0.00    +0.000 A 
ATOM     25  C   UNL     1       0.664   2.491  19.994  0.00  0.00    +0.000 A 
ATOM     26  C   UNL     1       0.955   3.748  20.520  0.00  0.00    +0.000 A 
ATOM     27  C   UNL     1       1.624   4.690  19.734  0.00  0.00    +0.000 A 
ENDBRANCH  16  20
ENDBRANCH   1  16
TORSDOF 4
ENDMDL
MODEL 4
REMARK VINA RESULT:      -7.3      2.869      4.424
REMARK  Name = 
REMARK  4 active torsions:
REMARK  status: ('A' for Active; 'I' for Inactive)
REMARK    1  A    between atoms: C_4  and  C_5
REMARK    2  A    between atoms: C_5  and  N_6
REMARK    3  A    between atoms: C_9  and  C_10
REMARK    4  A    between atoms: C_10  and  C_12
REMARK                            x       y       z     vdW  Elec       q    Type
REMARK                         _______ _______ _______ _____ _____    ______ ____
ROOT
ATOM      1  N   UNL     1       1.142   9.493  17.750  0.00  0.00    +0.000 NA
ATOM      2  C   UNL     1      -0.065   9.798  18.524  0.00  0.00    +0.000 C 
ATOM      3  C   UNL     1      -0.412  11.282  18.471  0.00  0.00    +0.000 C 
ATOM      4  C   UNL     1       0.719  12.143  19.032  0.00  0.00    +0.000 C 
ATOM      5  C   UNL     1       1.980  11.833  18.212  0.00  0.00    +0.000 C 
ATOM      6  C   UNL     1       2.291  10.332  18.157  0.00  0.00    +0.000 C 
ENDROOT
BRANCH   4   7
ATOM      7  C   UNL     1       0.966  11.936  20.539  0.00  0.00    +0.000 C 
ATOM      8  O   UNL     1       2.099  11.842  21.003  0.00  0.00    +0.000 OA
BRANCH   7   9
ATOM      9  C   UNL     1      -0.182  11.885  21.500  0.00  0.00    +0.000 A 
ATOM     10  C   UNL     1      -0.416  10.804  22.360  0.00  0.00    +0.000 A 
ATOM     11  C   UNL     1      -1.510  10.818  23.231  0.00  0.00    +0.000 A 
ATOM     12  C   UNL     1      -2.386  11.897  23.224  0.00  0.00    +0.000 A 
ATOM     13  F   UNL     1      -3.439  11.896  24.048  0.00  0.00    +0.000 F 
ATOM     14  C   UNL     1      -2.180  12.973  22.372  0.00  0.00    +0.000 A 
ATOM     15  C   UNL     1      -1.077  12.969  21.515  0.00  0.00    +0.000 A 
ENDBRANCH   7   9
ENDBRANCH   4   7
BRANCH   1  16
ATOM     16  C   UNL     1       1.520   8.069  17.904  0.00  0.00    +0.000 C 
BRANCH  16  20
ATOM     17  O   UNL     1       3.989   5.403  16.736  0.00  0.00    +0.000 OA
ATOM     18  C   UNL     1       3.489   5.793  17.786  0.00  0.00    +0.000 C 
ATOM     19  C   UNL     1       3.833   7.135  18.386  0.00  0.00    +0.000 C 
ATOM     20  C   UNL     1       2.587   7.786  18.996  0.00  0.00    +0.000 C 
ATOM     21  C   UNL     1       2.074   6.887  20.129  0.00  0.00    +0.000 C 
ATOM     22  C   UNL     1       1.912   5.448  19.704  0.00  0.00    +0.000 A 
ATOM     23  C   UNL     1       1.115   4.590  20.471  0.00  0.00    +0.000 A 
ATOM     24  C   UNL     1       0.913   3.269  20.071  0.00  0.00    +0.000 A 
ATOM     25  C   UNL     1       1.495   2.793  18.897  0.00  0.00    +0.000 A 
ATOM     26  C   UNL     1       2.319   3.624  18.141  0.00  0.00    +0.000 A 
ATOM     27  C   UNL     1       2.552   4.936  18.560  0.00  0.00    +0.000 A 
ENDBRANCH  16  20
ENDBRANCH   1  16
TORSDOF 4
ENDMDL
MODEL 5
REMARK VINA RESULT:      -7.3      3.090      4.616
REMARK  Name = 
REMARK  4 active torsions:
REMARK  status: ('A' for Active; 'I' for Inactive)
REMARK    1  A    between atoms: C_4  and  C_5
REMARK    2  A    between atoms: C_5  and  N_6
REMARK    3  A    between atoms: C_9  and  C_10
REMARK    4  A    between atoms: C_10  and  C_12
REMARK                            x       y       z     vdW  Elec       q    Type
REMARK                         _______ _______ _______ _____ _____    ______ ____
ROOT
ATOM      1  N   UNL     1       2.450   8.161  18.570  0.00  0.00    +0.000 NA
ATOM      2  C   UNL     1       1.602   9.064  17.785  0.00  0.00    +0.000 C 
ATOM      3  C   UNL     1       1.469  10.433  18.444  0.00  0.00    +0.000 C 
ATOM      4  C   UNL     1       0.853  10.326  19.839  0.00  0.00    +0.000 C 
ATOM      5  C   UNL     1       1.749   9.391  20.664  0.00  0.00    +0.000 C 
ATOM      6  C   UNL     1       1.989   8.044  19.971  0.00  0.00    +0.000 C 
ENDROOT
BRANCH   4   7
ATOM      7  C   UNL     1      -0.609   9.841  19.834  0.00  0.00    +0.000 C 
ATOM      8  O   UNL     1      -1.022   9.022  20.650  0.00  0.00    +0.000 OA
BRANCH   7   9
ATOM      9  C   UNL     1      -1.593  10.394  18.849  0.00  0.00    +0.000 A 
ATOM     10  C   UNL     1      -2.332  11.562  19.076  0.00  0.00    +0.000 A 
ATOM     11  C   UNL     1      -3.238  12.022  18.115  0.00  0.00    +0.000 A 
ATOM     12  C   UNL     1      -3.428  11.301  16.942  0.00  0.00    +0.000 A 
ATOM     13  F   UNL     1      -4.309  11.739  16.035  0.00  0.00    +0.000 F 
ATOM     14  C   UNL     1      -2.716  10.135  16.702  0.00  0.00    +0.000 A 
ATOM     15  C   UNL     1      -1.796   9.684  17.652  0.00  0.00    +0.000 A 
ENDBRANCH   7   9
ENDBRANCH   4   7
BRANCH   1  16
ATOM     16  C   UNL     1       2.475   6.809  17.967  0.00  0.00    +0.000 C 
BRANCH  16  20
ATOM     17  O   UNL     1       2.129   3.236  16.668  0.00  0.00    +0.000 OA
ATOM     18  C   UNL     1       2.706   3.830  17.572  0.00  0.00    +0.000 C 
ATOM     19  C   UNL     1       3.851   4.777  17.305  0.00  0.00    +0.000 C 
ATOM     20  C   UNL     1       3.771   5.993  18.233  0.00  0.00    +0.000 C 
ATOM     21  C   UNL     1       3.896   5.508  19.683  0.00  0.00    +0.000 C 
ATOM     22  C   UNL     1       2.945   4.382  20.006  0.00  0.00    +0.000 A 
ATOM     23  C   UNL     1       2.661   4.085  21.344  0.00  0.00    +0.000 A 
ATOM     24  C   UNL     1       1.748   3.079  21.665  0.00  0.00    +0.000 A 
ATOM     25  C   UNL     1       1.103   2.367  20.655  0.00  0.00    +0.000 A 
ATOM     26  C   UNL     1       1.401   2.628  19.319  0.00  0.00    +0.000 A 
ATOM     27  C   UNL     1       2.342   3.609  18.997  0.00  0.00    +0.000 A 
ENDBRANCH  16  20
ENDBRANCH   1  16
TORSDOF 4
ENDMDL
MODEL 6
REMARK VINA RESULT:      -7.2      3.220      4.899
REMARK  Name = 
REMARK  4 active torsions:
REMARK  status: ('A' for Active; 'I' for Inactive)
REMARK    1  A    between atoms: C_4  and  C_5
REMARK    2  A    between atoms: C_5  and  N_6
REMARK    3  A    between atoms: C_9  and  C_10
REMARK    4  A    between atoms: C_10  and  C_12
REMARK                            x       y       z     vdW  Elec       q    Type
REMARK                         _______ _______ _______ _____ _____    ______ ____
ROOT
ATOM      1  N   UNL     1       2.207   8.635  18.973  0.00  0.00    +0.000 NA
ATOM      2  C   UNL     1       1.993   9.512  17.818  0.00  0.00    +0.000 C 
ATOM      3  C   UNL     1       1.607  10.926  18.244  0.00  0.00    +0.000 C 
ATOM      4  C   UNL     1       0.319  10.931  19.066  0.00  0.00    +0.000 C 
ATOM      5  C   UNL     1       0.549  10.023  20.283  0.00  0.00    +0.000 C 
ATOM      6  C   UNL     1       1.044   8.625  19.888  0.00  0.00    +0.000 C 
ENDROOT
BRANCH   4   7
ATOM      7  C   UNL     1      -0.926  10.497  18.270  0.00  0.00    +0.000 C 
ATOM      8  O   UNL     1      -0.871   9.629  17.403  0.00  0.00    +0.000 OA
BRANCH   7   9
ATOM      9  C   UNL     1      -2.267  11.098  18.564  0.00  0.00    +0.000 A 
ATOM     10  C   UNL     1      -2.470  12.079  19.542  0.00  0.00    +0.000 A 
ATOM     11  C   UNL     1      -3.750  12.596  19.769  0.00  0.00    +0.000 A 
ATOM     12  C   UNL     1      -4.830  12.113  19.039  0.00  0.00    +0.000 A 
ATOM     13  F   UNL     1      -6.054  12.601  19.273  0.00  0.00    +0.000 F 
ATOM     14  C   UNL     1      -4.653  11.133  18.074  0.00  0.00    +0.000 A 
ATOM     15  C   UNL     1      -3.373  10.629  17.833  0.00  0.00    +0.000 A 
ENDBRANCH   7   9
ENDBRANCH   4   7
BRANCH   1  16
ATOM     16  C   UNL     1       2.474   7.246  18.535  0.00  0.00    +0.000 C 
BRANCH  16  20
ATOM     17  O   UNL     1       3.927   4.247  16.672  0.00  0.00    +0.000 OA
ATOM     18  C   UNL     1       3.618   4.552  17.819  0.00  0.00    +0.000 C 
ATOM     19  C   UNL     1       4.391   5.579  18.611  0.00  0.00    +0.000 C 
ATOM     20  C   UNL     1       3.439   6.441  19.447  0.00  0.00    +0.000 C 
ATOM     21  C   UNL     1       2.713   5.532  20.448  0.00  0.00    +0.000 C 
ATOM     22  C   UNL     1       2.089   4.325  19.792  0.00  0.00    +0.000 A 
ATOM     23  C   UNL     1       1.092   3.613  20.471  0.00  0.00    +0.000 A 
ATOM     24  C   UNL     1       0.468   2.522  19.865  0.00  0.00    +0.000 A 
ATOM     25  C   UNL     1       0.824   2.136  18.573  0.00  0.00    +0.000 A 
ATOM     26  C   UNL     1       1.837   2.813  17.899  0.00  0.00    +0.000 A 
ATOM     27  C   UNL     1       2.489   3.882  18.519  0.00  0.00    +0.000 A 
ENDBRANCH  16  20
ENDBRANCH   1  16
TORSDOF 4
ENDMDL
MODEL 7
REMARK VINA RESULT:      -7.2      3.269      7.839
REMARK  Name = 
REMARK  4 active torsions:
REMARK  status: ('A' for Active; 'I' for Inactive)
REMARK    1  A    between atoms: C_4  and  C_5
REMARK    2  A    between atoms: C_5  and  N_6
REMARK    3  A    between atoms: C_9  and  C_10
REMARK    4  A    between atoms: C_10  and  C_12
REMARK                            x       y       z     vdW  Elec       q    Type
REMARK                         _______ _______ _______ _____ _____    ______ ____
ROOT
ATOM      1  N   UNL     1       1.011   4.650  20.126  0.00  0.00    +0.000 NA
ATOM      2  C   UNL     1       1.548   4.523  18.767  0.00  0.00    +0.000 C 
ATOM      3  C   UNL     1       1.914   3.080  18.435  0.00  0.00    +0.000 C 
ATOM      4  C   UNL     1       2.970   2.534  19.395  0.00  0.00    +0.000 C 
ATOM      5  C   UNL     1       2.402   2.655  20.816  0.00  0.00    +0.000 C 
ATOM      6  C   UNL     1       1.923   4.076  21.139  0.00  0.00    +0.000 C 
ENDROOT
BRANCH   4   7
ATOM      7  C   UNL     1       4.336   3.235  19.276  0.00  0.00    +0.000 C 
ATOM      8  O   UNL     1       5.252   3.006  20.062  0.00  0.00    +0.000 OA
BRANCH   7   9
ATOM      9  C   UNL     1       4.606   4.196  18.159  0.00  0.00    +0.000 A 
ATOM     10  C   UNL     1       4.715   5.579  18.347  0.00  0.00    +0.000 A 
ATOM     11  C   UNL     1       4.964   6.422  17.258  0.00  0.00    +0.000 A 
ATOM     12  C   UNL     1       5.077   5.887  15.980  0.00  0.00    +0.000 A 
ATOM     13  F   UNL     1       5.300   6.701  14.942  0.00  0.00    +0.000 F 
ATOM     14  C   UNL     1       4.961   4.520  15.770  0.00  0.00    +0.000 A 
ATOM     15  C   UNL     1       4.730   3.675  16.858  0.00  0.00    +0.000 A 
ENDBRANCH   7   9
ENDBRANCH   4   7
BRANCH   1  16
ATOM     16  C   UNL     1       0.766   6.071  20.462  0.00  0.00    +0.000 C 
BRANCH  16  20
ATOM     17  O   UNL     1       0.387   9.081  22.779  0.00  0.00    +0.000 OA
ATOM     18  C   UNL     1       0.924   8.808  21.711  0.00  0.00    +0.000 C 
ATOM     19  C   UNL     1       2.114   7.883  21.626  0.00  0.00    +0.000 C 
ATOM     20  C   UNL     1       2.015   6.991  20.385  0.00  0.00    +0.000 C 
ATOM     21  C   UNL     1       2.032   7.887  19.139  0.00  0.00    +0.000 C 
ATOM     22  C   UNL     1       1.027   9.010  19.214  0.00  0.00    +0.000 A 
ATOM     23  C   UNL     1       0.649   9.673  18.041  0.00  0.00    +0.000 A 
ATOM     24  C   UNL     1      -0.315  10.682  18.080  0.00  0.00    +0.000 A 
ATOM     25  C   UNL     1      -0.918  11.032  19.287  0.00  0.00    +0.000 A 
ATOM     26  C   UNL     1      -0.527  10.405  20.468  0.00  0.00    +0.000 A 
ATOM     27  C   UNL     1       0.464   9.420  20.436  0.00  0.00    +0.000 A 
ENDBRANCH  16  20
ENDBRANCH   1  16
TORSDOF 4
ENDMDL
MODEL 8
REMARK VINA RESULT:      -7.2      2.777      3.618
REMARK  Name = 
REMARK  4 active torsions:
REMARK  status: ('A' for Active; 'I' for Inactive)
REMARK    1  A    between atoms: C_4  and  C_5
REMARK    2  A    between atoms: C_5  and  N_6
REMARK    3  A    between atoms: C_9  and  C_10
REMARK    4  A    between atoms: C_10  and  C_12
REMARK                            x       y       z     vdW  Elec       q    Type
REMARK                         _______ _______ _______ _____ _____    ______ ____
ROOT
ATOM      1  N   UNL     1       2.489   7.877  19.150  0.00  0.00    +0.000 NA
ATOM      2  C   UNL     1       1.703   8.370  18.015  0.00  0.00    +0.000 C 
ATOM      3  C   UNL     1       1.541   9.887  18.055  0.00  0.00    +0.000 C 
ATOM      4  C   UNL     1       0.835  10.342  19.332  0.00  0.00    +0.000 C 
ATOM      5  C   UNL     1       1.667   9.836  20.519  0.00  0.00    +0.000 C 
ATOM      6  C   UNL     1       1.939   8.328  20.447  0.00  0.00    +0.000 C 
ENDROOT
BRANCH   4   7
ATOM      7  C   UNL     1      -0.629   9.872  19.432  0.00  0.00    +0.000 C 
ATOM      8  O   UNL     1      -1.017   9.154  20.350  0.00  0.00    +0.000 OA
BRANCH   7   9
ATOM      9  C   UNL     1      -1.644  10.316  18.424  0.00  0.00    +0.000 A 
ATOM     10  C   UNL     1      -2.589  11.319  18.678  0.00  0.00    +0.000 A 
ATOM     11  C   UNL     1      -3.512  11.684  17.693  0.00  0.00    +0.000 A 
ATOM     12  C   UNL     1      -3.511  11.030  16.467  0.00  0.00    +0.000 A 
ATOM     13  F   UNL     1      -4.407  11.374  15.535  0.00  0.00    +0.000 F 
ATOM     14  C   UNL     1      -2.591  10.026  16.198  0.00  0.00    +0.000 A 
ATOM     15  C   UNL     1      -1.656   9.673  17.174  0.00  0.00    +0.000 A 
ENDBRANCH   7   9
ENDBRANCH   4   7
BRANCH   1  16
ATOM     16  C   UNL     1       2.541   6.397  19.149  0.00  0.00    +0.000 C 
BRANCH  16  20
ATOM     17  O   UNL     1       4.817   3.378  19.675  0.00  0.00    +0.000 OA
ATOM     18  C   UNL     1       4.637   4.255  18.837  0.00  0.00    +0.000 C 
ATOM     19  C   UNL     1       3.393   4.305  17.984  0.00  0.00    +0.000 C 
ATOM     20  C   UNL     1       2.931   5.753  17.790  0.00  0.00    +0.000 C 
ATOM     21  C   UNL     1       4.035   6.520  17.049  0.00  0.00    +0.000 C 
ATOM     22  C   UNL     1       5.391   6.351  17.687  0.00  0.00    +0.000 A 
ATOM     23  C   UNL     1       6.413   7.259  17.381  0.00  0.00    +0.000 A 
ATOM     24  C   UNL     1       7.661   7.150  17.996  0.00  0.00    +0.000 A 
ATOM     25  C   UNL     1       7.900   6.142  18.929  0.00  0.00    +0.000 A 
ATOM     26  C   UNL     1       6.905   5.210  19.218  0.00  0.00    +0.000 A 
ATOM     27  C   UNL     1       5.667   5.296  18.576  0.00  0.00    +0.000 A 
ENDBRANCH  16  20
ENDBRANCH   1  16
TORSDOF 4
ENDMDL
MODEL 9
REMARK VINA RESULT:      -7.1      3.495      7.898
REMARK  Name = 
REMARK  4 active torsions:
REMARK  status: ('A' for Active; 'I' for Inactive)
REMARK    1  A    between atoms: C_4  and  C_5
REMARK    2  A    between atoms: C_5  and  N_6
REMARK    3  A    between atoms: C_9  and  C_10
REMARK    4  A    between atoms: C_10  and  C_12
REMARK                            x       y       z     vdW  Elec       q    Type
REMARK                         _______ _______ _______ _____ _____    ______ ____
ROOT
ATOM      1  N   UNL     1       1.472   4.964  20.625  0.00  0.00    +0.000 NA
ATOM      2  C   UNL     1       0.768   4.193  19.596  0.00  0.00    +0.000 C 
ATOM      3  C   UNL     1       1.367   2.801  19.421  0.00  0.00    +0.000 C 
ATOM      4  C   UNL     1       2.837   2.872  19.012  0.00  0.00    +0.000 C 
ATOM      5  C   UNL     1       3.576   3.667  20.097  0.00  0.00    +0.000 C 
ATOM      6  C   UNL     1       2.928   5.030  20.372  0.00  0.00    +0.000 C 
ENDROOT
BRANCH   4   7
ATOM      7  C   UNL     1       3.064   3.484  17.616  0.00  0.00    +0.000 C 
ATOM      8  O   UNL     1       2.255   3.335  16.705  0.00  0.00    +0.000 OA
BRANCH   7   9
ATOM      9  C   UNL     1       4.272   4.325  17.340  0.00  0.00    +0.000 A 
ATOM     10  C   UNL     1       5.556   3.792  17.169  0.00  0.00    +0.000 A 
ATOM     11  C   UNL     1       6.643   4.635  16.917  0.00  0.00    +0.000 A 
ATOM     12  C   UNL     1       6.454   6.011  16.864  0.00  0.00    +0.000 A 
ATOM     13  F   UNL     1       7.501   6.812  16.638  0.00  0.00    +0.000 F 
ATOM     14  C   UNL     1       5.193   6.562  17.042  0.00  0.00    +0.000 A 
ATOM     15  C   UNL     1       4.103   5.720  17.275  0.00  0.00    +0.000 A 
ENDBRANCH   7   9
ENDBRANCH   4   7
BRANCH   1  16
ATOM     16  C   UNL     1       0.943   6.345  20.700  0.00  0.00    +0.000 C 
BRANCH  16  20
ATOM     17  O   UNL     1      -0.133   9.386  22.741  0.00  0.00    +0.000 OA
ATOM     18  C   UNL     1       0.527   9.144  21.737  0.00  0.00    +0.000 C 
ATOM     19  C   UNL     1       1.861   8.441  21.806  0.00  0.00    +0.000 C 
ATOM     20  C   UNL     1       2.017   7.466  20.635  0.00  0.00    +0.000 C 
ATOM     21  C   UNL     1       1.980   8.267  19.326  0.00  0.00    +0.000 C 
ATOM     22  C   UNL     1       0.793   9.195  19.245  0.00  0.00    +0.000 A 
ATOM     23  C   UNL     1       0.402   9.702  18.000  0.00  0.00    +0.000 A 
ATOM     24  C   UNL     1      -0.721  10.524  17.894  0.00  0.00    +0.000 A 
ATOM     25  C   UNL     1      -1.470  10.840  19.026  0.00  0.00    +0.000 A 
ATOM     26  C   UNL     1      -1.074  10.372  20.277  0.00  0.00    +0.000 A 
ATOM     27  C   UNL     1       0.072   9.579  20.390  0.00  0.00    +0.000 A 
ENDBRANCH  16  20
ENDBRANCH   1  16
TORSDOF 4
ENDMDL
