MODEL 1
REMARK VINA RESULT:      -8.3      0.000      0.000
REMARK  Name = 
REMARK  5 active torsions:
REMARK  status: ('A' for Active; 'I' for Inactive)
REMARK    1  A    between atoms: C_1  and  N_2
REMARK    2  A    between atoms: C_8  and  O_9
REMARK    3  A    between atoms: O_9  and  C_10
REMARK    4  A    between atoms: N_12  and  C_13
REMARK    5  A    between atoms: C_18  and  C_19
REMARK                            x       y       z     vdW  Elec       q    Type
REMARK                         _______ _______ _______ _____ _____    ______ ____
ROOT
ATOM      1  C   UNL     1       0.615   8.627  21.733  0.00  0.00    +0.000 C 
ATOM      2  O   UNL     1      -0.515   8.252  21.443  0.00  0.00    +0.000 OA
ATOM      3  N   UNL     1       1.780   7.936  21.484  0.00  0.00    +0.000 N 
ATOM      4  H   UNL     1       2.584   8.198  22.034  0.00  0.00    +0.000 HD
ENDROOT
BRANCH   3   5
ATOM      5  C   UNL     1       1.913   6.936  20.497  0.00  0.00    +0.000 A 
ATOM      6  C   UNL     1       2.381   7.233  19.217  0.00  0.00    +0.000 A 
ATOM      7  C   UNL     1       2.506   6.235  18.253  0.00  0.00    +0.000 A 
ATOM      8  C   UNL     1       2.157   4.915  18.548  0.00  0.00    +0.000 A 
ATOM      9 CL   UNL     1       2.309   3.784  17.256  0.00  0.00    +0.000 Cl
ATOM     10  C   UNL     1       1.714   4.578  19.831  0.00  0.00    +0.000 A 
ATOM     11  C   UNL     1       1.623   5.604  20.810  0.00  0.00    +0.000 A 
BRANCH  10  12
ATOM     12  C   UNL     1       1.319   3.184  20.243  0.00  0.00    +0.000 C 
ATOM     13  F   UNL     1       0.940   3.014  21.537  0.00  0.00    +0.000 F 
ATOM     14  F   UNL     1       0.288   2.707  19.491  0.00  0.00    +0.000 F 
ATOM     15  F   UNL     1       2.342   2.296  20.054  0.00  0.00    +0.000 F 
ENDBRANCH  10  12
ENDBRANCH   3   5
BRANCH   1  16
ATOM     16  O   UNL     1       0.899   9.848  22.335  0.00  0.00    +0.000 OA
BRANCH  16  24
ATOM     17  C   UNL     1      -2.420  15.251  20.807  0.00  0.00    +0.000 C 
ATOM     18  N   UNL     1      -2.529  14.306  21.915  0.00  0.00    +0.000 N 
ATOM     19  C   UNL     1      -3.811  14.267  22.615  0.00  0.00    +0.000 C 
ATOM     20  C   UNL     1      -3.656  13.603  23.973  0.00  0.00    +0.000 C 
ATOM     21  C   UNL     1      -3.165  12.175  23.787  0.00  0.00    +0.000 C 
ATOM     22  C   UNL     1      -1.975  12.113  22.862  0.00  0.00    +0.000 A 
ATOM     23  C   UNL     1      -1.125  10.987  22.930  0.00  0.00    +0.000 A 
ATOM     24  C   UNL     1      -0.017  10.898  22.091  0.00  0.00    +0.000 A 
ATOM     25  C   UNL     1       0.226  11.909  21.166  0.00  0.00    +0.000 A 
ATOM     26  C   UNL     1      -0.628  13.010  21.086  0.00  0.00    +0.000 A 
ATOM     27  C   UNL     1      -1.737  13.154  21.933  0.00  0.00    +0.000 A 
ENDBRANCH  16  24
ENDBRANCH   1  16
TORSDOF 4
ENDMDL
MODEL 2
REMARK VINA RESULT:      -8.2      2.980      3.756
REMARK  Name = 
REMARK  5 active torsions:
REMARK  status: ('A' for Active; 'I' for Inactive)
REMARK    1  A    between atoms: C_1  and  N_2
REMARK    2  A    between atoms: C_8  and  O_9
REMARK    3  A    between atoms: O_9  and  C_10
REMARK    4  A    between atoms: N_12  and  C_13
REMARK    5  A    between atoms: C_18  and  C_19
REMARK                            x       y       z     vdW  Elec       q    Type
REMARK                         _______ _______ _______ _____ _____    ______ ____
ROOT
ATOM      1  C   UNL     1       2.435   8.104  18.588  0.00  0.00    +0.000 C 
ATOM      2  O   UNL     1       1.865   7.834  19.639  0.00  0.00    +0.000 OA
ATOM      3  N   UNL     1       3.283   7.268  17.895  0.00  0.00    +0.000 N 
ATOM      4  H   UNL     1       3.909   7.707  17.238  0.00  0.00    +0.000 HD
ENDROOT
BRANCH   3   5
ATOM      5  C   UNL     1       3.290   5.862  18.024  0.00  0.00    +0.000 A 
ATOM      6  C   UNL     1       4.285   5.081  17.436  0.00  0.00    +0.000 A 
ATOM      7  C   UNL     1       4.277   3.694  17.573  0.00  0.00    +0.000 A 
ATOM      8  C   UNL     1       3.267   3.058  18.297  0.00  0.00    +0.000 A 
ATOM      9 CL   UNL     1       3.342   1.337  18.350  0.00  0.00    +0.000 Cl
ATOM     10  C   UNL     1       2.273   3.814  18.926  0.00  0.00    +0.000 A 
ATOM     11  C   UNL     1       2.315   5.229  18.802  0.00  0.00    +0.000 A 
BRANCH  10  12
ATOM     12  C   UNL     1       1.148   3.218  19.731  0.00  0.00    +0.000 C 
ATOM     13  F   UNL     1       1.496   2.381  20.742  0.00  0.00    +0.000 F 
ATOM     14  F   UNL     1       0.369   4.180  20.300  0.00  0.00    +0.000 F 
ATOM     15  F   UNL     1       0.299   2.489  18.944  0.00  0.00    +0.000 F 
ENDBRANCH  10  12
ENDBRANCH   3   5
BRANCH   1  16
ATOM     16  O   UNL     1       2.279   9.305  17.905  0.00  0.00    +0.000 OA
BRANCH  16  24
ATOM     17  C   UNL     1      -2.685  12.826  20.251  0.00  0.00    +0.000 C 
ATOM     18  N   UNL     1      -2.626  11.698  19.325  0.00  0.00    +0.000 N 
ATOM     19  C   UNL     1      -3.768  11.529  18.430  0.00  0.00    +0.000 C 
ATOM     20  C   UNL     1      -3.792  10.122  17.859  0.00  0.00    +0.000 C 
ATOM     21  C   UNL     1      -2.519   9.873  17.066  0.00  0.00    +0.000 C 
ATOM     22  C   UNL     1      -1.290  10.266  17.850  0.00  0.00    +0.000 A 
ATOM     23  C   UNL     1      -0.048   9.702  17.486  0.00  0.00    +0.000 A 
ATOM     24  C   UNL     1       1.105  10.041  18.189  0.00  0.00    +0.000 A 
ATOM     25  C   UNL     1       1.028  10.963  19.229  0.00  0.00    +0.000 A 
ATOM     26  C   UNL     1      -0.198  11.535  19.572  0.00  0.00    +0.000 A 
ATOM     27  C   UNL     1      -1.388  11.198  18.911  0.00  0.00    +0.000 A 
ENDBRANCH  16  24
ENDBRANCH   1  16
TORSDOF 4
ENDMDL
MODEL 3
REMARK VINA RESULT:      -8.1      2.592      3.301
REMARK  Name = 
REMARK  5 active torsions:
REMARK  status: ('A' for Active; 'I' for Inactive)
REMARK    1  A    between atoms: C_1  and  N_2
REMARK    2  A    between atoms: C_8  and  O_9
REMARK    3  A    between atoms: O_9  and  C_10
REMARK    4  A    between atoms: N_12  and  C_13
REMARK    5  A    between atoms: C_18  and  C_19
REMARK                            x       y       z     vdW  Elec       q    Type
REMARK                         _______ _______ _______ _____ _____    ______ ____
ROOT
ATOM      1  C   UNL     1       2.224   8.190  18.732  0.00  0.00    +0.000 C 
ATOM      2  O   UNL     1       1.871   7.865  19.859  0.00  0.00    +0.000 OA
ATOM      3  N   UNL     1       2.982   7.422  17.874  0.00  0.00    +0.000 N 
ATOM      4  H   UNL     1       3.452   7.913  17.129  0.00  0.00    +0.000 HD
ENDROOT
BRANCH   3   5
ATOM      5  C   UNL     1       3.096   6.018  17.959  0.00  0.00    +0.000 A 
ATOM      6  C   UNL     1       4.149   5.334  17.351  0.00  0.00    +0.000 A 
ATOM      7  C   UNL     1       4.247   3.947  17.445  0.00  0.00    +0.000 A 
ATOM      8  C   UNL     1       3.287   3.213  18.144  0.00  0.00    +0.000 A 
ATOM      9 CL   UNL     1       3.494   1.502  18.143  0.00  0.00    +0.000 Cl
ATOM     10  C   UNL     1       2.237   3.871  18.792  0.00  0.00    +0.000 A 
ATOM     11  C   UNL     1       2.171   5.288  18.712  0.00  0.00    +0.000 A 
BRANCH  10  12
ATOM     12  C   UNL     1       1.158   3.165  19.572  0.00  0.00    +0.000 C 
ATOM     13  F   UNL     1       0.306   2.379  18.863  0.00  0.00    +0.000 F 
ATOM     14  F   UNL     1       1.679   2.364  20.543  0.00  0.00    +0.000 F 
ATOM     15  F   UNL     1       0.354   4.053  20.233  0.00  0.00    +0.000 F 
ENDBRANCH  10  12
ENDBRANCH   3   5
BRANCH   1  16
ATOM     16  O   UNL     1       1.876   9.391  18.123  0.00  0.00    +0.000 OA
BRANCH  16  24
ATOM     17  C   UNL     1      -4.269  11.557  18.407  0.00  0.00    +0.000 C 
ATOM     18  N   UNL     1      -3.040  11.985  19.070  0.00  0.00    +0.000 N 
ATOM     19  C   UNL     1      -3.198  12.749  20.306  0.00  0.00    +0.000 C 
ATOM     20  C   UNL     1      -1.915  13.492  20.638  0.00  0.00    +0.000 C 
ATOM     21  C   UNL     1      -0.785  12.494  20.831  0.00  0.00    +0.000 C 
ATOM     22  C   UNL     1      -0.719  11.503  19.694  0.00  0.00    +0.000 A 
ATOM     23  C   UNL     1       0.495  10.819  19.464  0.00  0.00    +0.000 A 
ATOM     24  C   UNL     1       0.591   9.899  18.424  0.00  0.00    +0.000 A 
ATOM     25  C   UNL     1      -0.526   9.636  17.636  0.00  0.00    +0.000 A 
ATOM     26  C   UNL     1      -1.730  10.298  17.879  0.00  0.00    +0.000 A 
ATOM     27  C   UNL     1      -1.861  11.254  18.897  0.00  0.00    +0.000 A 
ENDBRANCH  16  24
ENDBRANCH   1  16
TORSDOF 4
ENDMDL
MODEL 4
REMARK VINA RESULT:      -8.1      2.907      3.615
REMARK  Name = 
REMARK  5 active torsions:
REMARK  status: ('A' for Active; 'I' for Inactive)
REMARK    1  A    between atoms: C_1  and  N_2
REMARK    2  A    between atoms: C_8  and  O_9
REMARK    3  A    between atoms: O_9  and  C_10
REMARK    4  A    between atoms: N_12  and  C_13
REMARK    5  A    between atoms: C_18  and  C_19
REMARK                            x       y       z     vdW  Elec       q    Type
REMARK                         _______ _______ _______ _____ _____    ______ ____
ROOT
ATOM      1  C   UNL     1       1.637   8.392  20.019  0.00  0.00    +0.000 C 
ATOM      2  O   UNL     1       0.966   8.035  20.980  0.00  0.00    +0.000 OA
ATOM      3  N   UNL     1       2.414   7.571  19.232  0.00  0.00    +0.000 N 
ATOM      4  H   UNL     1       3.136   8.021  18.689  0.00  0.00    +0.000 HD
ENDROOT
BRANCH   3   5
ATOM      5  C   UNL     1       2.229   6.177  19.117  0.00  0.00    +0.000 A 
ATOM      6  C   UNL     1       2.004   5.570  17.880  0.00  0.00    +0.000 A 
ATOM      7  C   UNL     1       1.823   4.192  17.784  0.00  0.00    +0.000 A 
ATOM      8  C   UNL     1       1.856   3.390  18.927  0.00  0.00    +0.000 A 
ATOM      9 CL   UNL     1       1.569   1.709  18.680  0.00  0.00    +0.000 Cl
ATOM     10  C   UNL     1       2.111   3.962  20.177  0.00  0.00    +0.000 A 
ATOM     11  C   UNL     1       2.324   5.365  20.252  0.00  0.00    +0.000 A 
BRANCH  10  12
ATOM     12  C   UNL     1       2.170   3.179  21.463  0.00  0.00    +0.000 C 
ATOM     13  F   UNL     1       3.111   2.203  21.541  0.00  0.00    +0.000 F 
ATOM     14  F   UNL     1       2.386   3.987  22.538  0.00  0.00    +0.000 F 
ATOM     15  F   UNL     1       0.984   2.548  21.721  0.00  0.00    +0.000 F 
ENDBRANCH  10  12
ENDBRANCH   3   5
BRANCH   1  16
ATOM     16  O   UNL     1       1.686   9.699  19.547  0.00  0.00    +0.000 OA
BRANCH  16  24
ATOM     17  C   UNL     1      -4.147  12.617  19.524  0.00  0.00    +0.000 C 
ATOM     18  N   UNL     1      -3.546  11.606  18.659  0.00  0.00    +0.000 N 
ATOM     19  C   UNL     1      -4.121  11.466  17.323  0.00  0.00    +0.000 C 
ATOM     20  C   UNL     1      -3.727  10.133  16.711  0.00  0.00    +0.000 C 
ATOM     21  C   UNL     1      -2.212  10.055  16.594  0.00  0.00    +0.000 C 
ATOM     22  C   UNL     1      -1.535  10.434  17.888  0.00  0.00    +0.000 A 
ATOM     23  C   UNL     1      -0.212   9.994  18.113  0.00  0.00    +0.000 A 
ATOM     24  C   UNL     1       0.442  10.324  19.296  0.00  0.00    +0.000 A 
ATOM     25  C   UNL     1      -0.205  11.117  20.239  0.00  0.00    +0.000 A 
ATOM     26  C   UNL     1      -1.505  11.569  20.005  0.00  0.00    +0.000 A 
ATOM     27  C   UNL     1      -2.211  11.234  18.841  0.00  0.00    +0.000 A 
ENDBRANCH  16  24
ENDBRANCH   1  16
TORSDOF 4
ENDMDL
MODEL 5
REMARK VINA RESULT:      -8.0      2.713      3.563
REMARK  Name = 
REMARK  5 active torsions:
REMARK  status: ('A' for Active; 'I' for Inactive)
REMARK    1  A    between atoms: C_1  and  N_2
REMARK    2  A    between atoms: C_8  and  O_9
REMARK    3  A    between atoms: O_9  and  C_10
REMARK    4  A    between atoms: N_12  and  C_13
REMARK    5  A    between atoms: C_18  and  C_19
REMARK                            x       y       z     vdW  Elec       q    Type
REMARK                         _______ _______ _______ _____ _____    ______ ____
ROOT
ATOM      1  C   UNL     1       2.452   8.036  18.309  0.00  0.00    +0.000 C 
ATOM      2  O   UNL     1       2.207   7.852  19.495  0.00  0.00    +0.000 OA
ATOM      3  N   UNL     1       3.114   7.158  17.478  0.00  0.00    +0.000 N 
ATOM      4  H   UNL     1       3.514   7.548  16.639  0.00  0.00    +0.000 HD
ENDROOT
BRANCH   3   5
ATOM      5  C   UNL     1       3.220   5.771  17.716  0.00  0.00    +0.000 A 
ATOM      6  C   UNL     1       4.311   5.033  17.256  0.00  0.00    +0.000 A 
ATOM      7  C   UNL     1       4.400   3.664  17.499  0.00  0.00    +0.000 A 
ATOM      8  C   UNL     1       3.393   3.001  18.202  0.00  0.00    +0.000 A 
ATOM      9 CL   UNL     1       3.597   1.300  18.392  0.00  0.00    +0.000 Cl
ATOM     10  C   UNL     1       2.302   3.716  18.704  0.00  0.00    +0.000 A 
ATOM     11  C   UNL     1       2.243   5.117  18.474  0.00  0.00    +0.000 A 
BRANCH  10  12
ATOM     12  C   UNL     1       1.170   3.089  19.477  0.00  0.00    +0.000 C 
ATOM     13  F   UNL     1       1.512   2.217  20.461  0.00  0.00    +0.000 F 
ATOM     14  F   UNL     1       0.384   4.028  20.073  0.00  0.00    +0.000 F 
ATOM     15  F   UNL     1       0.331   2.385  18.657  0.00  0.00    +0.000 F 
ENDBRANCH  10  12
ENDBRANCH   3   5
BRANCH   1  16
ATOM     16  O   UNL     1       2.060   9.167  17.600  0.00  0.00    +0.000 OA
BRANCH  16  24
ATOM     17  C   UNL     1      -3.371  12.277  19.432  0.00  0.00    +0.000 C 
ATOM     18  N   UNL     1      -1.967  12.680  19.397  0.00  0.00    +0.000 N 
ATOM     19  C   UNL     1      -1.586  13.790  20.267  0.00  0.00    +0.000 C 
ATOM     20  C   UNL     1      -0.259  14.382  19.822  0.00  0.00    +0.000 C 
ATOM     21  C   UNL     1       0.824  13.317  19.898  0.00  0.00    +0.000 C 
ATOM     22  C   UNL     1       0.393  12.038  19.224  0.00  0.00    +0.000 A 
ATOM     23  C   UNL     1       1.387  11.130  18.798  0.00  0.00    +0.000 A 
ATOM     24  C   UNL     1       1.025   9.940  18.173  0.00  0.00    +0.000 A 
ATOM     25  C   UNL     1      -0.323   9.639  18.001  0.00  0.00    +0.000 A 
ATOM     26  C   UNL     1      -1.305  10.528  18.442  0.00  0.00    +0.000 A 
ATOM     27  C   UNL     1      -0.983  11.751  19.050  0.00  0.00    +0.000 A 
ENDBRANCH  16  24
ENDBRANCH   1  16
TORSDOF 4
ENDMDL
MODEL 6
REMARK VINA RESULT:      -7.9      5.225      7.683
REMARK  Name = 
REMARK  5 active torsions:
REMARK  status: ('A' for Active; 'I' for Inactive)
REMARK    1  A    between atoms: C_1  and  N_2
REMARK    2  A    between atoms: C_8  and  O_9
REMARK    3  A    between atoms: O_9  and  C_10
REMARK    4  A    between atoms: N_12  and  C_13
REMARK    5  A    between atoms: C_18  and  C_19
REMARK                            x       y       z     vdW  Elec       q    Type
REMARK                         _______ _______ _______ _____ _____    ______ ____
ROOT
ATOM      1  C   UNL     1       3.501   3.541  17.373  0.00  0.00    +0.000 C 
ATOM      2  O   UNL     1       2.778   3.518  16.383  0.00  0.00    +0.000 OA
ATOM      3  N   UNL     1       4.878   3.566  17.362  0.00  0.00    +0.000 N 
ATOM      4  H   UNL     1       5.339   3.275  18.211  0.00  0.00    +0.000 HD
ENDROOT
BRANCH   3   5
ATOM      5  C   UNL     1       5.654   4.005  16.268  0.00  0.00    +0.000 A 
ATOM      6  C   UNL     1       6.733   4.873  16.442  0.00  0.00    +0.000 A 
ATOM      7  C   UNL     1       7.489   5.298  15.351  0.00  0.00    +0.000 A 
ATOM      8  C   UNL     1       7.177   4.868  14.060  0.00  0.00    +0.000 A 
ATOM      9 CL   UNL     1       8.156   5.505  12.792  0.00  0.00    +0.000 Cl
ATOM     10  C   UNL     1       6.122   3.974  13.855  0.00  0.00    +0.000 A 
ATOM     11  C   UNL     1       5.382   3.527  14.983  0.00  0.00    +0.000 A 
BRANCH  10  12
ATOM     12  C   UNL     1       5.713   3.453  12.502  0.00  0.00    +0.000 C 
ATOM     13  F   UNL     1       6.344   3.988  11.425  0.00  0.00    +0.000 F 
ATOM     14  F   UNL     1       5.895   2.106  12.404  0.00  0.00    +0.000 F 
ATOM     15  F   UNL     1       4.381   3.653  12.268  0.00  0.00    +0.000 F 
ENDBRANCH  10  12
ENDBRANCH   3   5
BRANCH   1  16
ATOM     16  O   UNL     1       3.029   3.584  18.680  0.00  0.00    +0.000 OA
BRANCH  16  24
ATOM     17  C   UNL     1       0.864   8.914  21.752  0.00  0.00    +0.000 C 
ATOM     18  N   UNL     1       1.196   8.647  20.355  0.00  0.00    +0.000 N 
ATOM     19  C   UNL     1       1.504   9.809  19.524  0.00  0.00    +0.000 C 
ATOM     20  C   UNL     1       1.394   9.454  18.051  0.00  0.00    +0.000 C 
ATOM     21  C   UNL     1       2.384   8.348  17.719  0.00  0.00    +0.000 C 
ATOM     22  C   UNL     1       2.291   7.206  18.701  0.00  0.00    +0.000 A 
ATOM     23  C   UNL     1       2.776   5.939  18.310  0.00  0.00    +0.000 A 
ATOM     24  C   UNL     1       2.706   4.862  19.191  0.00  0.00    +0.000 A 
ATOM     25  C   UNL     1       2.185   5.054  20.467  0.00  0.00    +0.000 A 
ATOM     26  C   UNL     1       1.725   6.312  20.858  0.00  0.00    +0.000 A 
ATOM     27  C   UNL     1       1.750   7.416  19.992  0.00  0.00    +0.000 A 
ENDBRANCH  16  24
ENDBRANCH   1  16
TORSDOF 4
ENDMDL
MODEL 7
REMARK VINA RESULT:      -7.9      0.968      1.513
REMARK  Name = 
REMARK  5 active torsions:
REMARK  status: ('A' for Active; 'I' for Inactive)
REMARK    1  A    between atoms: C_1  and  N_2
REMARK    2  A    between atoms: C_8  and  O_9
REMARK    3  A    between atoms: O_9  and  C_10
REMARK    4  A    between atoms: N_12  and  C_13
REMARK    5  A    between atoms: C_18  and  C_19
REMARK                            x       y       z     vdW  Elec       q    Type
REMARK                         _______ _______ _______ _____ _____    ______ ____
ROOT
ATOM      1  C   UNL     1       0.653   8.604  21.667  0.00  0.00    +0.000 C 
ATOM      2  O   UNL     1      -0.481   8.242  21.373  0.00  0.00    +0.000 OA
ATOM      3  N   UNL     1       1.811   7.898  21.422  0.00  0.00    +0.000 N 
ATOM      4  H   UNL     1       2.616   8.150  21.975  0.00  0.00    +0.000 HD
ENDROOT
BRANCH   3   5
ATOM      5  C   UNL     1       1.934   6.897  20.434  0.00  0.00    +0.000 A 
ATOM      6  C   UNL     1       2.393   7.193  19.150  0.00  0.00    +0.000 A 
ATOM      7  C   UNL     1       2.510   6.194  18.187  0.00  0.00    +0.000 A 
ATOM      8  C   UNL     1       2.162   4.875  18.486  0.00  0.00    +0.000 A 
ATOM      9 CL   UNL     1       2.303   3.743  17.194  0.00  0.00    +0.000 Cl
ATOM     10  C   UNL     1       1.729   4.539  19.772  0.00  0.00    +0.000 A 
ATOM     11  C   UNL     1       1.646   5.566  20.751  0.00  0.00    +0.000 A 
BRANCH  10  12
ATOM     12  C   UNL     1       1.336   3.146  20.189  0.00  0.00    +0.000 C 
ATOM     13  F   UNL     1       2.276   2.176  20.041  0.00  0.00    +0.000 F 
ATOM     14  F   UNL     1       0.959   3.097  21.497  0.00  0.00    +0.000 F 
ATOM     15  F   UNL     1       0.252   2.698  19.486  0.00  0.00    +0.000 F 
ENDBRANCH  10  12
ENDBRANCH   3   5
BRANCH   1  16
ATOM     16  O   UNL     1       0.949   9.821  22.271  0.00  0.00    +0.000 OA
BRANCH  16  24
ATOM     17  C   UNL     1      -0.306  15.292  18.951  0.00  0.00    +0.000 C 
ATOM     18  N   UNL     1      -0.798  14.777  20.226  0.00  0.00    +0.000 N 
ATOM     19  C   UNL     1      -2.070  15.316  20.700  0.00  0.00    +0.000 C 
ATOM     20  C   UNL     1      -2.240  15.050  22.186  0.00  0.00    +0.000 C 
ATOM     21  C   UNL     1      -2.229  13.550  22.438  0.00  0.00    +0.000 C 
ATOM     22  C   UNL     1      -1.059  12.881  21.759  0.00  0.00    +0.000 A 
ATOM     23  C   UNL     1      -0.630  11.623  22.237  0.00  0.00    +0.000 A 
ATOM     24  C   UNL     1       0.446  10.978  21.634  0.00  0.00    +0.000 A 
ATOM     25  C   UNL     1       1.072  11.567  20.539  0.00  0.00    +0.000 A 
ATOM     26  C   UNL     1       0.632  12.800  20.055  0.00  0.00    +0.000 A 
ATOM     27  C   UNL     1      -0.428  13.498  20.652  0.00  0.00    +0.000 A 
ENDBRANCH  16  24
ENDBRANCH   1  16
TORSDOF 4
ENDMDL
MODEL 8
REMARK VINA RESULT:      -7.9      0.701      1.731
REMARK  Name = 
REMARK  5 active torsions:
REMARK  status: ('A' for Active; 'I' for Inactive)
REMARK    1  A    between atoms: C_1  and  N_2
REMARK    2  A    between atoms: C_8  and  O_9
REMARK    3  A    between atoms: O_9  and  C_10
REMARK    4  A    between atoms: N_12  and  C_13
REMARK    5  A    between atoms: C_18  and  C_19
REMARK                            x       y       z     vdW  Elec       q    Type
REMARK                         _______ _______ _______ _____ _____    ______ ____
ROOT
ATOM      1  C   UNL     1       0.891   8.999  20.901  0.00  0.00    +0.000 C 
ATOM      2  O   UNL     1       0.015   9.053  20.046  0.00  0.00    +0.000 OA
ATOM      3  N   UNL     1       1.681   7.903  21.175  0.00  0.00    +0.000 N 
ATOM      4  H   UNL     1       2.129   7.887  22.078  0.00  0.00    +0.000 HD
ENDROOT
BRANCH   3   5
ATOM      5  C   UNL     1       1.922   6.853  20.263  0.00  0.00    +0.000 A 
ATOM      6  C   UNL     1       2.542   7.081  19.035  0.00  0.00    +0.000 A 
ATOM      7  C   UNL     1       2.772   6.033  18.146  0.00  0.00    +0.000 A 
ATOM      8  C   UNL     1       2.379   4.732  18.466  0.00  0.00    +0.000 A 
ATOM      9 CL   UNL     1       2.675   3.534  17.262  0.00  0.00    +0.000 Cl
ATOM     10  C   UNL     1       1.784   4.463  19.702  0.00  0.00    +0.000 A 
ATOM     11  C   UNL     1       1.586   5.540  20.609  0.00  0.00    +0.000 A 
BRANCH  10  12
ATOM     12  C   UNL     1       1.331   3.094  20.137  0.00  0.00    +0.000 C 
ATOM     13  F   UNL     1       0.865   2.979  21.407  0.00  0.00    +0.000 F 
ATOM     14  F   UNL     1       0.340   2.611  19.335  0.00  0.00    +0.000 F 
ATOM     15  F   UNL     1       2.343   2.178  20.047  0.00  0.00    +0.000 F 
ENDBRANCH  10  12
ENDBRANCH   3   5
BRANCH   1  16
ATOM     16  O   UNL     1       1.251  10.067  21.715  0.00  0.00    +0.000 OA
BRANCH  16  24
ATOM     17  C   UNL     1      -4.123  13.064  23.876  0.00  0.00    +0.000 C 
ATOM     18  N   UNL     1      -3.206  13.354  22.778  0.00  0.00    +0.000 N 
ATOM     19  C   UNL     1      -3.187  14.731  22.290  0.00  0.00    +0.000 C 
ATOM     20  C   UNL     1      -2.556  14.799  20.910  0.00  0.00    +0.000 C 
ATOM     21  C   UNL     1      -1.123  14.294  20.982  0.00  0.00    +0.000 C 
ATOM     22  C   UNL     1      -1.034  12.972  21.705  0.00  0.00    +0.000 A 
ATOM     23  C   UNL     1       0.092  12.152  21.476  0.00  0.00    +0.000 A 
ATOM     24  C   UNL     1       0.205  10.925  22.126  0.00  0.00    +0.000 A 
ATOM     25  C   UNL     1      -0.783  10.532  23.024  0.00  0.00    +0.000 A 
ATOM     26  C   UNL     1      -1.884  11.354  23.264  0.00  0.00    +0.000 A 
ATOM     27  C   UNL     1      -2.052  12.583  22.608  0.00  0.00    +0.000 A 
ENDBRANCH  16  24
ENDBRANCH   1  16
TORSDOF 4
ENDMDL
MODEL 9
REMARK VINA RESULT:      -7.9      3.080      3.853
REMARK  Name = 
REMARK  5 active torsions:
REMARK  status: ('A' for Active; 'I' for Inactive)
REMARK    1  A    between atoms: C_1  and  N_2
REMARK    2  A    between atoms: C_8  and  O_9
REMARK    3  A    between atoms: O_9  and  C_10
REMARK    4  A    between atoms: N_12  and  C_13
REMARK    5  A    between atoms: C_18  and  C_19
REMARK                            x       y       z     vdW  Elec       q    Type
REMARK                         _______ _______ _______ _____ _____    ______ ____
ROOT
ATOM      1  C   UNL     1       1.146   8.534  20.686  0.00  0.00    +0.000 C 
ATOM      2  O   UNL     1       0.248   8.098  21.396  0.00  0.00    +0.000 OA
ATOM      3  N   UNL     1       2.174   7.793  20.144  0.00  0.00    +0.000 N 
ATOM      4  H   UNL     1       2.991   8.305  19.852  0.00  0.00    +0.000 HD
ENDROOT
BRANCH   3   5
ATOM      5  C   UNL     1       2.123   6.396  19.945  0.00  0.00    +0.000 A 
ATOM      6  C   UNL     1       1.453   5.556  20.834  0.00  0.00    +0.000 A 
ATOM      7  C   UNL     1       1.413   4.180  20.623  0.00  0.00    +0.000 A 
ATOM      8  C   UNL     1       2.051   3.612  19.518  0.00  0.00    +0.000 A 
ATOM      9 CL   UNL     1       1.970   1.895  19.396  0.00  0.00    +0.000 Cl
ATOM     10  C   UNL     1       2.704   4.429  18.590  0.00  0.00    +0.000 A 
ATOM     11  C   UNL     1       2.707   5.834  18.805  0.00  0.00    +0.000 A 
BRANCH  10  12
ATOM     12  C   UNL     1       3.414   3.910  17.367  0.00  0.00    +0.000 C 
ATOM     13  F   UNL     1       4.418   3.019  17.576  0.00  0.00    +0.000 F 
ATOM     14  F   UNL     1       2.554   3.301  16.503  0.00  0.00    +0.000 F 
ATOM     15  F   UNL     1       3.985   4.924  16.649  0.00  0.00    +0.000 F 
ENDBRANCH  10  12
ENDBRANCH   3   5
BRANCH   1  16
ATOM     16  O   UNL     1       1.245   9.861  20.283  0.00  0.00    +0.000 OA
BRANCH  16  24
ATOM     17  C   UNL     1      -4.524  12.710  19.217  0.00  0.00    +0.000 C 
ATOM     18  N   UNL     1      -3.780  11.686  18.489  0.00  0.00    +0.000 N 
ATOM     19  C   UNL     1      -4.122  11.509  17.079  0.00  0.00    +0.000 C 
ATOM     20  C   UNL     1      -3.621  10.166  16.575  0.00  0.00    +0.000 C 
ATOM     21  C   UNL     1      -2.108  10.104  16.714  0.00  0.00    +0.000 C 
ATOM     22  C   UNL     1      -1.659  10.520  18.093  0.00  0.00    +0.000 A 
ATOM     23  C   UNL     1      -0.389  10.100  18.546  0.00  0.00    +0.000 A 
ATOM     24  C   UNL     1       0.056  10.465  19.813  0.00  0.00    +0.000 A 
ATOM     25  C   UNL     1      -0.746  11.272  20.615  0.00  0.00    +0.000 A 
ATOM     26  C   UNL     1      -1.991  11.704  20.157  0.00  0.00    +0.000 A 
ATOM     27  C   UNL     1      -2.491  11.334  18.900  0.00  0.00    +0.000 A 
ENDBRANCH  16  24
ENDBRANCH   1  16
TORSDOF 4
ENDMDL
