MODEL 1
REMARK VINA RESULT:      -7.4      0.000      0.000
REMARK  Name = 
REMARK  6 active torsions:
REMARK  status: ('A' for Active; 'I' for Inactive)
REMARK    1  A    between atoms: C_1  and  N_2
REMARK    2  A    between atoms: N_2  and  C_3
REMARK    3  A    between atoms: C_3  and  C_4
REMARK    4  A    between atoms: C_10  and  C_12
REMARK    5  A    between atoms: C_16  and  O_17
REMARK    6  A    between atoms: C_19  and  O_20
REMARK                            x       y       z     vdW  Elec       q    Type
REMARK                         _______ _______ _______ _____ _____    ______ ____
ROOT
ATOM      1  C   UNL     1       2.504   2.763  20.487  0.00  0.00    +0.000 C 
ATOM      2  N   UNL     1       3.193   3.499  19.440  0.00  0.00    +0.000 N 
ATOM      3  C   UNL     1       4.583   3.336  19.374  0.00  0.00    +0.000 C 
ATOM      4  O   UNL     1       5.165   2.522  20.091  0.00  0.00    +0.000 OA
ENDROOT
BRANCH   3   5
ATOM      5  C   UNL     1       5.428   4.046  18.376  0.00  0.00    +0.000 A 
ATOM      6  C   UNL     1       5.202   3.728  17.021  0.00  0.00    +0.000 A 
ATOM      7  C   UNL     1       5.945   4.344  16.019  0.00  0.00    +0.000 A 
ATOM      8 CL   UNL     1       5.698   3.905  14.369  0.00  0.00    +0.000 Cl
ATOM      9  C   UNL     1       6.903   5.303  16.351  0.00  0.00    +0.000 A 
ATOM     10  C   UNL     1       7.156   5.609  17.682  0.00  0.00    +0.000 A 
ATOM     11  C   UNL     1       6.454   4.946  18.691  0.00  0.00    +0.000 A 
BRANCH   9  12
ATOM     12  O   UNL     1       7.652   5.946  15.409  0.00  0.00    +0.000 OA
ATOM     13  H   UNL     1       7.204   6.789  15.205  0.00  0.00    +0.000 HD
ENDBRANCH   9  12
BRANCH  11  14
ATOM     14  O   UNL     1       6.819   5.173  19.987  0.00  0.00    +0.000 OA
ATOM     15  H   UNL     1       6.302   4.584  20.566  0.00  0.00    +0.000 HD
ENDBRANCH  11  14
ENDBRANCH   3   5
BRANCH   2  16
ATOM     16  C   UNL     1       2.335   4.275  18.533  0.00  0.00    +0.000 C 
BRANCH  16  17
ATOM     17  C   UNL     1       2.202   5.747  18.841  0.00  0.00    +0.000 A 
ATOM     18  C   UNL     1       1.904   6.188  20.137  0.00  0.00    +0.000 A 
ATOM     19  C   UNL     1       1.768   7.548  20.407  0.00  0.00    +0.000 A 
ATOM     20  C   UNL     1       1.952   8.484  19.390  0.00  0.00    +0.000 A 
ATOM     21  C   UNL     1       2.279   8.061  18.104  0.00  0.00    +0.000 A 
ATOM     22  C   UNL     1       2.412   6.699  17.831  0.00  0.00    +0.000 A 
ENDBRANCH  16  17
ENDBRANCH   2  16
TORSDOF 5
ENDMDL
MODEL 2
REMARK VINA RESULT:      -7.2      0.282      1.115
REMARK  Name = 
REMARK  6 active torsions:
REMARK  status: ('A' for Active; 'I' for Inactive)
REMARK    1  A    between atoms: C_1  and  N_2
REMARK    2  A    between atoms: N_2  and  C_3
REMARK    3  A    between atoms: C_3  and  C_4
REMARK    4  A    between atoms: C_10  and  C_12
REMARK    5  A    between atoms: C_16  and  O_17
REMARK    6  A    between atoms: C_19  and  O_20
REMARK                            x       y       z     vdW  Elec       q    Type
REMARK                         _______ _______ _______ _____ _____    ______ ____
ROOT
ATOM      1  C   UNL     1       2.434   3.172  20.487  0.00  0.00    +0.000 C 
ATOM      2  N   UNL     1       3.157   3.831  19.412  0.00  0.00    +0.000 N 
ATOM      3  C   UNL     1       4.531   3.564  19.329  0.00  0.00    +0.000 C 
ATOM      4  O   UNL     1       5.064   2.726  20.057  0.00  0.00    +0.000 OA
ENDROOT
BRANCH   3   5
ATOM      5  C   UNL     1       5.408   4.186  18.301  0.00  0.00    +0.000 A 
ATOM      6  C   UNL     1       5.138   3.852  16.958  0.00  0.00    +0.000 A 
ATOM      7  C   UNL     1       5.908   4.388  15.930  0.00  0.00    +0.000 A 
ATOM      8 CL   UNL     1       5.603   3.927  14.296  0.00  0.00    +0.000 Cl
ATOM      9  C   UNL     1       6.937   5.282  16.224  0.00  0.00    +0.000 A 
ATOM     10  C   UNL     1       7.234   5.602  17.543  0.00  0.00    +0.000 A 
ATOM     11  C   UNL     1       6.501   5.017  18.578  0.00  0.00    +0.000 A 
BRANCH   9  12
ATOM     12  O   UNL     1       7.716   5.846  15.255  0.00  0.00    +0.000 OA
ATOM     13  H   UNL     1       8.620   5.924  15.616  0.00  0.00    +0.000 HD
ENDBRANCH   9  12
BRANCH  11  14
ATOM     14  O   UNL     1       6.902   5.249  19.862  0.00  0.00    +0.000 OA
ATOM     15  H   UNL     1       6.486   4.588  20.445  0.00  0.00    +0.000 HD
ENDBRANCH  11  14
ENDBRANCH   3   5
BRANCH   2  16
ATOM     16  C   UNL     1       2.344   4.645  18.499  0.00  0.00    +0.000 C 
BRANCH  16  17
ATOM     17  C   UNL     1       2.160   6.093  18.885  0.00  0.00    +0.000 A 
ATOM     18  C   UNL     1       2.302   7.116  17.938  0.00  0.00    +0.000 A 
ATOM     19  C   UNL     1       2.145   8.450  18.309  0.00  0.00    +0.000 A 
ATOM     20  C   UNL     1       1.819   8.775  19.624  0.00  0.00    +0.000 A 
ATOM     21  C   UNL     1       1.644   7.767  20.569  0.00  0.00    +0.000 A 
ATOM     22  C   UNL     1       1.805   6.431  20.201  0.00  0.00    +0.000 A 
ENDBRANCH  16  17
ENDBRANCH   2  16
TORSDOF 5
ENDMDL
MODEL 3
REMARK VINA RESULT:      -7.0      1.352      1.659
REMARK  Name = 
REMARK  6 active torsions:
REMARK  status: ('A' for Active; 'I' for Inactive)
REMARK    1  A    between atoms: C_1  and  N_2
REMARK    2  A    between atoms: N_2  and  C_3
REMARK    3  A    between atoms: C_3  and  C_4
REMARK    4  A    between atoms: C_10  and  C_12
REMARK    5  A    between atoms: C_16  and  O_17
REMARK    6  A    between atoms: C_19  and  O_20
REMARK                            x       y       z     vdW  Elec       q    Type
REMARK                         _______ _______ _______ _____ _____    ______ ____
ROOT
ATOM      1  C   UNL     1       1.113   4.280  20.056  0.00  0.00    +0.000 C 
ATOM      2  N   UNL     1       2.402   4.643  19.491  0.00  0.00    +0.000 N 
ATOM      3  C   UNL     1       2.904   3.801  18.488  0.00  0.00    +0.000 C 
ATOM      4  O   UNL     1       2.230   2.875  18.036  0.00  0.00    +0.000 OA
ENDROOT
BRANCH   3   5
ATOM      5  C   UNL     1       4.222   4.027  17.836  0.00  0.00    +0.000 A 
ATOM      6  C   UNL     1       4.220   4.108  16.428  0.00  0.00    +0.000 A 
ATOM      7  C   UNL     1       5.407   4.318  15.733  0.00  0.00    +0.000 A 
ATOM      8 CL   UNL     1       5.400   4.359  14.008  0.00  0.00    +0.000 Cl
ATOM      9  C   UNL     1       6.605   4.478  16.431  0.00  0.00    +0.000 A 
ATOM     10  C   UNL     1       6.628   4.376  17.817  0.00  0.00    +0.000 A 
ATOM     11  C   UNL     1       5.447   4.103  18.510  0.00  0.00    +0.000 A 
BRANCH   9  12
ATOM     12  O   UNL     1       7.796   4.698  15.802  0.00  0.00    +0.000 OA
ATOM     13  H   UNL     1       7.737   4.292  14.916  0.00  0.00    +0.000 HD
ENDBRANCH   9  12
BRANCH  11  14
ATOM     14  O   UNL     1       5.526   3.877  19.854  0.00  0.00    +0.000 OA
ATOM     15  H   UNL     1       5.754   4.714  20.300  0.00  0.00    +0.000 HD
ENDBRANCH  11  14
ENDBRANCH   3   5
BRANCH   2  16
ATOM     16  C   UNL     1       2.992   5.892  19.993  0.00  0.00    +0.000 C 
BRANCH  16  17
ATOM     17  C   UNL     1       2.352   7.171  19.509  0.00  0.00    +0.000 A 
ATOM     18  C   UNL     1       1.635   7.995  20.386  0.00  0.00    +0.000 A 
ATOM     19  C   UNL     1       1.035   9.165  19.925  0.00  0.00    +0.000 A 
ATOM     20  C   UNL     1       1.167   9.538  18.589  0.00  0.00    +0.000 A 
ATOM     21  C   UNL     1       1.903   8.744  17.713  0.00  0.00    +0.000 A 
ATOM     22  C   UNL     1       2.501   7.570  18.171  0.00  0.00    +0.000 A 
ENDBRANCH  16  17
ENDBRANCH   2  16
TORSDOF 5
ENDMDL
MODEL 4
REMARK VINA RESULT:      -7.0      2.812      5.071
REMARK  Name = 
REMARK  6 active torsions:
REMARK  status: ('A' for Active; 'I' for Inactive)
REMARK    1  A    between atoms: C_1  and  N_2
REMARK    2  A    between atoms: N_2  and  C_3
REMARK    3  A    between atoms: C_3  and  C_4
REMARK    4  A    between atoms: C_10  and  C_12
REMARK    5  A    between atoms: C_16  and  O_17
REMARK    6  A    between atoms: C_19  and  O_20
REMARK                            x       y       z     vdW  Elec       q    Type
REMARK                         _______ _______ _______ _____ _____    ______ ____
ROOT
ATOM      1  C   UNL     1       3.705   1.848  17.799  0.00  0.00    +0.000 C 
ATOM      2  N   UNL     1       3.632   3.130  18.478  0.00  0.00    +0.000 N 
ATOM      3  C   UNL     1       2.395   3.788  18.440  0.00  0.00    +0.000 C 
ATOM      4  O   UNL     1       1.399   3.248  17.957  0.00  0.00    +0.000 OA
ENDROOT
BRANCH   3   5
ATOM      5  C   UNL     1       2.174   5.120  19.064  0.00  0.00    +0.000 A 
ATOM      6  C   UNL     1       2.363   6.243  18.233  0.00  0.00    +0.000 A 
ATOM      7  C   UNL     1       2.178   7.529  18.732  0.00  0.00    +0.000 A 
ATOM      8 CL   UNL     1       2.465   8.896  17.720  0.00  0.00    +0.000 Cl
ATOM      9  C   UNL     1       1.777   7.712  20.056  0.00  0.00    +0.000 A 
ATOM     10  C   UNL     1       1.613   6.617  20.896  0.00  0.00    +0.000 A 
ATOM     11  C   UNL     1       1.858   5.330  20.413  0.00  0.00    +0.000 A 
BRANCH   9  12
ATOM     12  O   UNL     1       1.570   8.948  20.595  0.00  0.00    +0.000 OA
ATOM     13  H   UNL     1       1.842   8.908  21.531  0.00  0.00    +0.000 HD
ENDBRANCH   9  12
BRANCH  11  14
ATOM     14  O   UNL     1       1.816   4.291  21.297  0.00  0.00    +0.000 OA
ATOM     15  H   UNL     1       2.118   4.607  22.167  0.00  0.00    +0.000 HD
ENDBRANCH  11  14
ENDBRANCH   3   5
BRANCH   2  16
ATOM     16  C   UNL     1       4.851   3.551  19.183  0.00  0.00    +0.000 C 
BRANCH  16  17
ATOM     17  C   UNL     1       5.708   4.574  18.477  0.00  0.00    +0.000 A 
ATOM     18  C   UNL     1       6.648   5.338  19.182  0.00  0.00    +0.000 A 
ATOM     19  C   UNL     1       7.422   6.290  18.523  0.00  0.00    +0.000 A 
ATOM     20  C   UNL     1       7.284   6.472  17.148  0.00  0.00    +0.000 A 
ATOM     21  C   UNL     1       6.377   5.698  16.429  0.00  0.00    +0.000 A 
ATOM     22  C   UNL     1       5.597   4.747  17.088  0.00  0.00    +0.000 A 
ENDBRANCH  16  17
ENDBRANCH   2  16
TORSDOF 5
ENDMDL
MODEL 5
REMARK VINA RESULT:      -7.0      2.823      5.176
REMARK  Name = 
REMARK  6 active torsions:
REMARK  status: ('A' for Active; 'I' for Inactive)
REMARK    1  A    between atoms: C_1  and  N_2
REMARK    2  A    between atoms: N_2  and  C_3
REMARK    3  A    between atoms: C_3  and  C_4
REMARK    4  A    between atoms: C_10  and  C_12
REMARK    5  A    between atoms: C_16  and  O_17
REMARK    6  A    between atoms: C_19  and  O_20
REMARK                            x       y       z     vdW  Elec       q    Type
REMARK                         _______ _______ _______ _____ _____    ______ ____
ROOT
ATOM      1  C   UNL     1       3.686   1.912  17.725  0.00  0.00    +0.000 C 
ATOM      2  N   UNL     1       3.611   3.182  18.428  0.00  0.00    +0.000 N 
ATOM      3  C   UNL     1       2.376   3.844  18.392  0.00  0.00    +0.000 C 
ATOM      4  O   UNL     1       1.384   3.316  17.890  0.00  0.00    +0.000 OA
ENDROOT
BRANCH   3   5
ATOM      5  C   UNL     1       2.155   5.165  19.040  0.00  0.00    +0.000 A 
ATOM      6  C   UNL     1       2.343   6.303  18.229  0.00  0.00    +0.000 A 
ATOM      7  C   UNL     1       2.157   7.579  18.752  0.00  0.00    +0.000 A 
ATOM      8 CL   UNL     1       2.445   8.964  17.765  0.00  0.00    +0.000 Cl
ATOM      9  C   UNL     1       1.755   7.737  20.079  0.00  0.00    +0.000 A 
ATOM     10  C   UNL     1       1.590   6.628  20.898  0.00  0.00    +0.000 A 
ATOM     11  C   UNL     1       1.837   5.350  20.392  0.00  0.00    +0.000 A 
BRANCH   9  12
ATOM     12  O   UNL     1       1.546   8.964  20.640  0.00  0.00    +0.000 OA
ATOM     13  H   UNL     1       2.312   9.524  20.410  0.00  0.00    +0.000 HD
ENDBRANCH   9  12
BRANCH  11  14
ATOM     14  O   UNL     1       1.794   4.294  21.257  0.00  0.00    +0.000 OA
ATOM     15  H   UNL     1       1.227   4.531  22.013  0.00  0.00    +0.000 HD
ENDBRANCH  11  14
ENDBRANCH   3   5
BRANCH   2  16
ATOM     16  C   UNL     1       4.825   3.585  19.152  0.00  0.00    +0.000 C 
BRANCH  16  17
ATOM     17  C   UNL     1       5.706   4.597  18.461  0.00  0.00    +0.000 A 
ATOM     18  C   UNL     1       5.578   4.845  17.087  0.00  0.00    +0.000 A 
ATOM     19  C   UNL     1       6.407   5.770  16.456  0.00  0.00    +0.000 A 
ATOM     20  C   UNL     1       7.355   6.476  17.194  0.00  0.00    +0.000 A 
ATOM     21  C   UNL     1       7.472   6.263  18.566  0.00  0.00    +0.000 A 
ATOM     22  C   UNL     1       6.646   5.333  19.199  0.00  0.00    +0.000 A 
ENDBRANCH  16  17
ENDBRANCH   2  16
TORSDOF 5
ENDMDL
MODEL 6
REMARK VINA RESULT:      -7.0      1.519      2.048
REMARK  Name = 
REMARK  6 active torsions:
REMARK  status: ('A' for Active; 'I' for Inactive)
REMARK    1  A    between atoms: C_1  and  N_2
REMARK    2  A    between atoms: N_2  and  C_3
REMARK    3  A    between atoms: C_3  and  C_4
REMARK    4  A    between atoms: C_10  and  C_12
REMARK    5  A    between atoms: C_16  and  O_17
REMARK    6  A    between atoms: C_19  and  O_20
REMARK                            x       y       z     vdW  Elec       q    Type
REMARK                         _______ _______ _______ _____ _____    ______ ____
ROOT
ATOM      1  C   UNL     1       2.494   2.633  21.396  0.00  0.00    +0.000 C 
ATOM      2  N   UNL     1       2.922   3.286  20.171  0.00  0.00    +0.000 N 
ATOM      3  C   UNL     1       4.271   3.131  19.819  0.00  0.00    +0.000 C 
ATOM      4  O   UNL     1       5.015   2.385  20.457  0.00  0.00    +0.000 OA
ENDROOT
BRANCH   3   5
ATOM      5  C   UNL     1       4.863   3.763  18.610  0.00  0.00    +0.000 A 
ATOM      6  C   UNL     1       5.777   4.813  18.833  0.00  0.00    +0.000 A 
ATOM      7  C   UNL     1       6.381   5.462  17.760  0.00  0.00    +0.000 A 
ATOM      8 CL   UNL     1       7.454   6.781  18.044  0.00  0.00    +0.000 Cl
ATOM      9  C   UNL     1       6.102   5.056  16.454  0.00  0.00    +0.000 A 
ATOM     10  C   UNL     1       5.185   4.040  16.216  0.00  0.00    +0.000 A 
ATOM     11  C   UNL     1       4.532   3.431  17.290  0.00  0.00    +0.000 A 
BRANCH   9  12
ATOM     12  O   UNL     1       6.674   5.648  15.365  0.00  0.00    +0.000 OA
ATOM     13  H   UNL     1       7.574   5.924  15.622  0.00  0.00    +0.000 HD
ENDBRANCH   9  12
BRANCH  11  14
ATOM     14  O   UNL     1       3.542   2.531  17.016  0.00  0.00    +0.000 OA
ATOM     15  H   UNL     1       3.664   1.749  17.585  0.00  0.00    +0.000 HD
ENDBRANCH  11  14
ENDBRANCH   3   5
BRANCH   2  16
ATOM     16  C   UNL     1       1.870   3.974  19.410  0.00  0.00    +0.000 C 
BRANCH  16  17
ATOM     17  C   UNL     1       1.947   5.481  19.385  0.00  0.00    +0.000 A 
ATOM     18  C   UNL     1       1.703   6.236  20.541  0.00  0.00    +0.000 A 
ATOM     19  C   UNL     1       1.761   7.627  20.502  0.00  0.00    +0.000 A 
ATOM     20  C   UNL     1       2.088   8.280  19.315  0.00  0.00    +0.000 A 
ATOM     21  C   UNL     1       2.364   7.542  18.166  0.00  0.00    +0.000 A 
ATOM     22  C   UNL     1       2.302   6.149  18.202  0.00  0.00    +0.000 A 
ENDBRANCH  16  17
ENDBRANCH   2  16
TORSDOF 5
ENDMDL
MODEL 7
REMARK VINA RESULT:      -7.0      1.298      1.831
REMARK  Name = 
REMARK  6 active torsions:
REMARK  status: ('A' for Active; 'I' for Inactive)
REMARK    1  A    between atoms: C_1  and  N_2
REMARK    2  A    between atoms: N_2  and  C_3
REMARK    3  A    between atoms: C_3  and  C_4
REMARK    4  A    between atoms: C_10  and  C_12
REMARK    5  A    between atoms: C_16  and  O_17
REMARK    6  A    between atoms: C_19  and  O_20
REMARK                            x       y       z     vdW  Elec       q    Type
REMARK                         _______ _______ _______ _____ _____    ______ ____
ROOT
ATOM      1  C   UNL     1       1.334   3.966  20.123  0.00  0.00    +0.000 C 
ATOM      2  N   UNL     1       2.574   4.413  19.509  0.00  0.00    +0.000 N 
ATOM      3  C   UNL     1       3.056   3.642  18.442  0.00  0.00    +0.000 C 
ATOM      4  O   UNL     1       2.398   2.708  17.981  0.00  0.00    +0.000 OA
ENDROOT
BRANCH   3   5
ATOM      5  C   UNL     1       4.325   3.956  17.733  0.00  0.00    +0.000 A 
ATOM      6  C   UNL     1       4.262   4.009  16.325  0.00  0.00    +0.000 A 
ATOM      7  C   UNL     1       5.401   4.297  15.579  0.00  0.00    +0.000 A 
ATOM      8 CL   UNL     1       5.324   4.304  13.856  0.00  0.00    +0.000 Cl
ATOM      9  C   UNL     1       6.609   4.563  16.226  0.00  0.00    +0.000 A 
ATOM     10  C   UNL     1       6.694   4.490  17.611  0.00  0.00    +0.000 A 
ATOM     11  C   UNL     1       5.566   4.139  18.356  0.00  0.00    +0.000 A 
BRANCH   9  12
ATOM     12  O   UNL     1       7.754   4.862  15.546  0.00  0.00    +0.000 OA
ATOM     13  H   UNL     1       8.502   4.713  16.154  0.00  0.00    +0.000 HD
ENDBRANCH   9  12
BRANCH  11  14
ATOM     14  O   UNL     1       5.715   3.947  19.699  0.00  0.00    +0.000 OA
ATOM     15  H   UNL     1       6.315   3.193  19.843  0.00  0.00    +0.000 HD
ENDBRANCH  11  14
ENDBRANCH   3   5
BRANCH   2  16
ATOM     16  C   UNL     1       3.137   5.662  20.039  0.00  0.00    +0.000 C 
BRANCH  16  17
ATOM     17  C   UNL     1       2.544   6.941  19.497  0.00  0.00    +0.000 A 
ATOM     18  C   UNL     1       2.760   7.329  18.168  0.00  0.00    +0.000 A 
ATOM     19  C   UNL     1       2.222   8.519  17.683  0.00  0.00    +0.000 A 
ATOM     20  C   UNL     1       1.440   9.321  18.513  0.00  0.00    +0.000 A 
ATOM     21  C   UNL     1       1.190   8.932  19.826  0.00  0.00    +0.000 A 
ATOM     22  C   UNL     1       1.733   7.743  20.316  0.00  0.00    +0.000 A 
ENDBRANCH  16  17
ENDBRANCH   2  16
TORSDOF 5
ENDMDL
MODEL 8
REMARK VINA RESULT:      -6.9      1.535      2.319
REMARK  Name = 
REMARK  6 active torsions:
REMARK  status: ('A' for Active; 'I' for Inactive)
REMARK    1  A    between atoms: C_1  and  N_2
REMARK    2  A    between atoms: N_2  and  C_3
REMARK    3  A    between atoms: C_3  and  C_4
REMARK    4  A    between atoms: C_10  and  C_12
REMARK    5  A    between atoms: C_16  and  O_17
REMARK    6  A    between atoms: C_19  and  O_20
REMARK                            x       y       z     vdW  Elec       q    Type
REMARK                         _______ _______ _______ _____ _____    ______ ____
ROOT
ATOM      1  C   UNL     1       2.497   2.603  21.383  0.00  0.00    +0.000 C 
ATOM      2  N   UNL     1       2.893   3.276  20.157  0.00  0.00    +0.000 N 
ATOM      3  C   UNL     1       4.233   3.132  19.771  0.00  0.00    +0.000 C 
ATOM      4  O   UNL     1       4.994   2.378  20.378  0.00  0.00    +0.000 OA
ENDROOT
BRANCH   3   5
ATOM      5  C   UNL     1       4.793   3.784  18.557  0.00  0.00    +0.000 A 
ATOM      6  C   UNL     1       5.727   4.818  18.773  0.00  0.00    +0.000 A 
ATOM      7  C   UNL     1       6.303   5.485  17.696  0.00  0.00    +0.000 A 
ATOM      8 CL   UNL     1       7.402   6.785  17.975  0.00  0.00    +0.000 Cl
ATOM      9  C   UNL     1       5.977   5.113  16.392  0.00  0.00    +0.000 A 
ATOM     10  C   UNL     1       5.039   4.114  16.161  0.00  0.00    +0.000 A 
ATOM     11  C   UNL     1       4.415   3.487  17.241  0.00  0.00    +0.000 A 
BRANCH   9  12
ATOM     12  O   UNL     1       6.519   5.724  15.298  0.00  0.00    +0.000 OA
ATOM     13  H   UNL     1       5.950   6.484  15.076  0.00  0.00    +0.000 HD
ENDBRANCH   9  12
BRANCH  11  14
ATOM     14  O   UNL     1       3.405   2.606  16.980  0.00  0.00    +0.000 OA
ATOM     15  H   UNL     1       3.784   1.712  16.893  0.00  0.00    +0.000 HD
ENDBRANCH  11  14
ENDBRANCH   3   5
BRANCH   2  16
ATOM     16  C   UNL     1       1.820   3.972  19.434  0.00  0.00    +0.000 C 
BRANCH  16  17
ATOM     17  C   UNL     1       1.931   5.477  19.369  0.00  0.00    +0.000 A 
ATOM     18  C   UNL     1       2.266   6.124  18.171  0.00  0.00    +0.000 A 
ATOM     19  C   UNL     1       2.381   7.511  18.126  0.00  0.00    +0.000 A 
ATOM     20  C   UNL     1       2.137   8.270  19.269  0.00  0.00    +0.000 A 
ATOM     21  C   UNL     1       1.772   7.643  20.458  0.00  0.00    +0.000 A 
ATOM     22  C   UNL     1       1.661   6.253  20.507  0.00  0.00    +0.000 A 
ENDBRANCH  16  17
ENDBRANCH   2  16
TORSDOF 5
ENDMDL
MODEL 9
REMARK VINA RESULT:      -6.9      1.098      1.161
REMARK  Name = 
REMARK  6 active torsions:
REMARK  status: ('A' for Active; 'I' for Inactive)
REMARK    1  A    between atoms: C_1  and  N_2
REMARK    2  A    between atoms: N_2  and  C_3
REMARK    3  A    between atoms: C_3  and  C_4
REMARK    4  A    between atoms: C_10  and  C_12
REMARK    5  A    between atoms: C_16  and  O_17
REMARK    6  A    between atoms: C_19  and  O_20
REMARK                            x       y       z     vdW  Elec       q    Type
REMARK                         _______ _______ _______ _____ _____    ______ ____
ROOT
ATOM      1  C   UNL     1       1.470   1.935  18.758  0.00  0.00    +0.000 C 
ATOM      2  N   UNL     1       2.351   2.962  18.228  0.00  0.00    +0.000 N 
ATOM      3  C   UNL     1       3.720   2.660  18.203  0.00  0.00    +0.000 C 
ATOM      4  O   UNL     1       4.131   1.539  18.505  0.00  0.00    +0.000 OA
ENDROOT
BRANCH   3   5
ATOM      5  C   UNL     1       4.745   3.621  17.717  0.00  0.00    +0.000 A 
ATOM      6  C   UNL     1       5.003   3.617  16.330  0.00  0.00    +0.000 A 
ATOM      7  C   UNL     1       5.947   4.484  15.786  0.00  0.00    +0.000 A 
ATOM      8 CL   UNL     1       6.293   4.430  14.097  0.00  0.00    +0.000 Cl
ATOM      9  C   UNL     1       6.625   5.382  16.611  0.00  0.00    +0.000 A 
ATOM     10  C   UNL     1       6.401   5.382  17.982  0.00  0.00    +0.000 A 
ATOM     11  C   UNL     1       5.500   4.470  18.536  0.00  0.00    +0.000 A 
BRANCH   9  12
ATOM     12  O   UNL     1       7.551   6.262  16.130  0.00  0.00    +0.000 OA
ATOM     13  H   UNL     1       8.312   5.739  15.813  0.00  0.00    +0.000 HD
ENDBRANCH   9  12
BRANCH  11  14
ATOM     14  O   UNL     1       5.402   4.406  19.896  0.00  0.00    +0.000 OA
ATOM     15  H   UNL     1       5.481   5.307  20.259  0.00  0.00    +0.000 HD
ENDBRANCH  11  14
ENDBRANCH   3   5
BRANCH   2  16
ATOM     16  C   UNL     1       1.689   4.172  17.718  0.00  0.00    +0.000 C 
BRANCH  16  17
ATOM     17  C   UNL     1       1.834   5.414  18.564  0.00  0.00    +0.000 A 
ATOM     18  C   UNL     1       1.592   5.380  19.944  0.00  0.00    +0.000 A 
ATOM     19  C   UNL     1       1.713   6.536  20.712  0.00  0.00    +0.000 A 
ATOM     20  C   UNL     1       2.101   7.734  20.114  0.00  0.00    +0.000 A 
ATOM     21  C   UNL     1       2.375   7.776  18.749  0.00  0.00    +0.000 A 
ATOM     22  C   UNL     1       2.250   6.620  17.978  0.00  0.00    +0.000 A 
ENDBRANCH  16  17
ENDBRANCH   2  16
TORSDOF 5
ENDMDL
