MODEL 1
REMARK VINA RESULT:      -7.4      0.000      0.000
REMARK  Name = 
REMARK  5 active torsions:
REMARK  status: ('A' for Active; 'I' for Inactive)
REMARK    1  A    between atoms: N_1  and  C_2
REMARK    2  A    between atoms: C_5  and  S_6
REMARK    3  A    between atoms: S_6  and  C_7
REMARK    4  A    between atoms: C_8  and  O_9
REMARK    5  A    between atoms: C_11  and  C_12
REMARK                            x       y       z     vdW  Elec       q    Type
REMARK                         _______ _______ _______ _____ _____    ______ ____
ROOT
ATOM      1  C   UNL     1       1.252   9.482  19.607  0.00  0.00    +0.000 C 
ATOM      2  C   UNL     1       1.736   9.198  18.385  0.00  0.00    +0.000 C 
ATOM      3  C   UNL     1       2.269   7.851  17.985  0.00  0.00    +0.000 C 
ATOM      4  C   UNL     1       2.740   7.022  19.189  0.00  0.00    +0.000 C 
ATOM      5  C   UNL     1       1.680   7.016  20.292  0.00  0.00    +0.000 C 
ATOM      6  C   UNL     1       1.228   8.414  20.665  0.00  0.00    +0.000 C 
ATOM      7  O   UNL     1       0.799   8.638  21.798  0.00  0.00    +0.000 OA
ENDROOT
BRANCH   4   8
ATOM      8  C   UNL     1       3.132   5.618  18.755  0.00  0.00    +0.000 A 
ATOM      9  C   UNL     1       2.268   4.855  17.955  0.00  0.00    +0.000 A 
ATOM     10  C   UNL     1       2.594   3.542  17.607  0.00  0.00    +0.000 A 
ATOM     11  C   UNL     1       3.787   2.974  18.051  0.00  0.00    +0.000 A 
ATOM     12  C   UNL     1       4.662   3.725  18.830  0.00  0.00    +0.000 A 
ATOM     13  C   UNL     1       4.342   5.038  19.172  0.00  0.00    +0.000 A 
ENDBRANCH   4   8
BRANCH   2  14
ATOM     14  O   UNL     1       1.812  10.137  17.371  0.00  0.00    +0.000 OA
ATOM     15  H   UNL     1       2.278  10.925  17.721  0.00  0.00    +0.000 HD
ENDBRANCH   2  14
BRANCH   1  16
ATOM     16  S   UNL     1       0.787  11.086  20.060  0.00  0.00    +0.000 S 
BRANCH  16  20
ATOM     17  C   UNL     1      -3.565  11.764  18.677  0.00  0.00    +0.000 A 
ATOM     18  C   UNL     1      -3.011  12.450  19.758  0.00  0.00    +0.000 A 
ATOM     19  C   UNL     1      -1.712  12.165  20.196  0.00  0.00    +0.000 A 
ATOM     20  C   UNL     1      -0.920  11.211  19.543  0.00  0.00    +0.000 A 
ATOM     21  C   UNL     1      -1.466  10.543  18.443  0.00  0.00    +0.000 A 
ATOM     22  C   UNL     1      -2.768  10.833  18.007  0.00  0.00    +0.000 A 
BRANCH  17  23
ATOM     23  N   UNL     1      -4.782  12.182  18.129  0.00  0.00    +0.000 N 
ATOM     24  H   UNL     1      -5.230  11.490  17.536  0.00  0.00    +0.000 HD
ATOM     25  H   UNL     1      -4.755  13.100  17.700  0.00  0.00    +0.000 HD
ENDBRANCH  17  23
ENDBRANCH  16  20
ENDBRANCH   1  16
TORSDOF 5
ENDMDL
MODEL 2
REMARK VINA RESULT:      -7.4      4.468      6.293
REMARK  Name = 
REMARK  5 active torsions:
REMARK  status: ('A' for Active; 'I' for Inactive)
REMARK    1  A    between atoms: N_1  and  C_2
REMARK    2  A    between atoms: C_5  and  S_6
REMARK    3  A    between atoms: S_6  and  C_7
REMARK    4  A    between atoms: C_8  and  O_9
REMARK    5  A    between atoms: C_11  and  C_12
REMARK                            x       y       z     vdW  Elec       q    Type
REMARK                         _______ _______ _______ _____ _____    ______ ____
ROOT
ATOM      1  C   UNL     1       4.218   4.241  18.317  0.00  0.00    +0.000 C 
ATOM      2  C   UNL     1       3.578   3.870  17.195  0.00  0.00    +0.000 C 
ATOM      3  C   UNL     1       4.224   3.807  15.840  0.00  0.00    +0.000 C 
ATOM      4  C   UNL     1       5.458   4.717  15.734  0.00  0.00    +0.000 C 
ATOM      5  C   UNL     1       6.392   4.506  16.925  0.00  0.00    +0.000 C 
ATOM      6  C   UNL     1       5.670   4.628  18.253  0.00  0.00    +0.000 C 
ATOM      7  O   UNL     1       6.289   4.980  19.258  0.00  0.00    +0.000 OA
ENDROOT
BRANCH   4   8
ATOM      8  C   UNL     1       6.164   4.512  14.402  0.00  0.00    +0.000 A 
ATOM      9  C   UNL     1       7.303   5.264  14.079  0.00  0.00    +0.000 A 
ATOM     10  C   UNL     1       7.916   5.126  12.831  0.00  0.00    +0.000 A 
ATOM     11  C   UNL     1       7.403   4.235  11.892  0.00  0.00    +0.000 A 
ATOM     12  C   UNL     1       6.285   3.468  12.205  0.00  0.00    +0.000 A 
ATOM     13  C   UNL     1       5.675   3.599  13.452  0.00  0.00    +0.000 A 
ENDBRANCH   4   8
BRANCH   2  14
ATOM     14  O   UNL     1       2.237   3.526  17.175  0.00  0.00    +0.000 OA
ATOM     15  H   UNL     1       2.067   3.016  16.357  0.00  0.00    +0.000 HD
ENDBRANCH   2  14
BRANCH   1  16
ATOM     16  S   UNL     1       3.391   4.437  19.825  0.00  0.00    +0.000 S 
BRANCH  16  20
ATOM     17  C   UNL     1       1.418   8.610  19.729  0.00  0.00    +0.000 A 
ATOM     18  C   UNL     1       1.286   7.748  20.817  0.00  0.00    +0.000 A 
ATOM     19  C   UNL     1       1.836   6.460  20.781  0.00  0.00    +0.000 A 
ATOM     20  C   UNL     1       2.563   6.014  19.669  0.00  0.00    +0.000 A 
ATOM     21  C   UNL     1       2.718   6.888  18.590  0.00  0.00    +0.000 A 
ATOM     22  C   UNL     1       2.166   8.178  18.631  0.00  0.00    +0.000 A 
BRANCH  17  23
ATOM     23  N   UNL     1       1.035   9.951  19.843  0.00  0.00    +0.000 N 
ATOM     24  H   UNL     1       1.007  10.294  20.798  0.00  0.00    +0.000 HD
ATOM     25  H   UNL     1       0.202  10.194  19.319  0.00  0.00    +0.000 HD
ENDBRANCH  17  23
ENDBRANCH  16  20
ENDBRANCH   1  16
TORSDOF 5
ENDMDL
MODEL 3
REMARK VINA RESULT:      -7.4      0.113      1.034
REMARK  Name = 
REMARK  5 active torsions:
REMARK  status: ('A' for Active; 'I' for Inactive)
REMARK    1  A    between atoms: N_1  and  C_2
REMARK    2  A    between atoms: C_5  and  S_6
REMARK    3  A    between atoms: S_6  and  C_7
REMARK    4  A    between atoms: C_8  and  O_9
REMARK    5  A    between atoms: C_11  and  C_12
REMARK                            x       y       z     vdW  Elec       q    Type
REMARK                         _______ _______ _______ _____ _____    ______ ____
ROOT
ATOM      1  C   UNL     1       1.221   9.556  19.613  0.00  0.00    +0.000 C 
ATOM      2  C   UNL     1       1.717   9.269  18.397  0.00  0.00    +0.000 C 
ATOM      3  C   UNL     1       2.248   7.919  18.004  0.00  0.00    +0.000 C 
ATOM      4  C   UNL     1       2.702   7.090  19.214  0.00  0.00    +0.000 C 
ATOM      5  C   UNL     1       1.631   7.089  20.305  0.00  0.00    +0.000 C 
ATOM      6  C   UNL     1       1.181   8.490  20.672  0.00  0.00    +0.000 C 
ATOM      7  O   UNL     1       0.741   8.716  21.800  0.00  0.00    +0.000 OA
ENDROOT
BRANCH   4   8
ATOM      8  C   UNL     1       3.093   5.683  18.786  0.00  0.00    +0.000 A 
ATOM      9  C   UNL     1       4.333   5.145  19.162  0.00  0.00    +0.000 A 
ATOM     10  C   UNL     1       4.724   3.880  18.718  0.00  0.00    +0.000 A 
ATOM     11  C   UNL     1       3.882   3.134  17.895  0.00  0.00    +0.000 A 
ATOM     12  C   UNL     1       2.642   3.647  17.529  0.00  0.00    +0.000 A 
ATOM     13  C   UNL     1       2.246   4.907  17.977  0.00  0.00    +0.000 A 
ENDBRANCH   4   8
BRANCH   2  14
ATOM     14  O   UNL     1       1.808  10.207  17.382  0.00  0.00    +0.000 OA
ATOM     15  H   UNL     1       1.999  11.076  17.790  0.00  0.00    +0.000 HD
ENDBRANCH   2  14
BRANCH   1  16
ATOM     16  S   UNL     1       0.757  11.163  20.060  0.00  0.00    +0.000 S 
BRANCH  16  20
ATOM     17  C   UNL     1      -3.604  11.841  18.705  0.00  0.00    +0.000 A 
ATOM     18  C   UNL     1      -3.065  12.469  19.827  0.00  0.00    +0.000 A 
ATOM     19  C   UNL     1      -1.762  12.183  20.252  0.00  0.00    +0.000 A 
ATOM     20  C   UNL     1      -0.950  11.286  19.544  0.00  0.00    +0.000 A 
ATOM     21  C   UNL     1      -1.480  10.677  18.404  0.00  0.00    +0.000 A 
ATOM     22  C   UNL     1      -2.787  10.968  17.981  0.00  0.00    +0.000 A 
BRANCH  17  23
ATOM     23  N   UNL     1      -4.827  12.268  18.178  0.00  0.00    +0.000 N 
ATOM     24  H   UNL     1      -5.572  12.338  18.864  0.00  0.00    +0.000 HD
ATOM     25  H   UNL     1      -5.117  11.777  17.340  0.00  0.00    +0.000 HD
ENDBRANCH  17  23
ENDBRANCH  16  20
ENDBRANCH   1  16
TORSDOF 5
ENDMDL
MODEL 4
REMARK VINA RESULT:      -7.4      4.224      5.932
REMARK  Name = 
REMARK  5 active torsions:
REMARK  status: ('A' for Active; 'I' for Inactive)
REMARK    1  A    between atoms: N_1  and  C_2
REMARK    2  A    between atoms: C_5  and  S_6
REMARK    3  A    between atoms: S_6  and  C_7
REMARK    4  A    between atoms: C_8  and  O_9
REMARK    5  A    between atoms: C_11  and  C_12
REMARK                            x       y       z     vdW  Elec       q    Type
REMARK                         _______ _______ _______ _____ _____    ______ ____
ROOT
ATOM      1  C   UNL     1       4.092   4.878  18.365  0.00  0.00    +0.000 C 
ATOM      2  C   UNL     1       3.465   4.295  17.328  0.00  0.00    +0.000 C 
ATOM      3  C   UNL     1       4.107   4.040  15.994  0.00  0.00    +0.000 C 
ATOM      4  C   UNL     1       5.292   4.980  15.721  0.00  0.00    +0.000 C 
ATOM      5  C   UNL     1       6.242   5.018  16.918  0.00  0.00    +0.000 C 
ATOM      6  C   UNL     1       5.521   5.321  18.218  0.00  0.00    +0.000 C 
ATOM      7  O   UNL     1       6.126   5.866  19.142  0.00  0.00    +0.000 OA
ENDROOT
BRANCH   4   8
ATOM      8  C   UNL     1       6.000   4.593  14.432  0.00  0.00    +0.000 A 
ATOM      9  C   UNL     1       7.217   5.197  14.082  0.00  0.00    +0.000 A 
ATOM     10  C   UNL     1       7.839   4.892  12.868  0.00  0.00    +0.000 A 
ATOM     11  C   UNL     1       7.256   3.980  11.991  0.00  0.00    +0.000 A 
ATOM     12  C   UNL     1       6.059   3.360  12.333  0.00  0.00    +0.000 A 
ATOM     13  C   UNL     1       5.440   3.657  13.547  0.00  0.00    +0.000 A 
ENDBRANCH   4   8
BRANCH   2  14
ATOM     14  O   UNL     1       2.144   3.885  17.384  0.00  0.00    +0.000 OA
ATOM     15  H   UNL     1       2.036   3.316  18.174  0.00  0.00    +0.000 HD
ENDBRANCH   2  14
BRANCH   1  16
ATOM     16  S   UNL     1       3.263   5.280  19.830  0.00  0.00    +0.000 S 
BRANCH  16  20
ATOM     17  C   UNL     1       1.337   9.333  18.749  0.00  0.00    +0.000 A 
ATOM     18  C   UNL     1       2.101   8.604  17.838  0.00  0.00    +0.000 A 
ATOM     19  C   UNL     1       2.732   7.415  18.223  0.00  0.00    +0.000 A 
ATOM     20  C   UNL     1       2.586   6.905  19.520  0.00  0.00    +0.000 A 
ATOM     21  C   UNL     1       1.798   7.621  20.425  0.00  0.00    +0.000 A 
ATOM     22  C   UNL     1       1.167   8.813  20.033  0.00  0.00    +0.000 A 
BRANCH  17  23
ATOM     23  N   UNL     1       0.559  10.411  18.311  0.00  0.00    +0.000 N 
ATOM     24  H   UNL     1       0.560  10.541  17.304  0.00  0.00    +0.000 HD
ATOM     25  H   UNL     1       0.721  11.276  18.814  0.00  0.00    +0.000 HD
ENDBRANCH  17  23
ENDBRANCH  16  20
ENDBRANCH   1  16
TORSDOF 5
ENDMDL
MODEL 5
REMARK VINA RESULT:      -7.3      1.068      1.138
REMARK  Name = 
REMARK  5 active torsions:
REMARK  status: ('A' for Active; 'I' for Inactive)
REMARK    1  A    between atoms: N_1  and  C_2
REMARK    2  A    between atoms: C_5  and  S_6
REMARK    3  A    between atoms: S_6  and  C_7
REMARK    4  A    between atoms: C_8  and  O_9
REMARK    5  A    between atoms: C_11  and  C_12
REMARK                            x       y       z     vdW  Elec       q    Type
REMARK                         _______ _______ _______ _____ _____    ______ ____
ROOT
ATOM      1  C   UNL     1       1.030   9.398  19.436  0.00  0.00    +0.000 C 
ATOM      2  C   UNL     1       1.743   8.935  18.394  0.00  0.00    +0.000 C 
ATOM      3  C   UNL     1       2.400   7.584  18.360  0.00  0.00    +0.000 C 
ATOM      4  C   UNL     1       2.678   7.029  19.765  0.00  0.00    +0.000 C 
ATOM      5  C   UNL     1       1.436   7.141  20.649  0.00  0.00    +0.000 C 
ATOM      6  C   UNL     1       0.861   8.544  20.661  0.00  0.00    +0.000 C 
ATOM      7  O   UNL     1       0.222   8.936  21.638  0.00  0.00    +0.000 OA
ENDROOT
BRANCH   4   8
ATOM      8  C   UNL     1       3.206   5.605  19.686  0.00  0.00    +0.000 A 
ATOM      9  C   UNL     1       2.451   4.538  20.195  0.00  0.00    +0.000 A 
ATOM     10  C   UNL     1       2.959   3.237  20.183  0.00  0.00    +0.000 A 
ATOM     11  C   UNL     1       4.225   2.982  19.661  0.00  0.00    +0.000 A 
ATOM     12  C   UNL     1       4.979   4.027  19.135  0.00  0.00    +0.000 A 
ATOM     13  C   UNL     1       4.471   5.326  19.139  0.00  0.00    +0.000 A 
ENDBRANCH   4   8
BRANCH   2  14
ATOM     14  O   UNL     1       1.961   9.676  17.245  0.00  0.00    +0.000 OA
ATOM     15  H   UNL     1       2.835  10.111  17.326  0.00  0.00    +0.000 HD
ENDBRANCH   2  14
BRANCH   1  16
ATOM     16  S   UNL     1       0.418  11.017  19.482  0.00  0.00    +0.000 S 
BRANCH  16  20
ATOM     17  C   UNL     1      -3.786  11.042  17.574  0.00  0.00    +0.000 A 
ATOM     18  C   UNL     1      -3.455  11.851  18.661  0.00  0.00    +0.000 A 
ATOM     19  C   UNL     1      -2.193  11.764  19.261  0.00  0.00    +0.000 A 
ATOM     20  C   UNL     1      -1.216  10.888  18.768  0.00  0.00    +0.000 A 
ATOM     21  C   UNL     1      -1.538  10.096  17.663  0.00  0.00    +0.000 A 
ATOM     22  C   UNL     1      -2.805  10.189  17.064  0.00  0.00    +0.000 A 
BRANCH  17  23
ATOM     23  N   UNL     1      -4.970  11.266  16.865  0.00  0.00    +0.000 N 
ATOM     24  H   UNL     1      -5.406  12.163  17.057  0.00  0.00    +0.000 HD
ATOM     25  H   UNL     1      -5.631  10.499  16.900  0.00  0.00    +0.000 HD
ENDBRANCH  17  23
ENDBRANCH  16  20
ENDBRANCH   1  16
TORSDOF 5
ENDMDL
MODEL 6
REMARK VINA RESULT:      -7.3      6.238      8.434
REMARK  Name = 
REMARK  5 active torsions:
REMARK  status: ('A' for Active; 'I' for Inactive)
REMARK    1  A    between atoms: N_1  and  C_2
REMARK    2  A    between atoms: C_5  and  S_6
REMARK    3  A    between atoms: S_6  and  C_7
REMARK    4  A    between atoms: C_8  and  O_9
REMARK    5  A    between atoms: C_11  and  C_12
REMARK                            x       y       z     vdW  Elec       q    Type
REMARK                         _______ _______ _______ _____ _____    ______ ____
ROOT
ATOM      1  C   UNL     1       6.347   5.670  17.510  0.00  0.00    +0.000 C 
ATOM      2  C   UNL     1       7.437   5.740  18.295  0.00  0.00    +0.000 C 
ATOM      3  C   UNL     1       8.127   7.023  18.661  0.00  0.00    +0.000 C 
ATOM      4  C   UNL     1       7.859   8.146  17.647  0.00  0.00    +0.000 C 
ATOM      5  C   UNL     1       6.365   8.259  17.344  0.00  0.00    +0.000 C 
ATOM      6  C   UNL     1       5.755   6.930  16.943  0.00  0.00    +0.000 C 
ATOM      7  O   UNL     1       4.762   6.906  16.214  0.00  0.00    +0.000 OA
ENDROOT
BRANCH   4   8
ATOM      8  C   UNL     1       8.453   9.460  18.131  0.00  0.00    +0.000 A 
ATOM      9  C   UNL     1       9.198   9.507  19.319  0.00  0.00    +0.000 A 
ATOM     10  C   UNL     1       9.691  10.722  19.801  0.00  0.00    +0.000 A 
ATOM     11  C   UNL     1       9.448  11.904  19.105  0.00  0.00    +0.000 A 
ATOM     12  C   UNL     1       8.726  11.870  17.916  0.00  0.00    +0.000 A 
ATOM     13  C   UNL     1       8.240  10.658  17.428  0.00  0.00    +0.000 A 
ENDBRANCH   4   8
BRANCH   2  14
ATOM     14  O   UNL     1       8.049   4.619  18.831  0.00  0.00    +0.000 OA
ATOM     15  H   UNL     1       8.662   4.258  18.159  0.00  0.00    +0.000 HD
ENDBRANCH   2  14
BRANCH   1  16
ATOM     16  S   UNL     1       5.678   4.157  17.001  0.00  0.00    +0.000 S 
BRANCH  16  20
ATOM     17  C   UNL     1       1.802   3.410  19.396  0.00  0.00    +0.000 A 
ATOM     18  C   UNL     1       1.792   3.959  18.113  0.00  0.00    +0.000 A 
ATOM     19  C   UNL     1       2.991   4.241  17.446  0.00  0.00    +0.000 A 
ATOM     20  C   UNL     1       4.231   3.948  18.030  0.00  0.00    +0.000 A 
ATOM     21  C   UNL     1       4.240   3.373  19.304  0.00  0.00    +0.000 A 
ATOM     22  C   UNL     1       3.036   3.092  19.968  0.00  0.00    +0.000 A 
BRANCH  17  23
ATOM     23  N   UNL     1       0.613   2.958  19.976  0.00  0.00    +0.000 N 
ATOM     24  H   UNL     1      -0.072   2.618  19.309  0.00  0.00    +0.000 HD
ATOM     25  H   UNL     1       0.210   3.594  20.655  0.00  0.00    +0.000 HD
ENDBRANCH  17  23
ENDBRANCH  16  20
ENDBRANCH   1  16
TORSDOF 5
ENDMDL
MODEL 7
REMARK VINA RESULT:      -7.3      1.119      1.413
REMARK  Name = 
REMARK  5 active torsions:
REMARK  status: ('A' for Active; 'I' for Inactive)
REMARK    1  A    between atoms: N_1  and  C_2
REMARK    2  A    between atoms: C_5  and  S_6
REMARK    3  A    between atoms: S_6  and  C_7
REMARK    4  A    between atoms: C_8  and  O_9
REMARK    5  A    between atoms: C_11  and  C_12
REMARK                            x       y       z     vdW  Elec       q    Type
REMARK                         _______ _______ _______ _____ _____    ______ ____
ROOT
ATOM      1  C   UNL     1       1.033   9.388  19.401  0.00  0.00    +0.000 C 
ATOM      2  C   UNL     1       1.768   8.876  18.399  0.00  0.00    +0.000 C 
ATOM      3  C   UNL     1       2.406   7.516  18.436  0.00  0.00    +0.000 C 
ATOM      4  C   UNL     1       2.637   7.013  19.869  0.00  0.00    +0.000 C 
ATOM      5  C   UNL     1       1.372   7.174  20.712  0.00  0.00    +0.000 C 
ATOM      6  C   UNL     1       0.817   8.584  20.653  0.00  0.00    +0.000 C 
ATOM      7  O   UNL     1       0.156   9.022  21.596  0.00  0.00    +0.000 OA
ENDROOT
BRANCH   4   8
ATOM      8  C   UNL     1       3.147   5.579  19.859  0.00  0.00    +0.000 A 
ATOM      9  C   UNL     1       4.349   5.258  19.212  0.00  0.00    +0.000 A 
ATOM     10  C   UNL     1       4.789   3.933  19.145  0.00  0.00    +0.000 A 
ATOM     11  C   UNL     1       4.036   2.914  19.724  0.00  0.00    +0.000 A 
ATOM     12  C   UNL     1       2.851   3.220  20.385  0.00  0.00    +0.000 A 
ATOM     13  C   UNL     1       2.414   4.542  20.460  0.00  0.00    +0.000 A 
ENDBRANCH   4   8
BRANCH   2  14
ATOM     14  O   UNL     1       2.029   9.569  17.229  0.00  0.00    +0.000 OA
ATOM     15  H   UNL     1       2.633  10.309  17.444  0.00  0.00    +0.000 HD
ENDBRANCH   2  14
BRANCH   1  16
ATOM     16  S   UNL     1       0.443  11.015  19.368  0.00  0.00    +0.000 S 
BRANCH  16  20
ATOM     17  C   UNL     1      -3.771  11.010  17.482  0.00  0.00    +0.000 A 
ATOM     18  C   UNL     1      -3.449  11.798  18.587  0.00  0.00    +0.000 A 
ATOM     19  C   UNL     1      -2.183  11.719  19.179  0.00  0.00    +0.000 A 
ATOM     20  C   UNL     1      -1.192  10.874  18.659  0.00  0.00    +0.000 A 
ATOM     21  C   UNL     1      -1.505  10.105  17.536  0.00  0.00    +0.000 A 
ATOM     22  C   UNL     1      -2.777  10.189  16.945  0.00  0.00    +0.000 A 
BRANCH  17  23
ATOM     23  N   UNL     1      -4.963  11.230  16.784  0.00  0.00    +0.000 N 
ATOM     24  H   UNL     1      -5.604  10.443  16.800  0.00  0.00    +0.000 HD
ATOM     25  H   UNL     1      -4.839  11.610  15.853  0.00  0.00    +0.000 HD
ENDBRANCH  17  23
ENDBRANCH  16  20
ENDBRANCH   1  16
TORSDOF 5
ENDMDL
MODEL 8
REMARK VINA RESULT:      -7.3      6.274      8.431
REMARK  Name = 
REMARK  5 active torsions:
REMARK  status: ('A' for Active; 'I' for Inactive)
REMARK    1  A    between atoms: N_1  and  C_2
REMARK    2  A    between atoms: C_5  and  S_6
REMARK    3  A    between atoms: S_6  and  C_7
REMARK    4  A    between atoms: C_8  and  O_9
REMARK    5  A    between atoms: C_11  and  C_12
REMARK                            x       y       z     vdW  Elec       q    Type
REMARK                         _______ _______ _______ _____ _____    ______ ____
ROOT
ATOM      1  C   UNL     1       6.406   5.718  17.559  0.00  0.00    +0.000 C 
ATOM      2  C   UNL     1       7.474   5.805  18.371  0.00  0.00    +0.000 C 
ATOM      3  C   UNL     1       8.146   7.097  18.739  0.00  0.00    +0.000 C 
ATOM      4  C   UNL     1       7.897   8.206  17.705  0.00  0.00    +0.000 C 
ATOM      5  C   UNL     1       6.411   8.305  17.362  0.00  0.00    +0.000 C 
ATOM      6  C   UNL     1       5.821   6.967  16.961  0.00  0.00    +0.000 C 
ATOM      7  O   UNL     1       4.847   6.927  16.207  0.00  0.00    +0.000 OA
ENDROOT
BRANCH   4   8
ATOM      8  C   UNL     1       8.469   9.530  18.188  0.00  0.00    +0.000 A 
ATOM      9  C   UNL     1       8.250  10.707  17.457  0.00  0.00    +0.000 A 
ATOM     10  C   UNL     1       8.827  11.913  17.861  0.00  0.00    +0.000 A 
ATOM     11  C   UNL     1       9.628  11.962  19.001  0.00  0.00    +0.000 A 
ATOM     12  C   UNL     1       9.839  10.806  19.746  0.00  0.00    +0.000 A 
ATOM     13  C   UNL     1       9.258   9.602  19.349  0.00  0.00    +0.000 A 
ENDBRANCH   4   8
BRANCH   2  14
ATOM     14  O   UNL     1       8.079   4.696  18.936  0.00  0.00    +0.000 OA
ATOM     15  H   UNL     1       8.599   4.995  19.710  0.00  0.00    +0.000 HD
ENDBRANCH   2  14
BRANCH   1  16
ATOM     16  S   UNL     1       5.760   4.194  17.051  0.00  0.00    +0.000 S 
BRANCH  16  20
ATOM     17  C   UNL     1       1.856   3.420  19.390  0.00  0.00    +0.000 A 
ATOM     18  C   UNL     1       1.859   3.922  18.088  0.00  0.00    +0.000 A 
ATOM     19  C   UNL     1       3.063   4.215  17.437  0.00  0.00    +0.000 A 
ATOM     20  C   UNL     1       4.298   3.980  18.056  0.00  0.00    +0.000 A 
ATOM     21  C   UNL     1       4.296   3.451  19.350  0.00  0.00    +0.000 A 
ATOM     22  C   UNL     1       3.085   3.158  19.999  0.00  0.00    +0.000 A 
BRANCH  17  23
ATOM     23  N   UNL     1       0.667   2.954  19.961  0.00  0.00    +0.000 N 
ATOM     24  H   UNL     1       0.403   2.020  19.666  0.00  0.00    +0.000 HD
ATOM     25  H   UNL     1      -0.105   3.609  19.913  0.00  0.00    +0.000 HD
ENDBRANCH  17  23
ENDBRANCH  16  20
ENDBRANCH   1  16
TORSDOF 5
ENDMDL
MODEL 9
REMARK VINA RESULT:      -7.3      4.331      5.993
REMARK  Name = 
REMARK  5 active torsions:
REMARK  status: ('A' for Active; 'I' for Inactive)
REMARK    1  A    between atoms: N_1  and  C_2
REMARK    2  A    between atoms: C_5  and  S_6
REMARK    3  A    between atoms: S_6  and  C_7
REMARK    4  A    between atoms: C_8  and  O_9
REMARK    5  A    between atoms: C_11  and  C_12
REMARK                            x       y       z     vdW  Elec       q    Type
REMARK                         _______ _______ _______ _____ _____    ______ ____
ROOT
ATOM      1  C   UNL     1       4.085   4.508  18.377  0.00  0.00    +0.000 C 
ATOM      2  C   UNL     1       3.459   3.996  17.302  0.00  0.00    +0.000 C 
ATOM      3  C   UNL     1       4.089   3.870  15.945  0.00  0.00    +0.000 C 
ATOM      4  C   UNL     1       5.246   4.859  15.738  0.00  0.00    +0.000 C 
ATOM      5  C   UNL     1       6.211   4.821  16.923  0.00  0.00    +0.000 C 
ATOM      6  C   UNL     1       5.500   4.998  18.251  0.00  0.00    +0.000 C 
ATOM      7  O   UNL     1       6.104   5.480  19.210  0.00  0.00    +0.000 OA
ENDROOT
BRANCH   4   8
ATOM      8  C   UNL     1       5.947   4.598  14.413  0.00  0.00    +0.000 A 
ATOM      9  C   UNL     1       5.409   3.685  13.494  0.00  0.00    +0.000 A 
ATOM     10  C   UNL     1       6.082   3.393  12.305  0.00  0.00    +0.000 A 
ATOM     11  C   UNL     1       7.297   4.010  12.016  0.00  0.00    +0.000 A 
ATOM     12  C   UNL     1       7.834   4.932  12.910  0.00  0.00    +0.000 A 
ATOM     13  C   UNL     1       7.161   5.230  14.094  0.00  0.00    +0.000 A 
ENDBRANCH   4   8
BRANCH   2  14
ATOM     14  O   UNL     1       2.149   3.550  17.339  0.00  0.00    +0.000 OA
ATOM     15  H   UNL     1       2.112   2.680  16.891  0.00  0.00    +0.000 HD
ENDBRANCH   2  14
BRANCH   1  16
ATOM     16  S   UNL     1       3.266   4.766  19.880  0.00  0.00    +0.000 S 
BRANCH  16  20
ATOM     17  C   UNL     1       1.339   8.953  19.633  0.00  0.00    +0.000 A 
ATOM     18  C   UNL     1       1.241   8.154  20.772  0.00  0.00    +0.000 A 
ATOM     19  C   UNL     1       1.774   6.859  20.785  0.00  0.00    +0.000 A 
ATOM     20  C   UNL     1       2.451   6.342  19.671  0.00  0.00    +0.000 A 
ATOM     21  C   UNL     1       2.572   7.154  18.540  0.00  0.00    +0.000 A 
ATOM     22  C   UNL     1       2.036   8.452  18.532  0.00  0.00    +0.000 A 
BRANCH  17  23
ATOM     23  N   UNL     1       0.976  10.303  19.689  0.00  0.00    +0.000 N 
ATOM     24  H   UNL     1       1.423  10.823  20.437  0.00  0.00    +0.000 HD
ATOM     25  H   UNL     1      -0.023  10.470  19.644  0.00  0.00    +0.000 HD
ENDBRANCH  17  23
ENDBRANCH  16  20
ENDBRANCH   1  16
TORSDOF 5
ENDMDL
