MODEL 1
REMARK VINA RESULT:      -6.5      0.000      0.000
REMARK  Name = 
REMARK  8 active torsions:
REMARK  status: ('A' for Active; 'I' for Inactive)
REMARK    1  A    between atoms: C_2  and  O_3
REMARK    2  A    between atoms: C_2  and  C_4
REMARK    3  A    between atoms: C_4  and  C_5
REMARK    4  A    between atoms: C_5  and  C_6
REMARK    5  A    between atoms: C_6  and  C_7
REMARK    6  A    between atoms: C_7  and  C_8
REMARK    7  A    between atoms: C_8  and  N_9
REMARK    8  A    between atoms: N_12  and  C_13
REMARK                            x       y       z     vdW  Elec       q    Type
REMARK                         _______ _______ _______ _____ _____    ______ ____
ROOT
ATOM      1  N   UNL     1       3.206   5.140  20.049  0.00  0.00    +0.000 N 
ATOM      2  C   UNL     1       3.704   5.961  19.063  0.00  0.00    +0.000 C 
ATOM      3  O   UNL     1       3.062   6.873  18.559  0.00  0.00    +0.000 OA
ATOM      4  N   UNL     1       4.967   5.600  18.660  0.00  0.00    +0.000 N 
ATOM      5  H   UNL     1       3.870   4.692  20.660  0.00  0.00    +0.000 HD
ATOM      6  H   UNL     1       5.481   4.946  19.228  0.00  0.00    +0.000 HD
ENDROOT
BRANCH   4   7
ATOM      7  C   UNL     1       5.672   6.332  17.606  0.00  0.00    +0.000 C 
ATOM      8  C   UNL     1       7.181   6.055  17.639  0.00  0.00    +0.000 C 
ATOM      9  C   UNL     1       7.518   4.645  17.157  0.00  0.00    +0.000 C 
ATOM     10  C   UNL     1       6.979   4.388  15.753  0.00  0.00    +0.000 C 
ATOM     11  C   UNL     1       5.483   4.667  15.654  0.00  0.00    +0.000 C 
ATOM     12  C   UNL     1       5.096   6.037  16.214  0.00  0.00    +0.000 C 
ENDBRANCH   4   7
BRANCH   1  13
ATOM     13  C   UNL     1       1.852   5.353  20.530  0.00  0.00    +0.000 C 
BRANCH  13  14
ATOM     14  C   UNL     1       1.063   4.057  20.708  0.00  0.00    +0.000 C 
BRANCH  14  15
ATOM     15  C   UNL     1       1.882   2.845  20.239  0.00  0.00    +0.000 C 
BRANCH  15  16
ATOM     16  C   UNL     1       1.329   2.246  18.943  0.00  0.00    +0.000 C 
BRANCH  16  17
ATOM     17  C   UNL     1       2.349   2.314  17.799  0.00  0.00    +0.000 C 
BRANCH  17  19
ATOM     18  O   UNL     1       4.614   2.807  18.541  0.00  0.00    +0.000 OA
ATOM     19  C   UNL     1       3.747   1.986  18.272  0.00  0.00    +0.000 C 
BRANCH  19  20
ATOM     20  O   UNL     1       3.964   0.654  18.375  0.00  0.00    +0.000 OA
ATOM     21  H   UNL     1       4.160   0.353  19.281  0.00  0.00    +0.000 HD
ENDBRANCH  19  20
ENDBRANCH  17  19
ENDBRANCH  16  17
ENDBRANCH  15  16
ENDBRANCH  14  15
ENDBRANCH  13  14
ENDBRANCH   1  13
TORSDOF 8
ENDMDL
MODEL 2
REMARK VINA RESULT:      -6.1      3.295      7.089
REMARK  Name = 
REMARK  8 active torsions:
REMARK  status: ('A' for Active; 'I' for Inactive)
REMARK    1  A    between atoms: C_2  and  O_3
REMARK    2  A    between atoms: C_2  and  C_4
REMARK    3  A    between atoms: C_4  and  C_5
REMARK    4  A    between atoms: C_5  and  C_6
REMARK    5  A    between atoms: C_6  and  C_7
REMARK    6  A    between atoms: C_7  and  C_8
REMARK    7  A    between atoms: C_8  and  N_9
REMARK    8  A    between atoms: N_12  and  C_13
REMARK                            x       y       z     vdW  Elec       q    Type
REMARK                         _______ _______ _______ _____ _____    ______ ____
ROOT
ATOM      1  N   UNL     1       6.385   4.150  18.316  0.00  0.00    +0.000 N 
ATOM      2  C   UNL     1       5.172   4.242  17.671  0.00  0.00    +0.000 C 
ATOM      3  O   UNL     1       4.998   4.905  16.658  0.00  0.00    +0.000 OA
ATOM      4  N   UNL     1       4.170   3.571  18.329  0.00  0.00    +0.000 N 
ATOM      5  H   UNL     1       6.550   3.330  18.879  0.00  0.00    +0.000 HD
ATOM      6  H   UNL     1       4.426   2.927  19.060  0.00  0.00    +0.000 HD
ENDROOT
BRANCH   4   7
ATOM      7  C   UNL     1       2.796   3.559  17.822  0.00  0.00    +0.000 C 
ATOM      8  C   UNL     1       2.085   2.238  18.146  0.00  0.00    +0.000 C 
ATOM      9  C   UNL     1       1.747   2.116  19.631  0.00  0.00    +0.000 C 
ATOM     10  C   UNL     1       0.897   3.288  20.111  0.00  0.00    +0.000 C 
ATOM     11  C   UNL     1       1.545   4.633  19.797  0.00  0.00    +0.000 C 
ATOM     12  C   UNL     1       1.981   4.755  18.336  0.00  0.00    +0.000 C 
ENDBRANCH   4   7
BRANCH   1  13
ATOM     13  C   UNL     1       7.528   4.866  17.778  0.00  0.00    +0.000 C 
BRANCH  13  14
ATOM     14  C   UNL     1       7.682   6.274  18.349  0.00  0.00    +0.000 C 
BRANCH  14  15
ATOM     15  C   UNL     1       7.651   7.328  17.232  0.00  0.00    +0.000 C 
BRANCH  15  16
ATOM     16  C   UNL     1       7.667   8.755  17.788  0.00  0.00    +0.000 C 
BRANCH  16  17
ATOM     17  C   UNL     1       8.848   8.986  18.740  0.00  0.00    +0.000 C 
BRANCH  17  19
ATOM     18  O   UNL     1       9.450  11.202  17.935  0.00  0.00    +0.000 OA
ATOM     19  C   UNL     1       9.188  10.453  18.867  0.00  0.00    +0.000 C 
BRANCH  19  20
ATOM     20  O   UNL     1       9.181  10.881  20.151  0.00  0.00    +0.000 OA
ATOM     21  H   UNL     1       8.288  11.017  20.519  0.00  0.00    +0.000 HD
ENDBRANCH  19  20
ENDBRANCH  17  19
ENDBRANCH  16  17
ENDBRANCH  15  16
ENDBRANCH  14  15
ENDBRANCH  13  14
ENDBRANCH   1  13
TORSDOF 8
ENDMDL
MODEL 3
REMARK VINA RESULT:      -6.1      0.877      1.152
REMARK  Name = 
REMARK  8 active torsions:
REMARK  status: ('A' for Active; 'I' for Inactive)
REMARK    1  A    between atoms: C_2  and  O_3
REMARK    2  A    between atoms: C_2  and  C_4
REMARK    3  A    between atoms: C_4  and  C_5
REMARK    4  A    between atoms: C_5  and  C_6
REMARK    5  A    between atoms: C_6  and  C_7
REMARK    6  A    between atoms: C_7  and  C_8
REMARK    7  A    between atoms: C_8  and  N_9
REMARK    8  A    between atoms: N_12  and  C_13
REMARK                            x       y       z     vdW  Elec       q    Type
REMARK                         _______ _______ _______ _____ _____    ______ ____
ROOT
ATOM      1  N   UNL     1       3.097   5.459  20.213  0.00  0.00    +0.000 N 
ATOM      2  C   UNL     1       3.260   5.928  18.928  0.00  0.00    +0.000 C 
ATOM      3  O   UNL     1       2.326   6.258  18.209  0.00  0.00    +0.000 OA
ATOM      4  N   UNL     1       4.572   5.914  18.522  0.00  0.00    +0.000 N 
ATOM      5  H   UNL     1       3.870   5.570  20.849  0.00  0.00    +0.000 HD
ATOM      6  H   UNL     1       5.287   5.780  19.219  0.00  0.00    +0.000 HD
ENDROOT
BRANCH   4   7
ATOM      7  C   UNL     1       4.963   6.354  17.181  0.00  0.00    +0.000 C 
ATOM      8  C   UNL     1       6.352   7.004  17.181  0.00  0.00    +0.000 C 
ATOM      9  C   UNL     1       7.467   5.979  17.383  0.00  0.00    +0.000 C 
ATOM     10  C   UNL     1       7.415   4.879  16.328  0.00  0.00    +0.000 C 
ATOM     11  C   UNL     1       6.047   4.208  16.267  0.00  0.00    +0.000 C 
ATOM     12  C   UNL     1       4.898   5.211  16.157  0.00  0.00    +0.000 C 
ENDBRANCH   4   7
BRANCH   1  13
ATOM     13  C   UNL     1       1.756   5.347  20.760  0.00  0.00    +0.000 C 
BRANCH  13  14
ATOM     14  C   UNL     1       1.289   3.903  20.923  0.00  0.00    +0.000 C 
BRANCH  14  15
ATOM     15  C   UNL     1       0.619   3.392  19.639  0.00  0.00    +0.000 C 
BRANCH  15  16
ATOM     16  C   UNL     1       1.349   2.179  19.055  0.00  0.00    +0.000 C 
BRANCH  16  17
ATOM     17  C   UNL     1       2.726   1.973  19.700  0.00  0.00    +0.000 C 
BRANCH  17  19
ATOM     18  O   UNL     1       3.834   2.027  17.534  0.00  0.00    +0.000 OA
ATOM     19  C   UNL     1       3.849   2.271  18.733  0.00  0.00    +0.000 C 
BRANCH  19  20
ATOM     20  O   UNL     1       4.914   2.851  19.334  0.00  0.00    +0.000 OA
ATOM     21  H   UNL     1       5.621   2.226  19.579  0.00  0.00    +0.000 HD
ENDBRANCH  19  20
ENDBRANCH  17  19
ENDBRANCH  16  17
ENDBRANCH  15  16
ENDBRANCH  14  15
ENDBRANCH  13  14
ENDBRANCH   1  13
TORSDOF 8
ENDMDL
MODEL 4
REMARK VINA RESULT:      -6.1      3.929      7.599
REMARK  Name = 
REMARK  8 active torsions:
REMARK  status: ('A' for Active; 'I' for Inactive)
REMARK    1  A    between atoms: C_2  and  O_3
REMARK    2  A    between atoms: C_2  and  C_4
REMARK    3  A    between atoms: C_4  and  C_5
REMARK    4  A    between atoms: C_5  and  C_6
REMARK    5  A    between atoms: C_6  and  C_7
REMARK    6  A    between atoms: C_7  and  C_8
REMARK    7  A    between atoms: C_8  and  N_9
REMARK    8  A    between atoms: N_12  and  C_13
REMARK                            x       y       z     vdW  Elec       q    Type
REMARK                         _______ _______ _______ _____ _____    ______ ____
ROOT
ATOM      1  N   UNL     1       6.063   5.422  17.577  0.00  0.00    +0.000 N 
ATOM      2  C   UNL     1       4.792   5.952  17.592  0.00  0.00    +0.000 C 
ATOM      3  O   UNL     1       4.529   7.080  17.198  0.00  0.00    +0.000 OA
ATOM      4  N   UNL     1       3.872   5.105  18.161  0.00  0.00    +0.000 N 
ATOM      5  H   UNL     1       6.147   4.419  17.547  0.00  0.00    +0.000 HD
ATOM      6  H   UNL     1       4.135   4.145  18.313  0.00  0.00    +0.000 HD
ENDROOT
BRANCH   4   7
ATOM      7  C   UNL     1       2.464   5.484  18.294  0.00  0.00    +0.000 C 
ATOM      8  C   UNL     1       1.530   4.377  17.788  0.00  0.00    +0.000 C 
ATOM      9  C   UNL     1       1.499   3.174  18.731  0.00  0.00    +0.000 C 
ATOM     10  C   UNL     1       1.095   3.580  20.144  0.00  0.00    +0.000 C 
ATOM     11  C   UNL     1       1.978   4.696  20.694  0.00  0.00    +0.000 C 
ATOM     12  C   UNL     1       2.106   5.880  19.734  0.00  0.00    +0.000 C 
ENDBRANCH   4   7
BRANCH   1  13
ATOM     13  C   UNL     1       7.159   6.229  17.069  0.00  0.00    +0.000 C 
BRANCH  13  14
ATOM     14  C   UNL     1       7.846   7.062  18.148  0.00  0.00    +0.000 C 
BRANCH  14  15
ATOM     15  C   UNL     1       7.910   8.543  17.743  0.00  0.00    +0.000 C 
BRANCH  15  16
ATOM     16  C   UNL     1       8.779   9.363  18.701  0.00  0.00    +0.000 C 
BRANCH  16  17
ATOM     17  C   UNL     1       8.990  10.797  18.198  0.00  0.00    +0.000 C 
BRANCH  17  19
ATOM     18  O   UNL     1      10.867  11.531  19.563  0.00  0.00    +0.000 OA
ATOM     19  C   UNL     1      10.397  11.282  18.459  0.00  0.00    +0.000 C 
BRANCH  19  20
ATOM     20  O   UNL     1      11.119  11.426  17.324  0.00  0.00    +0.000 OA
ATOM     21  H   UNL     1      11.161  10.621  16.775  0.00  0.00    +0.000 HD
ENDBRANCH  19  20
ENDBRANCH  17  19
ENDBRANCH  16  17
ENDBRANCH  15  16
ENDBRANCH  14  15
ENDBRANCH  13  14
ENDBRANCH   1  13
TORSDOF 8
ENDMDL
MODEL 5
REMARK VINA RESULT:      -6.1      2.363      5.519
REMARK  Name = 
REMARK  8 active torsions:
REMARK  status: ('A' for Active; 'I' for Inactive)
REMARK    1  A    between atoms: C_2  and  O_3
REMARK    2  A    between atoms: C_2  and  C_4
REMARK    3  A    between atoms: C_4  and  C_5
REMARK    4  A    between atoms: C_5  and  C_6
REMARK    5  A    between atoms: C_6  and  C_7
REMARK    6  A    between atoms: C_7  and  C_8
REMARK    7  A    between atoms: C_8  and  N_9
REMARK    8  A    between atoms: N_12  and  C_13
REMARK                            x       y       z     vdW  Elec       q    Type
REMARK                         _______ _______ _______ _____ _____    ______ ____
ROOT
ATOM      1  N   UNL     1       5.970   5.035  19.467  0.00  0.00    +0.000 N 
ATOM      2  C   UNL     1       4.718   5.476  19.098  0.00  0.00    +0.000 C 
ATOM      3  O   UNL     1       4.530   6.492  18.443  0.00  0.00    +0.000 OA
ATOM      4  N   UNL     1       3.710   4.694  19.606  0.00  0.00    +0.000 N 
ATOM      5  H   UNL     1       6.078   4.051  19.653  0.00  0.00    +0.000 HD
ATOM      6  H   UNL     1       3.951   3.797  19.997  0.00  0.00    +0.000 HD
ENDROOT
BRANCH   4   7
ATOM      7  C   UNL     1       2.301   5.000  19.350  0.00  0.00    +0.000 C 
ATOM      8  C   UNL     1       1.841   4.451  17.993  0.00  0.00    +0.000 C 
ATOM      9  C   UNL     1       1.712   2.929  18.001  0.00  0.00    +0.000 C 
ATOM     10  C   UNL     1       0.763   2.453  19.096  0.00  0.00    +0.000 C 
ATOM     11  C   UNL     1       1.159   2.985  20.470  0.00  0.00    +0.000 C 
ATOM     12  C   UNL     1       1.387   4.498  20.477  0.00  0.00    +0.000 C 
ENDBRANCH   4   7
BRANCH   1  13
ATOM     13  C   UNL     1       7.136   5.801  19.064  0.00  0.00    +0.000 C 
BRANCH  13  14
ATOM     14  C   UNL     1       7.364   5.805  17.554  0.00  0.00    +0.000 C 
BRANCH  14  15
ATOM     15  C   UNL     1       7.376   4.374  16.995  0.00  0.00    +0.000 C 
BRANCH  15  16
ATOM     16  C   UNL     1       6.151   4.090  16.122  0.00  0.00    +0.000 C 
BRANCH  16  17
ATOM     17  C   UNL     1       5.982   5.136  15.012  0.00  0.00    +0.000 C 
BRANCH  17  19
ATOM     18  O   UNL     1       7.987   5.572  13.702  0.00  0.00    +0.000 OA
ATOM     19  C   UNL     1       6.965   4.922  13.884  0.00  0.00    +0.000 C 
BRANCH  19  20
ATOM     20  O   UNL     1       6.601   3.913  13.059  0.00  0.00    +0.000 OA
ATOM     21  H   UNL     1       6.195   4.210  12.224  0.00  0.00    +0.000 HD
ENDBRANCH  19  20
ENDBRANCH  17  19
ENDBRANCH  16  17
ENDBRANCH  15  16
ENDBRANCH  14  15
ENDBRANCH  13  14
ENDBRANCH   1  13
TORSDOF 8
ENDMDL
MODEL 6
REMARK VINA RESULT:      -6.0      2.837      5.827
REMARK  Name = 
REMARK  8 active torsions:
REMARK  status: ('A' for Active; 'I' for Inactive)
REMARK    1  A    between atoms: C_2  and  O_3
REMARK    2  A    between atoms: C_2  and  C_4
REMARK    3  A    between atoms: C_4  and  C_5
REMARK    4  A    between atoms: C_5  and  C_6
REMARK    5  A    between atoms: C_6  and  C_7
REMARK    6  A    between atoms: C_7  and  C_8
REMARK    7  A    between atoms: C_8  and  N_9
REMARK    8  A    between atoms: N_12  and  C_13
REMARK                            x       y       z     vdW  Elec       q    Type
REMARK                         _______ _______ _______ _____ _____    ______ ____
ROOT
ATOM      1  N   UNL     1       6.278   3.915  18.033  0.00  0.00    +0.000 N 
ATOM      2  C   UNL     1       5.298   4.570  18.746  0.00  0.00    +0.000 C 
ATOM      3  O   UNL     1       5.341   5.765  19.006  0.00  0.00    +0.000 OA
ATOM      4  N   UNL     1       4.311   3.724  19.190  0.00  0.00    +0.000 N 
ATOM      5  H   UNL     1       6.012   3.075  17.544  0.00  0.00    +0.000 HD
ATOM      6  H   UNL     1       4.267   2.795  18.802  0.00  0.00    +0.000 HD
ENDROOT
BRANCH   4   7
ATOM      7  C   UNL     1       3.183   4.214  19.985  0.00  0.00    +0.000 C 
ATOM      8  C   UNL     1       2.102   4.849  19.101  0.00  0.00    +0.000 C 
ATOM      9  C   UNL     1       1.332   3.804  18.294  0.00  0.00    +0.000 C 
ATOM     10  C   UNL     1       0.703   2.749  19.198  0.00  0.00    +0.000 C 
ATOM     11  C   UNL     1       1.730   2.096  20.118  0.00  0.00    +0.000 C 
ATOM     12  C   UNL     1       2.583   3.116  20.874  0.00  0.00    +0.000 C 
ENDBRANCH   4   7
BRANCH   1  13
ATOM     13  C   UNL     1       7.426   4.665  17.557  0.00  0.00    +0.000 C 
BRANCH  13  14
ATOM     14  C   UNL     1       7.412   4.898  16.048  0.00  0.00    +0.000 C 
BRANCH  14  15
ATOM     15  C   UNL     1       6.060   5.467  15.591  0.00  0.00    +0.000 C 
BRANCH  15  16
ATOM     16  C   UNL     1       5.401   4.593  14.521  0.00  0.00    +0.000 C 
BRANCH  16  17
ATOM     17  C   UNL     1       6.429   3.740  13.765  0.00  0.00    +0.000 C 
BRANCH  17  19
ATOM     18  O   UNL     1       4.775   3.500  11.996  0.00  0.00    +0.000 OA
ATOM     19  C   UNL     1       5.884   3.242  12.446  0.00  0.00    +0.000 C 
BRANCH  19  20
ATOM     20  O   UNL     1       6.762   2.454  11.783  0.00  0.00    +0.000 OA
ATOM     21  H   UNL     1       6.665   2.481  10.813  0.00  0.00    +0.000 HD
ENDBRANCH  19  20
ENDBRANCH  17  19
ENDBRANCH  16  17
ENDBRANCH  15  16
ENDBRANCH  14  15
ENDBRANCH  13  14
ENDBRANCH   1  13
TORSDOF 8
ENDMDL
MODEL 7
REMARK VINA RESULT:      -6.0      2.037      5.858
REMARK  Name = 
REMARK  8 active torsions:
REMARK  status: ('A' for Active; 'I' for Inactive)
REMARK    1  A    between atoms: C_2  and  O_3
REMARK    2  A    between atoms: C_2  and  C_4
REMARK    3  A    between atoms: C_4  and  C_5
REMARK    4  A    between atoms: C_5  and  C_6
REMARK    5  A    between atoms: C_6  and  C_7
REMARK    6  A    between atoms: C_7  and  C_8
REMARK    7  A    between atoms: C_8  and  N_9
REMARK    8  A    between atoms: N_12  and  C_13
REMARK                            x       y       z     vdW  Elec       q    Type
REMARK                         _______ _______ _______ _____ _____    ______ ____
ROOT
ATOM      1  N   UNL     1       5.309   3.320  17.036  0.00  0.00    +0.000 N 
ATOM      2  C   UNL     1       3.953   3.456  17.232  0.00  0.00    +0.000 C 
ATOM      3  O   UNL     1       3.205   3.981  16.418  0.00  0.00    +0.000 OA
ATOM      4  N   UNL     1       3.548   3.006  18.465  0.00  0.00    +0.000 N 
ATOM      5  H   UNL     1       5.777   2.578  17.531  0.00  0.00    +0.000 HD
ATOM      6  H   UNL     1       4.190   2.450  19.006  0.00  0.00    +0.000 HD
ENDROOT
BRANCH   4   7
ATOM      7  C   UNL     1       2.146   3.078  18.884  0.00  0.00    +0.000 C 
ATOM      8  C   UNL     1       1.846   2.096  20.024  0.00  0.00    +0.000 C 
ATOM      9  C   UNL     1       2.467   2.542  21.346  0.00  0.00    +0.000 C 
ATOM     10  C   UNL     1       2.006   3.942  21.739  0.00  0.00    +0.000 C 
ATOM     11  C   UNL     1       2.261   4.961  20.632  0.00  0.00    +0.000 C 
ATOM     12  C   UNL     1       1.732   4.505  19.272  0.00  0.00    +0.000 C 
ENDBRANCH   4   7
BRANCH   1  13
ATOM     13  C   UNL     1       5.899   3.817  15.805  0.00  0.00    +0.000 C 
BRANCH  13  14
ATOM     14  C   UNL     1       7.227   4.538  16.020  0.00  0.00    +0.000 C 
BRANCH  14  15
ATOM     15  C   UNL     1       7.032   6.062  16.023  0.00  0.00    +0.000 C 
BRANCH  15  16
ATOM     16  C   UNL     1       6.568   6.578  17.389  0.00  0.00    +0.000 C 
BRANCH  16  17
ATOM     17  C   UNL     1       7.656   6.422  18.460  0.00  0.00    +0.000 C 
BRANCH  17  19
ATOM     18  O   UNL     1       6.255   4.731  19.510  0.00  0.00    +0.000 OA
ATOM     19  C   UNL     1       7.239   5.459  19.548  0.00  0.00    +0.000 C 
BRANCH  19  20
ATOM     20  O   UNL     1       8.079   5.475  20.609  0.00  0.00    +0.000 OA
ATOM     21  H   UNL     1       8.638   6.272  20.660  0.00  0.00    +0.000 HD
ENDBRANCH  19  20
ENDBRANCH  17  19
ENDBRANCH  16  17
ENDBRANCH  15  16
ENDBRANCH  14  15
ENDBRANCH  13  14
ENDBRANCH   1  13
TORSDOF 8
ENDMDL
MODEL 8
REMARK VINA RESULT:      -5.9      2.961      5.963
REMARK  Name = 
REMARK  8 active torsions:
REMARK  status: ('A' for Active; 'I' for Inactive)
REMARK    1  A    between atoms: C_2  and  O_3
REMARK    2  A    between atoms: C_2  and  C_4
REMARK    3  A    between atoms: C_4  and  C_5
REMARK    4  A    between atoms: C_5  and  C_6
REMARK    5  A    between atoms: C_6  and  C_7
REMARK    6  A    between atoms: C_7  and  C_8
REMARK    7  A    between atoms: C_8  and  N_9
REMARK    8  A    between atoms: N_12  and  C_13
REMARK                            x       y       z     vdW  Elec       q    Type
REMARK                         _______ _______ _______ _____ _____    ______ ____
ROOT
ATOM      1  N   UNL     1       5.304   5.501  17.265  0.00  0.00    +0.000 N 
ATOM      2  C   UNL     1       5.196   4.809  18.450  0.00  0.00    +0.000 C 
ATOM      3  O   UNL     1       6.161   4.391  19.075  0.00  0.00    +0.000 OA
ATOM      4  N   UNL     1       3.891   4.579  18.812  0.00  0.00    +0.000 N 
ATOM      5  H   UNL     1       4.548   6.120  17.018  0.00  0.00    +0.000 HD
ATOM      6  H   UNL     1       3.165   5.087  18.333  0.00  0.00    +0.000 HD
ENDROOT
BRANCH   4   7
ATOM      7  C   UNL     1       3.554   3.842  20.031  0.00  0.00    +0.000 C 
ATOM      8  C   UNL     1       2.400   4.506  20.793  0.00  0.00    +0.000 C 
ATOM      9  C   UNL     1       1.060   4.327  20.080  0.00  0.00    +0.000 C 
ATOM     10  C   UNL     1       0.741   2.854  19.847  0.00  0.00    +0.000 C 
ATOM     11  C   UNL     1       1.865   2.134  19.109  0.00  0.00    +0.000 C 
ATOM     12  C   UNL     1       3.237   2.366  19.744  0.00  0.00    +0.000 C 
ENDBRANCH   4   7
BRANCH   1  13
ATOM     13  C   UNL     1       6.623   5.760  16.715  0.00  0.00    +0.000 C 
BRANCH  13  14
ATOM     14  C   UNL     1       7.135   4.635  15.817  0.00  0.00    +0.000 C 
BRANCH  14  15
ATOM     15  C   UNL     1       5.969   3.820  15.238  0.00  0.00    +0.000 C 
BRANCH  15  16
ATOM     16  C   UNL     1       5.565   4.306  13.844  0.00  0.00    +0.000 C 
BRANCH  16  17
ATOM     17  C   UNL     1       6.353   3.594  12.737  0.00  0.00    +0.000 C 
BRANCH  17  19
ATOM     18  O   UNL     1       5.733   1.666  11.386  0.00  0.00    +0.000 OA
ATOM     19  C   UNL     1       5.452   2.764  11.851  0.00  0.00    +0.000 C 
BRANCH  19  20
ATOM     20  O   UNL     1       4.265   3.365  11.605  0.00  0.00    +0.000 OA
ATOM     21  H   UNL     1       3.797   3.661  12.407  0.00  0.00    +0.000 HD
ENDBRANCH  19  20
ENDBRANCH  17  19
ENDBRANCH  16  17
ENDBRANCH  15  16
ENDBRANCH  14  15
ENDBRANCH  13  14
ENDBRANCH   1  13
TORSDOF 8
ENDMDL
MODEL 9
REMARK VINA RESULT:      -5.9      2.818      5.869
REMARK  Name = 
REMARK  8 active torsions:
REMARK  status: ('A' for Active; 'I' for Inactive)
REMARK    1  A    between atoms: C_2  and  O_3
REMARK    2  A    between atoms: C_2  and  C_4
REMARK    3  A    between atoms: C_4  and  C_5
REMARK    4  A    between atoms: C_5  and  C_6
REMARK    5  A    between atoms: C_6  and  C_7
REMARK    6  A    between atoms: C_7  and  C_8
REMARK    7  A    between atoms: C_8  and  N_9
REMARK    8  A    between atoms: N_12  and  C_13
REMARK                            x       y       z     vdW  Elec       q    Type
REMARK                         _______ _______ _______ _____ _____    ______ ____
ROOT
ATOM      1  N   UNL     1       5.338   5.778  17.792  0.00  0.00    +0.000 N 
ATOM      2  C   UNL     1       5.170   4.854  18.799  0.00  0.00    +0.000 C 
ATOM      3  O   UNL     1       6.101   4.369  19.427  0.00  0.00    +0.000 OA
ATOM      4  N   UNL     1       3.857   4.487  18.968  0.00  0.00    +0.000 N 
ATOM      5  H   UNL     1       4.565   6.394  17.594  0.00  0.00    +0.000 HD
ATOM      6  H   UNL     1       3.144   5.044  18.525  0.00  0.00    +0.000 HD
ENDROOT
BRANCH   4   7
ATOM      7  C   UNL     1       3.463   3.500  19.975  0.00  0.00    +0.000 C 
ATOM      8  C   UNL     1       2.385   4.052  20.917  0.00  0.00    +0.000 C 
ATOM      9  C   UNL     1       1.028   4.180  20.226  0.00  0.00    +0.000 C 
ATOM     10  C   UNL     1       0.567   2.848  19.643  0.00  0.00    +0.000 C 
ATOM     11  C   UNL     1       1.610   2.239  18.712  0.00  0.00    +0.000 C 
ATOM     12  C   UNL     1       3.003   2.179  19.339  0.00  0.00    +0.000 C 
ENDBRANCH   4   7
BRANCH   1  13
ATOM     13  C   UNL     1       6.680   6.212  17.447  0.00  0.00    +0.000 C 
BRANCH  13  14
ATOM     14  C   UNL     1       7.222   5.551  16.182  0.00  0.00    +0.000 C 
BRANCH  14  15
ATOM     15  C   UNL     1       6.119   5.395  15.125  0.00  0.00    +0.000 C 
BRANCH  15  16
ATOM     16  C   UNL     1       5.855   3.926  14.783  0.00  0.00    +0.000 C 
BRANCH  16  17
ATOM     17  C   UNL     1       5.284   3.760  13.368  0.00  0.00    +0.000 C 
BRANCH  17  19
ATOM     18  O   UNL     1       7.157   4.289  11.905  0.00  0.00    +0.000 OA
ATOM     19  C   UNL     1       6.369   3.468  12.356  0.00  0.00    +0.000 C 
BRANCH  19  20
ATOM     20  O   UNL     1       6.390   2.170  11.975  0.00  0.00    +0.000 OA
ATOM     21  H   UNL     1       7.036   1.624  12.461  0.00  0.00    +0.000 HD
ENDBRANCH  19  20
ENDBRANCH  17  19
ENDBRANCH  16  17
ENDBRANCH  15  16
ENDBRANCH  14  15
ENDBRANCH  13  14
ENDBRANCH   1  13
TORSDOF 8
ENDMDL
