MODEL 1
REMARK VINA RESULT:      -7.6      0.000      0.000
REMARK  Name = 
REMARK  7 active torsions:
REMARK  status: ('A' for Active; 'I' for Inactive)
REMARK    1  A    between atoms: S_2  and  N_4
REMARK    2  A    between atoms: S_2  and  C_22
REMARK    3  A    between atoms: N_4  and  C_5
REMARK    4  A    between atoms: C_5  and  C_6
REMARK    5  A    between atoms: C_6  and  S_7
REMARK    6  A    between atoms: S_7  and  N_10
REMARK    7  A    between atoms: N_13  and  C_14
REMARK                            x       y       z     vdW  Elec       q    Type
REMARK                         _______ _______ _______ _____ _____    ______ ____
ROOT
ATOM      1  S   UNL     1       2.957   6.180  18.656  0.00  0.00    +0.000 S 
ATOM      2  O   UNL     1       2.656   6.270  20.069  0.00  0.00    +0.000 OA
ATOM      3  O   UNL     1       2.067   5.479  17.748  0.00  0.00    +0.000 OA
ENDROOT
BRANCH   1   4
ATOM      4  N   UNL     1       4.498   5.476  18.500  0.00  0.00    +0.000 NA
ATOM      5  C   UNL     1       4.567   4.008  18.066  0.00  0.00    +0.000 C 
ATOM      6  C   UNL     1       4.531   3.752  16.509  0.00  0.00    +0.000 C 
ATOM      7  N   UNL     1       5.349   4.752  15.798  0.00  0.00    +0.000 N 
ATOM      8  C   UNL     1       4.998   6.133  16.166  0.00  0.00    +0.000 C 
ATOM      9  C   UNL     1       5.419   6.290  17.628  0.00  0.00    +0.000 C 
BRANCH   7  10
ATOM     10  C   UNL     1       5.955   4.630  14.563  0.00  0.00    +0.000 A 
ATOM     11  C   UNL     1       7.130   5.281  14.181  0.00  0.00    +0.000 A 
ATOM     12  C   UNL     1       7.744   4.977  12.952  0.00  0.00    +0.000 A 
ATOM     13  C   UNL     1       7.187   4.040  12.081  0.00  0.00    +0.000 A 
ATOM     14  C   UNL     1       5.988   3.428  12.412  0.00  0.00    +0.000 A 
ATOM     15  C   UNL     1       5.384   3.740  13.627  0.00  0.00    +0.000 A 
ENDBRANCH   7  10
ENDBRANCH   1   4
BRANCH   1  16
ATOM     16  C   UNL     1       3.141   7.828  18.006  0.00  0.00    +0.000 C 
BRANCH  16  17
ATOM     17  C   UNL     1       1.831   8.574  17.814  0.00  0.00    +0.000 C 
BRANCH  17  18
ATOM     18  N   UNL     1       1.242   9.016  19.093  0.00  0.00    +0.000 NA
ATOM     19  H   UNL     1       0.501   8.423  19.489  0.00  0.00    +0.000 HD
BRANCH  18  21
ATOM     20  O   UNL     1       0.907  10.904  20.746  0.00  0.00    +0.000 OA
ATOM     21  S   UNL     1       0.931  10.661  19.323  0.00  0.00    +0.000 S 
ATOM     22  O   UNL     1       1.790  11.403  18.426  0.00  0.00    +0.000 OA
BRANCH  21  23
ATOM     23  C   UNL     1      -0.743  10.817  18.741  0.00  0.00    +0.000 A 
ATOM     24  C   UNL     1      -1.593  11.729  19.375  0.00  0.00    +0.000 A 
ATOM     25  C   UNL     1      -2.923  11.831  18.964  0.00  0.00    +0.000 A 
ATOM     26  C   UNL     1      -3.388  11.033  17.916  0.00  0.00    +0.000 A 
ATOM     27 CL   UNL     1      -5.035  11.139  17.433  0.00  0.00    +0.000 Cl
ATOM     28  C   UNL     1      -2.528  10.147  17.261  0.00  0.00    +0.000 A 
ATOM     29  C   UNL     1      -1.197  10.038  17.671  0.00  0.00    +0.000 A 
ENDBRANCH  21  23
ENDBRANCH  18  21
ENDBRANCH  17  18
ENDBRANCH  16  17
ENDBRANCH   1  16
TORSDOF 7
ENDMDL
MODEL 2
REMARK VINA RESULT:      -7.5      4.625      6.870
REMARK  Name = 
REMARK  7 active torsions:
REMARK  status: ('A' for Active; 'I' for Inactive)
REMARK    1  A    between atoms: S_2  and  N_4
REMARK    2  A    between atoms: S_2  and  C_22
REMARK    3  A    between atoms: N_4  and  C_5
REMARK    4  A    between atoms: C_5  and  C_6
REMARK    5  A    between atoms: C_6  and  S_7
REMARK    6  A    between atoms: S_7  and  N_10
REMARK    7  A    between atoms: N_13  and  C_14
REMARK                            x       y       z     vdW  Elec       q    Type
REMARK                         _______ _______ _______ _____ _____    ______ ____
ROOT
ATOM      1  S   UNL     1       7.144   4.789  16.370  0.00  0.00    +0.000 S 
ATOM      2  O   UNL     1       8.210   4.040  16.999  0.00  0.00    +0.000 OA
ATOM      3  O   UNL     1       7.394   5.583  15.180  0.00  0.00    +0.000 OA
ENDROOT
BRANCH   1   4
ATOM      4  N   UNL     1       6.480   5.828  17.542  0.00  0.00    +0.000 NA
ATOM      5  C   UNL     1       7.203   5.933  18.889  0.00  0.00    +0.000 C 
ATOM      6  C   UNL     1       8.387   6.976  18.950  0.00  0.00    +0.000 C 
ATOM      7  N   UNL     1       8.033   8.210  18.225  0.00  0.00    +0.000 N 
ATOM      8  C   UNL     1       7.565   7.945  16.855  0.00  0.00    +0.000 C 
ATOM      9  C   UNL     1       6.229   7.215  17.008  0.00  0.00    +0.000 C 
BRANCH   7  10
ATOM     10  C   UNL     1       8.536   9.481  18.417  0.00  0.00    +0.000 A 
ATOM     11  C   UNL     1       8.321  10.564  17.561  0.00  0.00    +0.000 A 
ATOM     12  C   UNL     1       8.755  11.853  17.922  0.00  0.00    +0.000 A 
ATOM     13  C   UNL     1       9.427  12.076  19.124  0.00  0.00    +0.000 A 
ATOM     14  C   UNL     1       9.706  11.006  19.960  0.00  0.00    +0.000 A 
ATOM     15  C   UNL     1       9.278   9.733  19.592  0.00  0.00    +0.000 A 
ENDBRANCH   7  10
ENDBRANCH   1   4
BRANCH   1  16
ATOM     16  C   UNL     1       5.825   3.665  15.957  0.00  0.00    +0.000 C 
BRANCH  16  17
ATOM     17  C   UNL     1       4.474   4.047  16.539  0.00  0.00    +0.000 C 
BRANCH  17  18
ATOM     18  N   UNL     1       4.373   3.735  17.978  0.00  0.00    +0.000 NA
ATOM     19  H   UNL     1       5.111   3.136  18.373  0.00  0.00    +0.000 HD
BRANCH  18  21
ATOM     20  O   UNL     1       1.964   3.098  17.535  0.00  0.00    +0.000 OA
ATOM     21  S   UNL     1       2.854   3.389  18.634  0.00  0.00    +0.000 S 
ATOM     22  O   UNL     1       3.048   2.473  19.737  0.00  0.00    +0.000 OA
BRANCH  21  23
ATOM     23  C   UNL     1       2.360   4.963  19.300  0.00  0.00    +0.000 A 
ATOM     24  C   UNL     1       2.700   6.126  18.600  0.00  0.00    +0.000 A 
ATOM     25  C   UNL     1       2.363   7.372  19.131  0.00  0.00    +0.000 A 
ATOM     26  C   UNL     1       1.679   7.446  20.346  0.00  0.00    +0.000 A 
ATOM     27 CL   UNL     1       1.293   8.984  21.012  0.00  0.00    +0.000 Cl
ATOM     28  C   UNL     1       1.311   6.282  21.026  0.00  0.00    +0.000 A 
ATOM     29  C   UNL     1       1.649   5.033  20.503  0.00  0.00    +0.000 A 
ENDBRANCH  21  23
ENDBRANCH  18  21
ENDBRANCH  17  18
ENDBRANCH  16  17
ENDBRANCH   1  16
TORSDOF 7
ENDMDL
MODEL 3
REMARK VINA RESULT:      -7.5      2.075      2.683
REMARK  Name = 
REMARK  7 active torsions:
REMARK  status: ('A' for Active; 'I' for Inactive)
REMARK    1  A    between atoms: S_2  and  N_4
REMARK    2  A    between atoms: S_2  and  C_22
REMARK    3  A    between atoms: N_4  and  C_5
REMARK    4  A    between atoms: C_5  and  C_6
REMARK    5  A    between atoms: C_6  and  S_7
REMARK    6  A    between atoms: S_7  and  N_10
REMARK    7  A    between atoms: N_13  and  C_14
REMARK                            x       y       z     vdW  Elec       q    Type
REMARK                         _______ _______ _______ _____ _____    ______ ____
ROOT
ATOM      1  S   UNL     1       2.809   6.327  18.331  0.00  0.00    +0.000 S 
ATOM      2  O   UNL     1       1.975   5.217  17.921  0.00  0.00    +0.000 OA
ATOM      3  O   UNL     1       2.758   7.596  17.627  0.00  0.00    +0.000 OA
ENDROOT
BRANCH   1   4
ATOM      4  N   UNL     1       4.425   5.796  18.304  0.00  0.00    +0.000 NA
ATOM      5  C   UNL     1       4.676   4.294  18.127  0.00  0.00    +0.000 C 
ATOM      6  C   UNL     1       4.709   3.776  16.636  0.00  0.00    +0.000 C 
ATOM      7  N   UNL     1       5.421   4.732  15.768  0.00  0.00    +0.000 N 
ATOM      8  C   UNL     1       4.901   6.104  15.893  0.00  0.00    +0.000 C 
ATOM      9  C   UNL     1       5.265   6.555  17.309  0.00  0.00    +0.000 C 
BRANCH   7  10
ATOM     10  C   UNL     1       6.067   4.477  14.575  0.00  0.00    +0.000 A 
ATOM     11  C   UNL     1       5.611   3.596  13.592  0.00  0.00    +0.000 A 
ATOM     12  C   UNL     1       6.266   3.516  12.349  0.00  0.00    +0.000 A 
ATOM     13  C   UNL     1       7.393   4.293  12.078  0.00  0.00    +0.000 A 
ATOM     14  C   UNL     1       7.899   5.128  13.062  0.00  0.00    +0.000 A 
ATOM     15  C   UNL     1       7.248   5.196  14.290  0.00  0.00    +0.000 A 
ENDBRANCH   7  10
ENDBRANCH   1   4
BRANCH   1  16
ATOM     16  C   UNL     1       2.476   6.688  20.043  0.00  0.00    +0.000 C 
BRANCH  16  17
ATOM     17  C   UNL     1       1.885   8.067  20.288  0.00  0.00    +0.000 C 
BRANCH  17  18
ATOM     18  N   UNL     1       1.691   8.349  21.723  0.00  0.00    +0.000 NA
ATOM     19  H   UNL     1       2.001   7.622  22.382  0.00  0.00    +0.000 HD
BRANCH  18  21
ATOM     20  O   UNL     1      -0.825   8.178  21.939  0.00  0.00    +0.000 OA
ATOM     21  S   UNL     1       0.257   9.091  22.223  0.00  0.00    +0.000 S 
ATOM     22  O   UNL     1       0.481   9.640  23.542  0.00  0.00    +0.000 OA
BRANCH  21  23
ATOM     23  C   UNL     1       0.110  10.444  21.077  0.00  0.00    +0.000 A 
ATOM     24  C   UNL     1       0.914  11.575  21.264  0.00  0.00    +0.000 A 
ATOM     25  C   UNL     1       0.779  12.665  20.404  0.00  0.00    +0.000 A 
ATOM     26  C   UNL     1      -0.144  12.612  19.358  0.00  0.00    +0.000 A 
ATOM     27 CL   UNL     1      -0.330  13.971  18.319  0.00  0.00    +0.000 Cl
ATOM     28  C   UNL     1      -0.921  11.470  19.151  0.00  0.00    +0.000 A 
ATOM     29  C   UNL     1      -0.794  10.377  20.012  0.00  0.00    +0.000 A 
ENDBRANCH  21  23
ENDBRANCH  18  21
ENDBRANCH  17  18
ENDBRANCH  16  17
ENDBRANCH   1  16
TORSDOF 7
ENDMDL
MODEL 4
REMARK VINA RESULT:      -7.5      6.272      8.373
REMARK  Name = 
REMARK  7 active torsions:
REMARK  status: ('A' for Active; 'I' for Inactive)
REMARK    1  A    between atoms: S_2  and  N_4
REMARK    2  A    between atoms: S_2  and  C_22
REMARK    3  A    between atoms: N_4  and  C_5
REMARK    4  A    between atoms: C_5  and  C_6
REMARK    5  A    between atoms: C_6  and  S_7
REMARK    6  A    between atoms: S_7  and  N_10
REMARK    7  A    between atoms: N_13  and  C_14
REMARK                            x       y       z     vdW  Elec       q    Type
REMARK                         _______ _______ _______ _____ _____    ______ ____
ROOT
ATOM      1  S   UNL     1       7.012   6.590  17.037  0.00  0.00    +0.000 S 
ATOM      2  O   UNL     1       5.713   7.223  16.970  0.00  0.00    +0.000 OA
ATOM      3  O   UNL     1       7.752   6.277  15.828  0.00  0.00    +0.000 OA
ENDROOT
BRANCH   1   4
ATOM      4  N   UNL     1       6.836   5.141  17.912  0.00  0.00    +0.000 NA
ATOM      5  C   UNL     1       6.432   5.247  19.386  0.00  0.00    +0.000 C 
ATOM      6  C   UNL     1       4.881   5.350  19.666  0.00  0.00    +0.000 C 
ATOM      7  N   UNL     1       4.131   4.444  18.776  0.00  0.00    +0.000 N 
ATOM      8  C   UNL     1       4.477   4.630  17.358  0.00  0.00    +0.000 C 
ATOM      9  C   UNL     1       5.926   4.158  17.221  0.00  0.00    +0.000 C 
BRANCH   7  10
ATOM     10  C   UNL     1       2.885   3.887  18.988  0.00  0.00    +0.000 A 
ATOM     11  C   UNL     1       2.171   3.145  18.045  0.00  0.00    +0.000 A 
ATOM     12  C   UNL     1       0.975   2.497  18.407  0.00  0.00    +0.000 A 
ATOM     13  C   UNL     1       0.465   2.598  19.702  0.00  0.00    +0.000 A 
ATOM     14  C   UNL     1       1.125   3.381  20.637  0.00  0.00    +0.000 A 
ATOM     15  C   UNL     1       2.304   4.023  20.268  0.00  0.00    +0.000 A 
ENDBRANCH   7  10
ENDBRANCH   1   4
BRANCH   1  16
ATOM     16  C   UNL     1       8.087   7.598  18.038  0.00  0.00    +0.000 C 
BRANCH  16  17
ATOM     17  C   UNL     1       7.926   9.094  17.816  0.00  0.00    +0.000 C 
BRANCH  17  18
ATOM     18  N   UNL     1       8.857   9.888  18.641  0.00  0.00    +0.000 NA
ATOM     19  H   UNL     1       8.742   9.820  19.661  0.00  0.00    +0.000 HD
BRANCH  18  21
ATOM     20  O   UNL     1      10.628  11.444  17.720  0.00  0.00    +0.000 OA
ATOM     21  S   UNL     1       9.249  11.456  18.148  0.00  0.00    +0.000 S 
ATOM     22  O   UNL     1       8.179  11.933  17.300  0.00  0.00    +0.000 OA
BRANCH  21  23
ATOM     23  C   UNL     1       9.189  12.362  19.679  0.00  0.00    +0.000 A 
ATOM     24  C   UNL     1       8.961  13.742  19.635  0.00  0.00    +0.000 A 
ATOM     25  C   UNL     1       8.958  14.477  20.821  0.00  0.00    +0.000 A 
ATOM     26  C   UNL     1       9.167  13.828  22.039  0.00  0.00    +0.000 A 
ATOM     27 CL   UNL     1       9.193  14.742  23.496  0.00  0.00    +0.000 Cl
ATOM     28  C   UNL     1       9.360  12.445  22.084  0.00  0.00    +0.000 A 
ATOM     29  C   UNL     1       9.369  11.704  20.900  0.00  0.00    +0.000 A 
ENDBRANCH  21  23
ENDBRANCH  18  21
ENDBRANCH  17  18
ENDBRANCH  16  17
ENDBRANCH   1  16
TORSDOF 7
ENDMDL
MODEL 5
REMARK VINA RESULT:      -7.5      4.460      8.519
REMARK  Name = 
REMARK  7 active torsions:
REMARK  status: ('A' for Active; 'I' for Inactive)
REMARK    1  A    between atoms: S_2  and  N_4
REMARK    2  A    between atoms: S_2  and  C_22
REMARK    3  A    between atoms: N_4  and  C_5
REMARK    4  A    between atoms: C_5  and  C_6
REMARK    5  A    between atoms: C_6  and  S_7
REMARK    6  A    between atoms: S_7  and  N_10
REMARK    7  A    between atoms: N_13  and  C_14
REMARK                            x       y       z     vdW  Elec       q    Type
REMARK                         _______ _______ _______ _____ _____    ______ ____
ROOT
ATOM      1  S   UNL     1       3.554   3.169  19.165  0.00  0.00    +0.000 S 
ATOM      2  O   UNL     1       3.902   2.732  17.831  0.00  0.00    +0.000 OA
ATOM      3  O   UNL     1       3.531   2.232  20.274  0.00  0.00    +0.000 OA
ENDROOT
BRANCH   1   4
ATOM      4  N   UNL     1       2.018   3.898  19.085  0.00  0.00    +0.000 NA
ATOM      5  C   UNL     1       1.477   4.556  20.359  0.00  0.00    +0.000 C 
ATOM      6  C   UNL     1       1.931   6.047  20.605  0.00  0.00    +0.000 C 
ATOM      7  N   UNL     1       1.924   6.809  19.343  0.00  0.00    +0.000 N 
ATOM      8  C   UNL     1       2.686   6.140  18.276  0.00  0.00    +0.000 C 
ATOM      9  C   UNL     1       1.900   4.872  17.940  0.00  0.00    +0.000 C 
BRANCH   7  10
ATOM     10  C   UNL     1       1.791   8.173  19.175  0.00  0.00    +0.000 A 
ATOM     11  C   UNL     1       2.175   8.880  18.034  0.00  0.00    +0.000 A 
ATOM     12  C   UNL     1       1.862  10.246  17.905  0.00  0.00    +0.000 A 
ATOM     13  C   UNL     1       1.186  10.929  18.916  0.00  0.00    +0.000 A 
ATOM     14  C   UNL     1       0.850  10.262  20.084  0.00  0.00    +0.000 A 
ATOM     15  C   UNL     1       1.169   8.912  20.206  0.00  0.00    +0.000 A 
ENDBRANCH   7  10
ENDBRANCH   1   4
BRANCH   1  16
ATOM     16  C   UNL     1       4.657   4.484  19.640  0.00  0.00    +0.000 C 
BRANCH  16  17
ATOM     17  C   UNL     1       5.988   4.479  18.906  0.00  0.00    +0.000 C 
BRANCH  17  18
ATOM     18  N   UNL     1       5.967   5.326  17.697  0.00  0.00    +0.000 NA
ATOM     19  H   UNL     1       5.082   5.361  17.174  0.00  0.00    +0.000 HD
BRANCH  18  21
ATOM     20  O   UNL     1       7.689   6.694  16.444  0.00  0.00    +0.000 OA
ATOM     21  S   UNL     1       7.311   5.319  16.672  0.00  0.00    +0.000 S 
ATOM     22  O   UNL     1       8.243   4.333  17.173  0.00  0.00    +0.000 OA
BRANCH  21  23
ATOM     23  C   UNL     1       6.624   4.709  15.149  0.00  0.00    +0.000 A 
ATOM     24  C   UNL     1       5.320   4.200  15.155  0.00  0.00    +0.000 A 
ATOM     25  C   UNL     1       4.782   3.673  13.980  0.00  0.00    +0.000 A 
ATOM     26  C   UNL     1       5.542   3.672  12.809  0.00  0.00    +0.000 A 
ATOM     27 CL   UNL     1       4.886   2.993  11.371  0.00  0.00    +0.000 Cl
ATOM     28  C   UNL     1       6.831   4.211  12.796  0.00  0.00    +0.000 A 
ATOM     29  C   UNL     1       7.377   4.736  13.970  0.00  0.00    +0.000 A 
ENDBRANCH  21  23
ENDBRANCH  18  21
ENDBRANCH  17  18
ENDBRANCH  16  17
ENDBRANCH   1  16
TORSDOF 7
ENDMDL
MODEL 6
REMARK VINA RESULT:      -7.4      2.063      2.591
REMARK  Name = 
REMARK  7 active torsions:
REMARK  status: ('A' for Active; 'I' for Inactive)
REMARK    1  A    between atoms: S_2  and  N_4
REMARK    2  A    between atoms: S_2  and  C_22
REMARK    3  A    between atoms: N_4  and  C_5
REMARK    4  A    between atoms: C_5  and  C_6
REMARK    5  A    between atoms: C_6  and  S_7
REMARK    6  A    between atoms: S_7  and  N_10
REMARK    7  A    between atoms: N_13  and  C_14
REMARK                            x       y       z     vdW  Elec       q    Type
REMARK                         _______ _______ _______ _____ _____    ______ ____
ROOT
ATOM      1  S   UNL     1       2.955   6.230  18.500  0.00  0.00    +0.000 S 
ATOM      2  O   UNL     1       2.076   5.273  17.863  0.00  0.00    +0.000 OA
ATOM      3  O   UNL     1       2.972   7.620  18.080  0.00  0.00    +0.000 OA
ENDROOT
BRANCH   1   4
ATOM      4  N   UNL     1       4.546   5.641  18.365  0.00  0.00    +0.000 NA
ATOM      5  C   UNL     1       4.727   4.160  18.017  0.00  0.00    +0.000 C 
ATOM      6  C   UNL     1       4.698   3.809  16.478  0.00  0.00    +0.000 C 
ATOM      7  N   UNL     1       5.428   4.827  15.699  0.00  0.00    +0.000 N 
ATOM      8  C   UNL     1       4.972   6.195  15.990  0.00  0.00    +0.000 C 
ATOM      9  C   UNL     1       5.392   6.472  17.434  0.00  0.00    +0.000 C 
BRANCH   7  10
ATOM     10  C   UNL     1       6.031   4.679  14.465  0.00  0.00    +0.000 A 
ATOM     11  C   UNL     1       7.186   5.348  14.055  0.00  0.00    +0.000 A 
ATOM     12  C   UNL     1       7.803   5.020  12.833  0.00  0.00    +0.000 A 
ATOM     13  C   UNL     1       7.267   4.039  11.997  0.00  0.00    +0.000 A 
ATOM     14  C   UNL     1       6.087   3.406  12.356  0.00  0.00    +0.000 A 
ATOM     15  C   UNL     1       5.480   3.743  13.563  0.00  0.00    +0.000 A 
ENDBRANCH   7  10
ENDBRANCH   1   4
BRANCH   1  16
ATOM     16  C   UNL     1       2.619   6.237  20.249  0.00  0.00    +0.000 C 
BRANCH  16  17
ATOM     17  C   UNL     1       1.351   6.980  20.639  0.00  0.00    +0.000 C 
BRANCH  17  18
ATOM     18  N   UNL     1       1.634   8.223  21.382  0.00  0.00    +0.000 NA
ATOM     19  H   UNL     1       2.466   8.220  21.987  0.00  0.00    +0.000 HD
BRANCH  18  21
ATOM     20  O   UNL     1      -0.825   8.232  21.982  0.00  0.00    +0.000 OA
ATOM     21  S   UNL     1       0.347   9.071  22.075  0.00  0.00    +0.000 S 
ATOM     22  O   UNL     1       0.806   9.621  23.331  0.00  0.00    +0.000 OA
BRANCH  21  23
ATOM     23  C   UNL     1       0.117  10.415  20.932  0.00  0.00    +0.000 A 
ATOM     24  C   UNL     1      -0.506  10.155  19.706  0.00  0.00    +0.000 A 
ATOM     25  C   UNL     1      -0.652  11.186  18.777  0.00  0.00    +0.000 A 
ATOM     26  C   UNL     1      -0.190  12.467  19.085  0.00  0.00    +0.000 A 
ATOM     27 CL   UNL     1      -0.344  13.728  17.924  0.00  0.00    +0.000 Cl
ATOM     28  C   UNL     1       0.401  12.732  20.323  0.00  0.00    +0.000 A 
ATOM     29  C   UNL     1       0.554  11.704  21.255  0.00  0.00    +0.000 A 
ENDBRANCH  21  23
ENDBRANCH  18  21
ENDBRANCH  17  18
ENDBRANCH  16  17
ENDBRANCH   1  16
TORSDOF 7
ENDMDL
MODEL 7
REMARK VINA RESULT:      -7.4      6.027      7.999
REMARK  Name = 
REMARK  7 active torsions:
REMARK  status: ('A' for Active; 'I' for Inactive)
REMARK    1  A    between atoms: S_2  and  N_4
REMARK    2  A    between atoms: S_2  and  C_22
REMARK    3  A    between atoms: N_4  and  C_5
REMARK    4  A    between atoms: C_5  and  C_6
REMARK    5  A    between atoms: C_6  and  S_7
REMARK    6  A    between atoms: S_7  and  N_10
REMARK    7  A    between atoms: N_13  and  C_14
REMARK                            x       y       z     vdW  Elec       q    Type
REMARK                         _______ _______ _______ _____ _____    ______ ____
ROOT
ATOM      1  S   UNL     1       6.958   6.757  17.238  0.00  0.00    +0.000 S 
ATOM      2  O   UNL     1       7.842   6.352  16.166  0.00  0.00    +0.000 OA
ATOM      3  O   UNL     1       7.029   6.123  18.542  0.00  0.00    +0.000 OA
ENDROOT
BRANCH   1   4
ATOM      4  N   UNL     1       5.359   6.589  16.679  0.00  0.00    +0.000 NA
ATOM      5  C   UNL     1       4.947   5.229  16.106  0.00  0.00    +0.000 C 
ATOM      6  C   UNL     1       4.460   4.160  17.161  0.00  0.00    +0.000 C 
ATOM      7  N   UNL     1       3.616   4.793  18.192  0.00  0.00    +0.000 N 
ATOM      8  C   UNL     1       4.261   5.963  18.809  0.00  0.00    +0.000 C 
ATOM      9  C   UNL     1       4.342   7.019  17.705  0.00  0.00    +0.000 C 
BRANCH   7  10
ATOM     10  C   UNL     1       2.647   4.200  18.976  0.00  0.00    +0.000 A 
ATOM     11  C   UNL     1       1.610   3.398  18.495  0.00  0.00    +0.000 A 
ATOM     12  C   UNL     1       0.759   2.722  19.389  0.00  0.00    +0.000 A 
ATOM     13  C   UNL     1       0.916   2.853  20.770  0.00  0.00    +0.000 A 
ATOM     14  C   UNL     1       1.899   3.693  21.269  0.00  0.00    +0.000 A 
ATOM     15  C   UNL     1       2.732   4.363  20.376  0.00  0.00    +0.000 A 
ENDBRANCH   7  10
ENDBRANCH   1   4
BRANCH   1  16
ATOM     16  C   UNL     1       7.162   8.504  17.515  0.00  0.00    +0.000 C 
BRANCH  16  17
ATOM     17  C   UNL     1       8.398   8.868  18.323  0.00  0.00    +0.000 C 
BRANCH  17  18
ATOM     18  N   UNL     1       8.948  10.184  17.945  0.00  0.00    +0.000 NA
ATOM     19  H   UNL     1       9.420  10.242  17.032  0.00  0.00    +0.000 HD
BRANCH  18  21
ATOM     20  O   UNL     1       9.354  10.578  20.412  0.00  0.00    +0.000 OA
ATOM     21  S   UNL     1       9.727  11.112  19.123  0.00  0.00    +0.000 S 
ATOM     22  O   UNL     1      11.107  11.269  18.721  0.00  0.00    +0.000 OA
BRANCH  21  23
ATOM     23  C   UNL     1       8.920  12.690  18.960  0.00  0.00    +0.000 A 
ATOM     24  C   UNL     1       8.939  13.570  20.048  0.00  0.00    +0.000 A 
ATOM     25  C   UNL     1       8.271  14.792  19.955  0.00  0.00    +0.000 A 
ATOM     26  C   UNL     1       7.604  15.130  18.776  0.00  0.00    +0.000 A 
ATOM     27 CL   UNL     1       6.755  16.623  18.677  0.00  0.00    +0.000 Cl
ATOM     28  C   UNL     1       7.615  14.264  17.679  0.00  0.00    +0.000 A 
ATOM     29  C   UNL     1       8.278  13.038  17.767  0.00  0.00    +0.000 A 
ENDBRANCH  21  23
ENDBRANCH  18  21
ENDBRANCH  17  18
ENDBRANCH  16  17
ENDBRANCH   1  16
TORSDOF 7
ENDMDL
MODEL 8
REMARK VINA RESULT:      -7.4      0.464      1.369
REMARK  Name = 
REMARK  7 active torsions:
REMARK  status: ('A' for Active; 'I' for Inactive)
REMARK    1  A    between atoms: S_2  and  N_4
REMARK    2  A    between atoms: S_2  and  C_22
REMARK    3  A    between atoms: N_4  and  C_5
REMARK    4  A    between atoms: C_5  and  C_6
REMARK    5  A    between atoms: C_6  and  S_7
REMARK    6  A    between atoms: S_7  and  N_10
REMARK    7  A    between atoms: N_13  and  C_14
REMARK                            x       y       z     vdW  Elec       q    Type
REMARK                         _______ _______ _______ _____ _____    ______ ____
ROOT
ATOM      1  S   UNL     1       2.954   6.348  18.429  0.00  0.00    +0.000 S 
ATOM      2  O   UNL     1       2.712   6.800  19.782  0.00  0.00    +0.000 OA
ATOM      3  O   UNL     1       2.095   5.355  17.811  0.00  0.00    +0.000 OA
ENDROOT
BRANCH   1   4
ATOM      4  N   UNL     1       4.547   5.754  18.360  0.00  0.00    +0.000 NA
ATOM      5  C   UNL     1       4.735   4.251  18.132  0.00  0.00    +0.000 C 
ATOM      6  C   UNL     1       4.725   3.780  16.625  0.00  0.00    +0.000 C 
ATOM      7  N   UNL     1       5.463   4.734  15.777  0.00  0.00    +0.000 N 
ATOM      8  C   UNL     1       5.001   6.121  15.953  0.00  0.00    +0.000 C 
ATOM      9  C   UNL     1       5.403   6.511  17.377  0.00  0.00    +0.000 C 
BRANCH   7  10
ATOM     10  C   UNL     1       6.081   4.492  14.566  0.00  0.00    +0.000 A 
ATOM     11  C   UNL     1       5.630   3.583  13.606  0.00  0.00    +0.000 A 
ATOM     12  C   UNL     1       6.249   3.516  12.344  0.00  0.00    +0.000 A 
ATOM     13  C   UNL     1       7.334   4.334  12.030  0.00  0.00    +0.000 A 
ATOM     14  C   UNL     1       7.837   5.199  12.989  0.00  0.00    +0.000 A 
ATOM     15  C   UNL     1       7.223   5.254  14.237  0.00  0.00    +0.000 A 
ENDBRANCH   7  10
ENDBRANCH   1   4
BRANCH   1  16
ATOM     16  C   UNL     1       2.948   7.762  17.346  0.00  0.00    +0.000 C 
BRANCH  16  17
ATOM     17  C   UNL     1       2.572   9.069  18.026  0.00  0.00    +0.000 C 
BRANCH  17  18
ATOM     18  N   UNL     1       1.175   9.072  18.503  0.00  0.00    +0.000 NA
ATOM     19  H   UNL     1       0.460   8.746  17.839  0.00  0.00    +0.000 HD
BRANCH  18  21
ATOM     20  O   UNL     1       0.427   9.897  20.776  0.00  0.00    +0.000 OA
ATOM     21  S   UNL     1       0.633  10.377  19.430  0.00  0.00    +0.000 S 
ATOM     22  O   UNL     1       1.480  11.511  19.134  0.00  0.00    +0.000 OA
BRANCH  21  23
ATOM     23  C   UNL     1      -0.976  10.693  18.739  0.00  0.00    +0.000 A 
ATOM     24  C   UNL     1      -1.341  10.036  17.557  0.00  0.00    +0.000 A 
ATOM     25  C   UNL     1      -2.579  10.307  16.975  0.00  0.00    +0.000 A 
ATOM     26  C   UNL     1      -3.447  11.217  17.581  0.00  0.00    +0.000 A 
ATOM     27 CL   UNL     1      -4.960  11.571  16.843  0.00  0.00    +0.000 Cl
ATOM     28  C   UNL     1      -3.096  11.845  18.778  0.00  0.00    +0.000 A 
ATOM     29  C   UNL     1      -1.855  11.582  19.365  0.00  0.00    +0.000 A 
ENDBRANCH  21  23
ENDBRANCH  18  21
ENDBRANCH  17  18
ENDBRANCH  16  17
ENDBRANCH   1  16
TORSDOF 7
ENDMDL
MODEL 9
REMARK VINA RESULT:      -7.4      4.354      8.352
REMARK  Name = 
REMARK  7 active torsions:
REMARK  status: ('A' for Active; 'I' for Inactive)
REMARK    1  A    between atoms: S_2  and  N_4
REMARK    2  A    between atoms: S_2  and  C_22
REMARK    3  A    between atoms: N_4  and  C_5
REMARK    4  A    between atoms: C_5  and  C_6
REMARK    5  A    between atoms: C_6  and  S_7
REMARK    6  A    between atoms: S_7  and  N_10
REMARK    7  A    between atoms: N_13  and  C_14
REMARK                            x       y       z     vdW  Elec       q    Type
REMARK                         _______ _______ _______ _____ _____    ______ ____
ROOT
ATOM      1  S   UNL     1       3.870   2.469  19.145  0.00  0.00    +0.000 S 
ATOM      2  O   UNL     1       3.619   1.283  18.356  0.00  0.00    +0.000 OA
ATOM      3  O   UNL     1       4.648   2.399  20.369  0.00  0.00    +0.000 OA
ENDROOT
BRANCH   1   4
ATOM      4  N   UNL     1       2.363   3.155  19.541  0.00  0.00    +0.000 NA
ATOM      5  C   UNL     1       2.260   3.932  20.857  0.00  0.00    +0.000 C 
ATOM      6  C   UNL     1       2.689   5.450  20.791  0.00  0.00    +0.000 C 
ATOM      7  N   UNL     1       2.203   6.075  19.546  0.00  0.00    +0.000 N 
ATOM      8  C   UNL     1       2.585   5.313  18.346  0.00  0.00    +0.000 C 
ATOM      9  C   UNL     1       1.803   4.000  18.425  0.00  0.00    +0.000 C 
BRANCH   7  10
ATOM     10  C   UNL     1       1.945   7.410  19.312  0.00  0.00    +0.000 A 
ATOM     11  C   UNL     1       2.121   8.056  18.086  0.00  0.00    +0.000 A 
ATOM     12  C   UNL     1       1.691   9.385  17.913  0.00  0.00    +0.000 A 
ATOM     13  C   UNL     1       1.102  10.093  18.961  0.00  0.00    +0.000 A 
ATOM     14  C   UNL     1       0.975   9.492  20.204  0.00  0.00    +0.000 A 
ATOM     15  C   UNL     1       1.409   8.180  20.368  0.00  0.00    +0.000 A 
ENDBRANCH   7  10
ENDBRANCH   1   4
BRANCH   1  16
ATOM     16  C   UNL     1       4.665   3.683  18.113  0.00  0.00    +0.000 C 
BRANCH  16  17
ATOM     17  C   UNL     1       5.715   4.519  18.826  0.00  0.00    +0.000 C 
BRANCH  17  18
ATOM     18  N   UNL     1       6.835   4.892  17.940  0.00  0.00    +0.000 NA
ATOM     19  H   UNL     1       7.769   4.936  18.369  0.00  0.00    +0.000 HD
BRANCH  18  21
ATOM     20  O   UNL     1       5.330   6.742  17.090  0.00  0.00    +0.000 OA
ATOM     21  S   UNL     1       6.600   6.119  16.802  0.00  0.00    +0.000 S 
ATOM     22  O   UNL     1       7.830   6.876  16.709  0.00  0.00    +0.000 OA
BRANCH  21  23
ATOM     23  C   UNL     1       6.399   5.202  15.290  0.00  0.00    +0.000 A 
ATOM     24  C   UNL     1       5.172   4.575  15.043  0.00  0.00    +0.000 A 
ATOM     25  C   UNL     1       5.011   3.812  13.886  0.00  0.00    +0.000 A 
ATOM     26  C   UNL     1       6.067   3.693  12.981  0.00  0.00    +0.000 A 
ATOM     27 CL   UNL     1       5.874   2.726  11.571  0.00  0.00    +0.000 Cl
ATOM     28  C   UNL     1       7.279   4.348  13.212  0.00  0.00    +0.000 A 
ATOM     29  C   UNL     1       7.449   5.109  14.371  0.00  0.00    +0.000 A 
ENDBRANCH  21  23
ENDBRANCH  18  21
ENDBRANCH  17  18
ENDBRANCH  16  17
ENDBRANCH   1  16
TORSDOF 7
ENDMDL
