MODEL 1
REMARK VINA RESULT:      -7.3      0.000      0.000
REMARK  Name = 
REMARK  7 active torsions:
REMARK  status: ('A' for Active; 'I' for Inactive)
REMARK    1  A    between atoms: C_1  and  C_2
REMARK    2  A    between atoms: C_2  and  C_3
REMARK    3  A    between atoms: C_4  and  C_5
REMARK    4  A    between atoms: C_5  and  O_7
REMARK    5  A    between atoms: O_7  and  C_8
REMARK    6  A    between atoms: C_12  and  O_13
REMARK    7  A    between atoms: O_13  and  C_14
REMARK                            x       y       z     vdW  Elec       q    Type
REMARK                         _______ _______ _______ _____ _____    ______ ____
ROOT
ATOM      1  C   UNL     1       5.035   4.792  17.223  0.00  0.00    +0.000 A 
ATOM      2  C   UNL     1       6.101   4.516  18.076  0.00  0.00    +0.000 A 
ATOM      3  N   UNL     1       5.565   3.899  19.191  0.00  0.00    +0.000 N 
ATOM      4  C   UNL     1       4.201   3.745  19.063  0.00  0.00    +0.000 A 
ATOM      5  C   UNL     1       3.247   3.173  19.923  0.00  0.00    +0.000 A 
ATOM      6  C   UNL     1       1.905   3.142  19.505  0.00  0.00    +0.000 A 
ATOM      7  C   UNL     1       1.542   3.672  18.269  0.00  0.00    +0.000 A 
ATOM      8  C   UNL     1       2.500   4.244  17.429  0.00  0.00    +0.000 A 
ATOM      9  C   UNL     1       3.851   4.285  17.834  0.00  0.00    +0.000 A 
ATOM     10  H   UNL     1       6.110   3.588  19.982  0.00  0.00    +0.000 HD
ENDROOT
BRANCH   1  12
ATOM     11  C   UNL     1       5.518   4.522  14.781  0.00  0.00    +0.000 C 
ATOM     12  C   UNL     1       5.091   5.472  15.889  0.00  0.00    +0.000 C 
ENDBRANCH   1  12
BRANCH   2  13
ATOM     13  C   UNL     1       7.505   4.799  17.856  0.00  0.00    +0.000 C 
ATOM     14  O   UNL     1       8.238   4.194  17.084  0.00  0.00    +0.000 OA
BRANCH  13  15
ATOM     15  O   UNL     1       7.919   5.839  18.640  0.00  0.00    +0.000 OA
ATOM     16  C   UNL     1       7.749   7.103  17.990  0.00  0.00    +0.000 C 
ENDBRANCH  13  15
ENDBRANCH   2  13
BRANCH   6  17
ATOM     17  O   UNL     1       1.033   2.564  20.394  0.00  0.00    +0.000 OA
ATOM     18  C   UNL     1       1.415   2.597  21.768  0.00  0.00    +0.000 C 
ENDBRANCH   6  17
TORSDOF 4
ENDMDL
MODEL 2
REMARK VINA RESULT:      -6.5      1.027      1.193
REMARK  Name = 
REMARK  7 active torsions:
REMARK  status: ('A' for Active; 'I' for Inactive)
REMARK    1  A    between atoms: C_1  and  C_2
REMARK    2  A    between atoms: C_2  and  C_3
REMARK    3  A    between atoms: C_4  and  C_5
REMARK    4  A    between atoms: C_5  and  O_7
REMARK    5  A    between atoms: O_7  and  C_8
REMARK    6  A    between atoms: C_12  and  O_13
REMARK    7  A    between atoms: O_13  and  C_14
REMARK                            x       y       z     vdW  Elec       q    Type
REMARK                         _______ _______ _______ _____ _____    ______ ____
ROOT
ATOM      1  C   UNL     1       5.030   5.114  17.155  0.00  0.00    +0.000 A 
ATOM      2  C   UNL     1       5.793   5.652  18.187  0.00  0.00    +0.000 A 
ATOM      3  N   UNL     1       5.108   5.395  19.360  0.00  0.00    +0.000 N 
ATOM      4  C   UNL     1       3.954   4.685  19.113  0.00  0.00    +0.000 A 
ATOM      5  C   UNL     1       2.960   4.196  19.980  0.00  0.00    +0.000 A 
ATOM      6  C   UNL     1       1.886   3.477  19.427  0.00  0.00    +0.000 A 
ATOM      7  C   UNL     1       1.817   3.265  18.052  0.00  0.00    +0.000 A 
ATOM      8  C   UNL     1       2.808   3.762  17.203  0.00  0.00    +0.000 A 
ATOM      9  C   UNL     1       3.892   4.488  17.741  0.00  0.00    +0.000 A 
ATOM     10  H   UNL     1       5.429   5.676  20.276  0.00  0.00    +0.000 HD
ENDROOT
BRANCH   1  12
ATOM     11  C   UNL     1       6.060   3.894  15.225  0.00  0.00    +0.000 C 
ATOM     12  C   UNL     1       5.333   5.148  15.688  0.00  0.00    +0.000 C 
ENDBRANCH   1  12
BRANCH   2  13
ATOM     13  C   UNL     1       7.064   6.341  18.081  0.00  0.00    +0.000 C 
ATOM     14  O   UNL     1       8.089   6.033  18.674  0.00  0.00    +0.000 OA
BRANCH  13  15
ATOM     15  O   UNL     1       6.971   7.403  17.225  0.00  0.00    +0.000 OA
ATOM     16  C   UNL     1       7.807   8.493  17.627  0.00  0.00    +0.000 C 
ENDBRANCH  13  15
ENDBRANCH   2  13
BRANCH   6  17
ATOM     17  O   UNL     1       0.960   3.028  20.335  0.00  0.00    +0.000 OA
ATOM     18  C   UNL     1       1.451   2.712  21.637  0.00  0.00    +0.000 C 
ENDBRANCH   6  17
TORSDOF 4
ENDMDL
MODEL 3
REMARK VINA RESULT:      -6.5      1.628      5.353
REMARK  Name = 
REMARK  7 active torsions:
REMARK  status: ('A' for Active; 'I' for Inactive)
REMARK    1  A    between atoms: C_1  and  C_2
REMARK    2  A    between atoms: C_2  and  C_3
REMARK    3  A    between atoms: C_4  and  C_5
REMARK    4  A    between atoms: C_5  and  O_7
REMARK    5  A    between atoms: O_7  and  C_8
REMARK    6  A    between atoms: C_12  and  O_13
REMARK    7  A    between atoms: O_13  and  C_14
REMARK                            x       y       z     vdW  Elec       q    Type
REMARK                         _______ _______ _______ _____ _____    ______ ____
ROOT
ATOM      1  C   UNL     1       3.957   3.898  17.760  0.00  0.00    +0.000 A 
ATOM      2  C   UNL     1       4.566   3.193  18.795  0.00  0.00    +0.000 A 
ATOM      3  N   UNL     1       5.787   3.803  19.022  0.00  0.00    +0.000 N 
ATOM      4  C   UNL     1       5.959   4.888  18.190  0.00  0.00    +0.000 A 
ATOM      5  C   UNL     1       7.020   5.804  18.067  0.00  0.00    +0.000 A 
ATOM      6  C   UNL     1       6.902   6.838  17.123  0.00  0.00    +0.000 A 
ATOM      7  C   UNL     1       5.760   6.940  16.332  0.00  0.00    +0.000 A 
ATOM      8  C   UNL     1       4.719   6.019  16.460  0.00  0.00    +0.000 A 
ATOM      9  C   UNL     1       4.821   4.972  17.401  0.00  0.00    +0.000 A 
ATOM     10  H   UNL     1       6.450   3.498  19.720  0.00  0.00    +0.000 HD
ENDROOT
BRANCH   1  12
ATOM     11  C   UNL     1       1.499   4.375  17.821  0.00  0.00    +0.000 C 
ATOM     12  C   UNL     1       2.625   3.619  17.132  0.00  0.00    +0.000 C 
ENDBRANCH   1  12
BRANCH   2  13
ATOM     13  C   UNL     1       4.042   2.051  19.515  0.00  0.00    +0.000 C 
ATOM     14  O   UNL     1       3.773   0.963  19.022  0.00  0.00    +0.000 OA
BRANCH  13  15
ATOM     15  O   UNL     1       3.873   2.347  20.839  0.00  0.00    +0.000 OA
ATOM     16  C   UNL     1       2.551   2.816  21.121  0.00  0.00    +0.000 C 
ENDBRANCH  13  15
ENDBRANCH   2  13
BRANCH   6  17
ATOM     17  O   UNL     1       7.972   7.695  17.065  0.00  0.00    +0.000 OA
ATOM     18  C   UNL     1       7.904   8.852  17.897  0.00  0.00    +0.000 C 
ENDBRANCH   6  17
TORSDOF 4
ENDMDL
MODEL 4
REMARK VINA RESULT:      -6.5      1.578      2.400
REMARK  Name = 
REMARK  7 active torsions:
REMARK  status: ('A' for Active; 'I' for Inactive)
REMARK    1  A    between atoms: C_1  and  C_2
REMARK    2  A    between atoms: C_2  and  C_3
REMARK    3  A    between atoms: C_4  and  C_5
REMARK    4  A    between atoms: C_5  and  O_7
REMARK    5  A    between atoms: O_7  and  C_8
REMARK    6  A    between atoms: C_12  and  O_13
REMARK    7  A    between atoms: O_13  and  C_14
REMARK                            x       y       z     vdW  Elec       q    Type
REMARK                         _______ _______ _______ _____ _____    ______ ____
ROOT
ATOM      1  C   UNL     1       5.093   5.674  17.418  0.00  0.00    +0.000 A 
ATOM      2  C   UNL     1       5.649   4.431  17.126  0.00  0.00    +0.000 A 
ATOM      3  N   UNL     1       4.961   3.502  17.884  0.00  0.00    +0.000 N 
ATOM      4  C   UNL     1       3.967   4.106  18.622  0.00  0.00    +0.000 A 
ATOM      5  C   UNL     1       3.020   3.572  19.516  0.00  0.00    +0.000 A 
ATOM      6  C   UNL     1       2.102   4.451  20.118  0.00  0.00    +0.000 A 
ATOM      7  C   UNL     1       2.142   5.813  19.832  0.00  0.00    +0.000 A 
ATOM      8  C   UNL     1       3.093   6.329  18.949  0.00  0.00    +0.000 A 
ATOM      9  C   UNL     1       4.024   5.462  18.337  0.00  0.00    +0.000 A 
ATOM     10  H   UNL     1       5.155   2.511  17.876  0.00  0.00    +0.000 HD
ENDROOT
BRANCH   1  12
ATOM     11  C   UNL     1       6.819   7.487  17.455  0.00  0.00    +0.000 C 
ATOM     12  C   UNL     1       5.502   7.005  16.867  0.00  0.00    +0.000 C 
ENDBRANCH   1  12
BRANCH   2  13
ATOM     13  C   UNL     1       6.730   4.142  16.204  0.00  0.00    +0.000 C 
ATOM     14  O   UNL     1       7.905   4.438  16.374  0.00  0.00    +0.000 OA
BRANCH  13  15
ATOM     15  O   UNL     1       6.262   3.491  15.097  0.00  0.00    +0.000 OA
ATOM     16  C   UNL     1       6.289   4.323  13.933  0.00  0.00    +0.000 C 
ENDBRANCH  13  15
ENDBRANCH   2  13
BRANCH   6  17
ATOM     17  O   UNL     1       1.206   3.857  20.972  0.00  0.00    +0.000 OA
ATOM     18  C   UNL     1       1.660   2.690  21.656  0.00  0.00    +0.000 C 
ENDBRANCH   6  17
TORSDOF 4
ENDMDL
MODEL 5
REMARK VINA RESULT:      -6.5      1.808      2.929
REMARK  Name = 
REMARK  7 active torsions:
REMARK  status: ('A' for Active; 'I' for Inactive)
REMARK    1  A    between atoms: C_1  and  C_2
REMARK    2  A    between atoms: C_2  and  C_3
REMARK    3  A    between atoms: C_4  and  C_5
REMARK    4  A    between atoms: C_5  and  O_7
REMARK    5  A    between atoms: O_7  and  C_8
REMARK    6  A    between atoms: C_12  and  O_13
REMARK    7  A    between atoms: O_13  and  C_14
REMARK                            x       y       z     vdW  Elec       q    Type
REMARK                         _______ _______ _______ _____ _____    ______ ____
ROOT
ATOM      1  C   UNL     1       5.488   5.542  17.024  0.00  0.00    +0.000 A 
ATOM      2  C   UNL     1       5.730   4.550  16.078  0.00  0.00    +0.000 A 
ATOM      3  N   UNL     1       5.096   3.408  16.533  0.00  0.00    +0.000 N 
ATOM      4  C   UNL     1       4.435   3.649  17.718  0.00  0.00    +0.000 A 
ATOM      5  C   UNL     1       3.657   2.807  18.534  0.00  0.00    +0.000 A 
ATOM      6  C   UNL     1       3.084   3.350  19.697  0.00  0.00    +0.000 A 
ATOM      7  C   UNL     1       3.291   4.688  20.023  0.00  0.00    +0.000 A 
ATOM      8  C   UNL     1       4.071   5.509  19.206  0.00  0.00    +0.000 A 
ATOM      9  C   UNL     1       4.657   4.980  18.037  0.00  0.00    +0.000 A 
ATOM     10  H   UNL     1       5.106   2.524  16.045  0.00  0.00    +0.000 HD
ENDROOT
BRANCH   1  12
ATOM     11  C   UNL     1       7.372   7.092  17.591  0.00  0.00    +0.000 C 
ATOM     12  C   UNL     1       5.977   6.959  17.001  0.00  0.00    +0.000 C 
ENDBRANCH   1  12
BRANCH   2  13
ATOM     13  C   UNL     1       6.483   4.668  14.846  0.00  0.00    +0.000 C 
ATOM     14  O   UNL     1       7.600   5.160  14.742  0.00  0.00    +0.000 OA
BRANCH  13  15
ATOM     15  O   UNL     1       5.775   4.161  13.793  0.00  0.00    +0.000 OA
ATOM     16  C   UNL     1       6.623   3.795  12.700  0.00  0.00    +0.000 C 
ENDBRANCH  13  15
ENDBRANCH   2  13
BRANCH   6  17
ATOM     17  O   UNL     1       2.335   2.472  20.439  0.00  0.00    +0.000 OA
ATOM     18  C   UNL     1       1.789   2.975  21.658  0.00  0.00    +0.000 C 
ENDBRANCH   6  17
TORSDOF 4
ENDMDL
MODEL 6
REMARK VINA RESULT:      -6.4      1.259      1.786
REMARK  Name = 
REMARK  7 active torsions:
REMARK  status: ('A' for Active; 'I' for Inactive)
REMARK    1  A    between atoms: C_1  and  C_2
REMARK    2  A    between atoms: C_2  and  C_3
REMARK    3  A    between atoms: C_4  and  C_5
REMARK    4  A    between atoms: C_5  and  O_7
REMARK    5  A    between atoms: O_7  and  C_8
REMARK    6  A    between atoms: C_12  and  O_13
REMARK    7  A    between atoms: O_13  and  C_14
REMARK                            x       y       z     vdW  Elec       q    Type
REMARK                         _______ _______ _______ _____ _____    ______ ____
ROOT
ATOM      1  C   UNL     1       5.241   5.591  17.856  0.00  0.00    +0.000 A 
ATOM      2  C   UNL     1       6.124   4.516  17.846  0.00  0.00    +0.000 A 
ATOM      3  N   UNL     1       5.506   3.489  18.536  0.00  0.00    +0.000 N 
ATOM      4  C   UNL     1       4.248   3.864  18.955  0.00  0.00    +0.000 A 
ATOM      5  C   UNL     1       3.260   3.162  19.671  0.00  0.00    +0.000 A 
ATOM      6  C   UNL     1       2.044   3.813  19.943  0.00  0.00    +0.000 A 
ATOM      7  C   UNL     1       1.837   5.122  19.513  0.00  0.00    +0.000 A 
ATOM      8  C   UNL     1       2.830   5.808  18.810  0.00  0.00    +0.000 A 
ATOM      9  C   UNL     1       4.057   5.171  18.530  0.00  0.00    +0.000 A 
ATOM     10  H   UNL     1       5.920   2.581  18.690  0.00  0.00    +0.000 HD
ENDROOT
BRANCH   1  12
ATOM     11  C   UNL     1       4.794   7.078  15.891  0.00  0.00    +0.000 C 
ATOM     12  C   UNL     1       5.452   6.947  17.256  0.00  0.00    +0.000 C 
ENDBRANCH   1  12
BRANCH   2  13
ATOM     13  C   UNL     1       7.436   4.455  17.232  0.00  0.00    +0.000 C 
ATOM     14  O   UNL     1       8.468   4.119  17.796  0.00  0.00    +0.000 OA
BRANCH  13  15
ATOM     15  O   UNL     1       7.375   4.835  15.920  0.00  0.00    +0.000 OA
ATOM     16  C   UNL     1       6.612   3.918  15.129  0.00  0.00    +0.000 C 
ENDBRANCH  13  15
ENDBRANCH   2  13
BRANCH   6  17
ATOM     17  O   UNL     1       1.129   3.064  20.639  0.00  0.00    +0.000 OA
ATOM     18  C   UNL     1       1.570   2.518  21.881  0.00  0.00    +0.000 C 
ENDBRANCH   6  17
TORSDOF 4
ENDMDL
MODEL 7
REMARK VINA RESULT:      -6.4      1.873      5.812
REMARK  Name = 
REMARK  7 active torsions:
REMARK  status: ('A' for Active; 'I' for Inactive)
REMARK    1  A    between atoms: C_1  and  C_2
REMARK    2  A    between atoms: C_2  and  C_3
REMARK    3  A    between atoms: C_4  and  C_5
REMARK    4  A    between atoms: C_5  and  O_7
REMARK    5  A    between atoms: O_7  and  C_8
REMARK    6  A    between atoms: C_12  and  O_13
REMARK    7  A    between atoms: O_13  and  C_14
REMARK                            x       y       z     vdW  Elec       q    Type
REMARK                         _______ _______ _______ _____ _____    ______ ____
ROOT
ATOM      1  C   UNL     1       2.992   4.714  18.128  0.00  0.00    +0.000 A 
ATOM      2  C   UNL     1       3.099   3.344  18.346  0.00  0.00    +0.000 A 
ATOM      3  N   UNL     1       4.208   2.917  17.639  0.00  0.00    +0.000 N 
ATOM      4  C   UNL     1       4.827   3.972  17.006  0.00  0.00    +0.000 A 
ATOM      5  C   UNL     1       5.975   4.025  16.194  0.00  0.00    +0.000 A 
ATOM      6  C   UNL     1       6.382   5.274  15.694  0.00  0.00    +0.000 A 
ATOM      7  C   UNL     1       5.656   6.423  15.999  0.00  0.00    +0.000 A 
ATOM      8  C   UNL     1       4.514   6.354  16.800  0.00  0.00    +0.000 A 
ATOM      9  C   UNL     1       4.089   5.108  17.308  0.00  0.00    +0.000 A 
ATOM     10  H   UNL     1       4.527   1.958  17.612  0.00  0.00    +0.000 HD
ENDROOT
BRANCH   1  12
ATOM     11  C   UNL     1       2.261   6.113  20.072  0.00  0.00    +0.000 C 
ATOM     12  C   UNL     1       1.942   5.640  18.662  0.00  0.00    +0.000 C 
ENDBRANCH   1  12
BRANCH   2  13
ATOM     13  C   UNL     1       2.239   2.508  19.159  0.00  0.00    +0.000 C 
ATOM     14  O   UNL     1       1.245   1.914  18.761  0.00  0.00    +0.000 OA
BRANCH  13  15
ATOM     15  O   UNL     1       2.678   2.472  20.453  0.00  0.00    +0.000 OA
ATOM     16  C   UNL     1       1.612   2.666  21.389  0.00  0.00    +0.000 C 
ENDBRANCH  13  15
ENDBRANCH   2  13
BRANCH   6  17
ATOM     17  O   UNL     1       7.513   5.247  14.916  0.00  0.00    +0.000 OA
ATOM     18  C   UNL     1       7.335   4.866  13.553  0.00  0.00    +0.000 C 
ENDBRANCH   6  17
TORSDOF 4
ENDMDL
MODEL 8
REMARK VINA RESULT:      -6.4      1.342      1.407
REMARK  Name = 
REMARK  7 active torsions:
REMARK  status: ('A' for Active; 'I' for Inactive)
REMARK    1  A    between atoms: C_1  and  C_2
REMARK    2  A    between atoms: C_2  and  C_3
REMARK    3  A    between atoms: C_4  and  C_5
REMARK    4  A    between atoms: C_5  and  O_7
REMARK    5  A    between atoms: O_7  and  C_8
REMARK    6  A    between atoms: C_12  and  O_13
REMARK    7  A    between atoms: O_13  and  C_14
REMARK                            x       y       z     vdW  Elec       q    Type
REMARK                         _______ _______ _______ _____ _____    ______ ____
ROOT
ATOM      1  C   UNL     1       5.433   4.426  16.815  0.00  0.00    +0.000 A 
ATOM      2  C   UNL     1       5.978   5.554  17.422  0.00  0.00    +0.000 A 
ATOM      3  N   UNL     1       5.153   5.867  18.486  0.00  0.00    +0.000 N 
ATOM      4  C   UNL     1       4.121   4.961  18.595  0.00  0.00    +0.000 A 
ATOM      5  C   UNL     1       3.059   4.868  19.514  0.00  0.00    +0.000 A 
ATOM      6  C   UNL     1       2.153   3.801  19.380  0.00  0.00    +0.000 A 
ATOM      7  C   UNL     1       2.312   2.868  18.358  0.00  0.00    +0.000 A 
ATOM      8  C   UNL     1       3.367   2.978  17.450  0.00  0.00    +0.000 A 
ATOM      9  C   UNL     1       4.285   4.044  17.567  0.00  0.00    +0.000 A 
ATOM     10  H   UNL     1       5.305   6.649  19.109  0.00  0.00    +0.000 HD
ENDROOT
BRANCH   1  12
ATOM     11  C   UNL     1       5.442   4.326  14.313  0.00  0.00    +0.000 C 
ATOM     12  C   UNL     1       5.948   3.706  15.606  0.00  0.00    +0.000 C 
ENDBRANCH   1  12
BRANCH   2  13
ATOM     13  C   UNL     1       7.180   6.270  17.041  0.00  0.00    +0.000 C 
ATOM     14  O   UNL     1       7.681   6.269  15.925  0.00  0.00    +0.000 OA
BRANCH  13  15
ATOM     15  O   UNL     1       7.697   6.952  18.107  0.00  0.00    +0.000 OA
ATOM     16  C   UNL     1       7.956   8.324  17.792  0.00  0.00    +0.000 C 
ENDBRANCH  13  15
ENDBRANCH   2  13
BRANCH   6  17
ATOM     17  O   UNL     1       1.149   3.774  20.315  0.00  0.00    +0.000 OA
ATOM     18  C   UNL     1       1.298   2.833  21.378  0.00  0.00    +0.000 C 
ENDBRANCH   6  17
TORSDOF 4
ENDMDL
MODEL 9
REMARK VINA RESULT:      -6.3      1.060      1.406
REMARK  Name = 
REMARK  7 active torsions:
REMARK  status: ('A' for Active; 'I' for Inactive)
REMARK    1  A    between atoms: C_1  and  C_2
REMARK    2  A    between atoms: C_2  and  C_3
REMARK    3  A    between atoms: C_4  and  C_5
REMARK    4  A    between atoms: C_5  and  O_7
REMARK    5  A    between atoms: O_7  and  C_8
REMARK    6  A    between atoms: C_12  and  O_13
REMARK    7  A    between atoms: O_13  and  C_14
REMARK                            x       y       z     vdW  Elec       q    Type
REMARK                         _______ _______ _______ _____ _____    ______ ____
ROOT
ATOM      1  C   UNL     1       4.776   5.036  16.928  0.00  0.00    +0.000 A 
ATOM      2  C   UNL     1       5.505   5.738  17.884  0.00  0.00    +0.000 A 
ATOM      3  N   UNL     1       4.857   5.550  19.090  0.00  0.00    +0.000 N 
ATOM      4  C   UNL     1       3.761   4.729  18.940  0.00  0.00    +0.000 A 
ATOM      5  C   UNL     1       2.819   4.257  19.874  0.00  0.00    +0.000 A 
ATOM      6  C   UNL     1       1.800   3.402  19.419  0.00  0.00    +0.000 A 
ATOM      7  C   UNL     1       1.733   3.042  18.075  0.00  0.00    +0.000 A 
ATOM      8  C   UNL     1       2.671   3.525  17.159  0.00  0.00    +0.000 A 
ATOM      9  C   UNL     1       3.699   4.386  17.597  0.00  0.00    +0.000 A 
ATOM     10  H   UNL     1       5.164   5.950  19.966  0.00  0.00    +0.000 HD
ENDROOT
BRANCH   1  12
ATOM     11  C   UNL     1       6.007   3.797  15.133  0.00  0.00    +0.000 C 
ATOM     12  C   UNL     1       5.058   4.940  15.459  0.00  0.00    +0.000 C 
ENDBRANCH   1  12
BRANCH   2  13
ATOM     13  C   UNL     1       6.715   6.510  17.682  0.00  0.00    +0.000 C 
ATOM     14  O   UNL     1       6.815   7.496  16.964  0.00  0.00    +0.000 OA
BRANCH  13  15
ATOM     15  O   UNL     1       7.752   5.984  18.399  0.00  0.00    +0.000 OA
ATOM     16  C   UNL     1       7.991   4.611  18.073  0.00  0.00    +0.000 C 
ENDBRANCH  13  15
ENDBRANCH   2  13
BRANCH   6  17
ATOM     17  O   UNL     1       0.925   2.978  20.386  0.00  0.00    +0.000 OA
ATOM     18  C   UNL     1       1.480   2.724  21.676  0.00  0.00    +0.000 C 
ENDBRANCH   6  17
TORSDOF 4
ENDMDL
