MODEL 1
REMARK VINA RESULT:      -8.1      0.000      0.000
REMARK  Name = 
REMARK  4 active torsions:
REMARK  status: ('A' for Active; 'I' for Inactive)
REMARK    1  A    between atoms: C_1  and  C_2
REMARK    2  A    between atoms: C_8  and  C_9
REMARK    3  A    between atoms: C_18  and  C_19
REMARK    4  A    between atoms: C_27  and  C_28
REMARK                            x       y       z     vdW  Elec       q    Type
REMARK                         _______ _______ _______ _____ _____    ______ ____
ROOT
ATOM      1  C   UNL     1      -1.114  16.896  25.674  0.00  0.00    +0.000 C 
ATOM      2  C   UNL     1      -0.253  16.497  24.505  0.00  0.00    +0.000 C 
ATOM      3  O   UNL     1       0.971  16.497  24.604  0.00  0.00    +0.000 OA
ATOM      4  N   UNL     1      -0.971  16.188  23.357  0.00  0.00    +0.000 N 
ATOM      5  C   UNL     1      -0.478  15.380  22.376  0.00  0.00    +0.000 C 
ATOM      6  N   UNL     1       0.692  14.855  22.386  0.00  0.00    +0.000 NA
ATOM      7  N   UNL     1       0.869  13.993  21.318  0.00  0.00    +0.000 N 
ATOM      8  C   UNL     1       2.150  14.042  20.772  0.00  0.00    +0.000 C 
ATOM      9  C   UNL     1       3.174  14.898  21.514  0.00  0.00    +0.000 C 
ATOM     10  O   UNL     1       2.514  13.533  19.718  0.00  0.00    +0.000 OA
ATOM     11  C   UNL     1      -0.463  13.356  20.875  0.00  0.00    +0.000 C 
ATOM     12  S   UNL     1      -1.517  14.926  21.042  0.00  0.00    +0.000 S 
ATOM     13  C   UNL     1      -0.648  12.575  19.510  0.00  0.00    +0.000 C 
ATOM     14  C   UNL     1       0.491  11.592  19.258  0.00  0.00    +0.000 C 
ATOM     15  C   UNL     1       0.701  10.678  20.472  0.00  0.00    +0.000 C 
ATOM     16  C   UNL     1       0.104  11.132  21.851  0.00  0.00    +0.000 C 
ATOM     17  C   UNL     1      -0.936  12.343  21.969  0.00  0.00    +0.000 C 
ATOM     18  C   UNL     1      -2.502  11.960  21.832  0.00  0.00    +0.000 C 
ATOM     19  N   UNL     1      -2.923  12.003  20.421  0.00  0.00    +0.000 NA
ATOM     20  C   UNL     1      -1.879  11.577  19.538  0.00  0.00    +0.000 C 
ATOM     21  H   UNL     1      -1.953  16.415  23.314  0.00  0.00    +0.000 HD
ATOM     22  H   UNL     1      -3.246  12.936  20.173  0.00  0.00    +0.000 HD
ENDROOT
BRANCH  18  23
ATOM     23  C   UNL     1      -3.716  12.631  22.554  0.00  0.00    +0.000 A 
ATOM     24  C   UNL     1      -4.804  13.282  21.966  0.00  0.00    +0.000 A 
ATOM     25  C   UNL     1      -5.988  13.534  22.695  0.00  0.00    +0.000 A 
ATOM     26  C   UNL     1      -6.078  13.199  24.040  0.00  0.00    +0.000 A 
ATOM     27  F   UNL     1      -7.218  13.412  24.709  0.00  0.00    +0.000 F 
ATOM     28  C   UNL     1      -4.992  12.642  24.686  0.00  0.00    +0.000 A 
ATOM     29  C   UNL     1      -3.831  12.369  23.952  0.00  0.00    +0.000 A 
ENDBRANCH  18  23
BRANCH  20  30
ATOM     30  C   UNL     1      -2.431  11.135  18.197  0.00  0.00    +0.000 A 
ATOM     31  C   UNL     1      -1.757  10.211  17.391  0.00  0.00    +0.000 A 
ATOM     32  C   UNL     1      -2.255   9.882  16.132  0.00  0.00    +0.000 A 
ATOM     33  C   UNL     1      -3.435  10.461  15.683  0.00  0.00    +0.000 A 
ATOM     34  F   UNL     1      -3.905  10.145  14.467  0.00  0.00    +0.000 F 
ATOM     35  C   UNL     1      -4.136  11.369  16.469  0.00  0.00    +0.000 A 
ATOM     36  C   UNL     1      -3.630  11.694  17.719  0.00  0.00    +0.000 A 
ENDBRANCH  20  30
TORSDOF 2
ENDMDL
MODEL 2
REMARK VINA RESULT:      -7.9      0.942      1.220
REMARK  Name = 
REMARK  4 active torsions:
REMARK  status: ('A' for Active; 'I' for Inactive)
REMARK    1  A    between atoms: C_1  and  C_2
REMARK    2  A    between atoms: C_8  and  C_9
REMARK    3  A    between atoms: C_18  and  C_19
REMARK    4  A    between atoms: C_27  and  C_28
REMARK                            x       y       z     vdW  Elec       q    Type
REMARK                         _______ _______ _______ _____ _____    ______ ____
ROOT
ATOM      1  C   UNL     1      -0.107  17.034  25.064  0.00  0.00    +0.000 C 
ATOM      2  C   UNL     1       0.621  16.543  23.840  0.00  0.00    +0.000 C 
ATOM      3  O   UNL     1       1.847  16.481  23.829  0.00  0.00    +0.000 OA
ATOM      4  N   UNL     1      -0.215  16.228  22.778  0.00  0.00    +0.000 N 
ATOM      5  C   UNL     1       0.144  15.356  21.792  0.00  0.00    +0.000 C 
ATOM      6  N   UNL     1       1.282  14.769  21.720  0.00  0.00    +0.000 NA
ATOM      7  N   UNL     1       1.316  13.858  20.680  0.00  0.00    +0.000 N 
ATOM      8  C   UNL     1       2.542  13.816  20.019  0.00  0.00    +0.000 C 
ATOM      9  C   UNL     1       3.672  14.644  20.627  0.00  0.00    +0.000 C 
ATOM     10  O   UNL     1       2.781  13.246  18.960  0.00  0.00    +0.000 OA
ATOM     11  C   UNL     1      -0.082  13.276  20.388  0.00  0.00    +0.000 C 
ATOM     12  S   UNL     1      -1.036  14.906  20.580  0.00  0.00    +0.000 S 
ATOM     13  C   UNL     1      -0.431  12.453  19.082  0.00  0.00    +0.000 C 
ATOM     14  C   UNL     1       0.630  11.400  18.772  0.00  0.00    +0.000 C 
ATOM     15  C   UNL     1       0.905  10.526  20.001  0.00  0.00    +0.000 C 
ATOM     16  C   UNL     1       0.461  11.065  21.407  0.00  0.00    +0.000 C 
ATOM     17  C   UNL     1      -0.501  12.335  21.564  0.00  0.00    +0.000 C 
ATOM     18  C   UNL     1      -2.090  12.032  21.587  0.00  0.00    +0.000 C 
ATOM     19  N   UNL     1      -2.637  12.041  20.219  0.00  0.00    +0.000 NA
ATOM     20  C   UNL     1      -1.702  11.524  19.265  0.00  0.00    +0.000 C 
ATOM     21  H   UNL     1      -1.184  16.506  22.813  0.00  0.00    +0.000 HD
ATOM     22  H   UNL     1      -2.934  12.979  19.960  0.00  0.00    +0.000 HD
ENDROOT
BRANCH  18  23
ATOM     23  C   UNL     1      -3.197  12.795  22.385  0.00  0.00    +0.000 A 
ATOM     24  C   UNL     1      -3.084  13.386  23.647  0.00  0.00    +0.000 A 
ATOM     25  C   UNL     1      -4.033  14.330  24.101  0.00  0.00    +0.000 A 
ATOM     26  C   UNL     1      -5.144  14.646  23.329  0.00  0.00    +0.000 A 
ATOM     27  F   UNL     1      -6.016  15.568  23.756  0.00  0.00    +0.000 F 
ATOM     28  C   UNL     1      -5.345  14.014  22.118  0.00  0.00    +0.000 A 
ATOM     29  C   UNL     1      -4.388  13.100  21.661  0.00  0.00    +0.000 A 
ENDBRANCH  18  23
BRANCH  20  30
ATOM     30  C   UNL     1      -2.398  11.060  18.000  0.00  0.00    +0.000 A 
ATOM     31  C   UNL     1      -1.841  10.079  17.172  0.00  0.00    +0.000 A 
ATOM     32  C   UNL     1      -2.471   9.728  15.979  0.00  0.00    +0.000 A 
ATOM     33  C   UNL     1      -3.664  10.342  15.621  0.00  0.00    +0.000 A 
ATOM     34  F   UNL     1      -4.260  10.003  14.468  0.00  0.00    +0.000 F 
ATOM     35  C   UNL     1      -4.249  11.307  16.432  0.00  0.00    +0.000 A 
ATOM     36  C   UNL     1      -3.613  11.654  17.616  0.00  0.00    +0.000 A 
ENDBRANCH  20  30
TORSDOF 2
ENDMDL
MODEL 3
REMARK VINA RESULT:      -7.9      9.806     11.324
REMARK  Name = 
REMARK  4 active torsions:
REMARK  status: ('A' for Active; 'I' for Inactive)
REMARK    1  A    between atoms: C_1  and  C_2
REMARK    2  A    between atoms: C_8  and  C_9
REMARK    3  A    between atoms: C_18  and  C_19
REMARK    4  A    between atoms: C_27  and  C_28
REMARK                            x       y       z     vdW  Elec       q    Type
REMARK                         _______ _______ _______ _____ _____    ______ ____
ROOT
ATOM      1  C   UNL     1       9.416  18.302  22.514  0.00  0.00    +0.000 C 
ATOM      2  C   UNL     1       9.735  17.713  21.165  0.00  0.00    +0.000 C 
ATOM      3  O   UNL     1      10.612  18.207  20.462  0.00  0.00    +0.000 OA
ATOM      4  N   UNL     1       8.935  16.632  20.820  0.00  0.00    +0.000 N 
ATOM      5  C   UNL     1       9.326  15.683  19.923  0.00  0.00    +0.000 C 
ATOM      6  N   UNL     1      10.439  15.701  19.285  0.00  0.00    +0.000 NA
ATOM      7  N   UNL     1      10.611  14.552  18.533  0.00  0.00    +0.000 N 
ATOM      8  C   UNL     1      11.220  14.780  17.301  0.00  0.00    +0.000 C 
ATOM      9  C   UNL     1      11.730  16.196  17.047  0.00  0.00    +0.000 C 
ATOM     10  O   UNL     1      11.316  13.982  16.376  0.00  0.00    +0.000 OA
ATOM     11  C   UNL     1       9.889  13.346  19.168  0.00  0.00    +0.000 C 
ATOM     12  S   UNL     1       8.314  14.278  19.669  0.00  0.00    +0.000 S 
ATOM     13  C   UNL     1       9.638  11.979  18.409  0.00  0.00    +0.000 C 
ATOM     14  C   UNL     1      10.889  11.495  17.680  0.00  0.00    +0.000 C 
ATOM     15  C   UNL     1      12.094  11.466  18.627  0.00  0.00    +0.000 C 
ATOM     16  C   UNL     1      12.012  12.299  19.955  0.00  0.00    +0.000 C 
ATOM     17  C   UNL     1      10.637  12.931  20.477  0.00  0.00    +0.000 C 
ATOM     18  C   UNL     1       9.738  11.994  21.442  0.00  0.00    +0.000 C 
ATOM     19  N   UNL     1       8.818  11.164  20.643  0.00  0.00    +0.000 NA
ATOM     20  C   UNL     1       9.402  10.764  19.399  0.00  0.00    +0.000 C 
ATOM     21  H   UNL     1       8.112  16.432  21.369  0.00  0.00    +0.000 HD
ATOM     22  H   UNL     1       7.939  11.653  20.488  0.00  0.00    +0.000 HD
ENDROOT
BRANCH  18  23
ATOM     23  C   UNL     1       8.824  12.443  22.628  0.00  0.00    +0.000 A 
ATOM     24  C   UNL     1       8.758  13.706  23.223  0.00  0.00    +0.000 A 
ATOM     25  C   UNL     1       7.664  14.074  24.039  0.00  0.00    +0.000 A 
ATOM     26  C   UNL     1       6.656  13.164  24.327  0.00  0.00    +0.000 A 
ATOM     27  F   UNL     1       5.609  13.537  25.073  0.00  0.00    +0.000 F 
ATOM     28  C   UNL     1       6.731  11.875  23.840  0.00  0.00    +0.000 A 
ATOM     29  C   UNL     1       7.802  11.523  23.009  0.00  0.00    +0.000 A 
ENDBRANCH  18  23
BRANCH  20  30
ATOM     30  C   UNL     1       8.710   9.541  18.828  0.00  0.00    +0.000 A 
ATOM     31  C   UNL     1       8.916   8.263  19.360  0.00  0.00    +0.000 A 
ATOM     32  C   UNL     1       8.321   7.152  18.765  0.00  0.00    +0.000 A 
ATOM     33  C   UNL     1       7.509   7.316  17.650  0.00  0.00    +0.000 A 
ATOM     34  F   UNL     1       6.947   6.240  17.079  0.00  0.00    +0.000 F 
ATOM     35  C   UNL     1       7.274   8.575  17.110  0.00  0.00    +0.000 A 
ATOM     36  C   UNL     1       7.873   9.676  17.706  0.00  0.00    +0.000 A 
ENDBRANCH  20  30
TORSDOF 2
ENDMDL
MODEL 4
REMARK VINA RESULT:      -7.9      3.758      7.271
REMARK  Name = 
REMARK  4 active torsions:
REMARK  status: ('A' for Active; 'I' for Inactive)
REMARK    1  A    between atoms: C_1  and  C_2
REMARK    2  A    between atoms: C_8  and  C_9
REMARK    3  A    between atoms: C_18  and  C_19
REMARK    4  A    between atoms: C_27  and  C_28
REMARK                            x       y       z     vdW  Elec       q    Type
REMARK                         _______ _______ _______ _____ _____    ______ ____
ROOT
ATOM      1  C   UNL     1      -7.540   8.906  19.792  0.00  0.00    +0.000 C 
ATOM      2  C   UNL     1      -7.311  10.151  20.608  0.00  0.00    +0.000 C 
ATOM      3  O   UNL     1      -7.763  10.241  21.746  0.00  0.00    +0.000 OA
ATOM      4  N   UNL     1      -6.604  11.141  19.938  0.00  0.00    +0.000 N 
ATOM      5  C   UNL     1      -5.894  12.106  20.589  0.00  0.00    +0.000 C 
ATOM      6  N   UNL     1      -5.828  12.226  21.864  0.00  0.00    +0.000 NA
ATOM      7  N   UNL     1      -4.943  13.223  22.234  0.00  0.00    +0.000 N 
ATOM      8  C   UNL     1      -5.367  13.960  23.337  0.00  0.00    +0.000 C 
ATOM      9  C   UNL     1      -6.629  13.468  24.041  0.00  0.00    +0.000 C 
ATOM     10  O   UNL     1      -4.876  15.005  23.749  0.00  0.00    +0.000 OA
ATOM     11  C   UNL     1      -3.815  13.394  21.197  0.00  0.00    +0.000 C 
ATOM     12  S   UNL     1      -4.911  13.216  19.658  0.00  0.00    +0.000 S 
ATOM     13  C   UNL     1      -2.832  14.635  21.171  0.00  0.00    +0.000 C 
ATOM     14  C   UNL     1      -2.295  14.965  22.561  0.00  0.00    +0.000 C 
ATOM     15  C   UNL     1      -1.702  13.717  23.227  0.00  0.00    +0.000 C 
ATOM     16  C   UNL     1      -2.105  12.312  22.655  0.00  0.00    +0.000 C 
ATOM     17  C   UNL     1      -2.869  12.150  21.258  0.00  0.00    +0.000 C 
ATOM     18  C   UNL     1      -1.936  12.009  19.943  0.00  0.00    +0.000 C 
ATOM     19  N   UNL     1      -1.622  13.337  19.387  0.00  0.00    +0.000 NA
ATOM     20  C   UNL     1      -1.475  14.325  20.413  0.00  0.00    +0.000 C 
ATOM     21  H   UNL     1      -6.457  11.055  18.944  0.00  0.00    +0.000 HD
ATOM     22  H   UNL     1      -2.332  13.619  18.715  0.00  0.00    +0.000 HD
ENDROOT
BRANCH  18  23
ATOM     23  C   UNL     1      -2.225  11.176  18.652  0.00  0.00    +0.000 A 
ATOM     24  C   UNL     1      -2.871   9.939  18.562  0.00  0.00    +0.000 A 
ATOM     25  C   UNL     1      -3.372   9.463  17.329  0.00  0.00    +0.000 A 
ATOM     26  C   UNL     1      -3.177  10.184  16.158  0.00  0.00    +0.000 A 
ATOM     27  F   UNL     1      -3.687   9.739  15.003  0.00  0.00    +0.000 F 
ATOM     28  C   UNL     1      -2.460  11.364  16.186  0.00  0.00    +0.000 A 
ATOM     29  C   UNL     1      -1.989  11.845  17.414  0.00  0.00    +0.000 A 
ENDBRANCH  18  23
BRANCH  20  30
ATOM     30  C   UNL     1      -0.677  15.518  19.925  0.00  0.00    +0.000 A 
ATOM     31  C   UNL     1      -1.200  16.424  18.996  0.00  0.00    +0.000 A 
ATOM     32  C   UNL     1      -0.413  17.468  18.514  0.00  0.00    +0.000 A 
ATOM     33  C   UNL     1       0.891  17.619  18.970  0.00  0.00    +0.000 A 
ATOM     34  F   UNL     1       1.645  18.622  18.495  0.00  0.00    +0.000 F 
ATOM     35  C   UNL     1       1.431  16.744  19.905  0.00  0.00    +0.000 A 
ATOM     36  C   UNL     1       0.642  15.705  20.377  0.00  0.00    +0.000 A 
ENDBRANCH  20  30
TORSDOF 2
ENDMDL
MODEL 5
REMARK VINA RESULT:      -7.8      0.809      1.364
REMARK  Name = 
REMARK  4 active torsions:
REMARK  status: ('A' for Active; 'I' for Inactive)
REMARK    1  A    between atoms: C_1  and  C_2
REMARK    2  A    between atoms: C_8  and  C_9
REMARK    3  A    between atoms: C_18  and  C_19
REMARK    4  A    between atoms: C_27  and  C_28
REMARK                            x       y       z     vdW  Elec       q    Type
REMARK                         _______ _______ _______ _____ _____    ______ ____
ROOT
ATOM      1  C   UNL     1      -1.439  17.262  25.753  0.00  0.00    +0.000 C 
ATOM      2  C   UNL     1      -0.531  16.781  24.652  0.00  0.00    +0.000 C 
ATOM      3  O   UNL     1       0.682  16.710  24.831  0.00  0.00    +0.000 OA
ATOM      4  N   UNL     1      -1.192  16.483  23.468  0.00  0.00    +0.000 N 
ATOM      5  C   UNL     1      -0.688  15.620  22.540  0.00  0.00    +0.000 C 
ATOM      6  N   UNL     1       0.445  15.027  22.639  0.00  0.00    +0.000 NA
ATOM      7  N   UNL     1       0.637  14.127  21.606  0.00  0.00    +0.000 N 
ATOM      8  C   UNL     1       1.951  14.085  21.144  0.00  0.00    +0.000 C 
ATOM      9  C   UNL     1       2.975  14.898  21.930  0.00  0.00    +0.000 C 
ATOM     10  O   UNL     1       2.349  13.526  20.128  0.00  0.00    +0.000 OA
ATOM     11  C   UNL     1      -0.701  13.557  21.093  0.00  0.00    +0.000 C 
ATOM     12  S   UNL     1      -1.666  15.191  21.153  0.00  0.00    +0.000 S 
ATOM     13  C   UNL     1      -0.846  12.752  19.737  0.00  0.00    +0.000 C 
ATOM     14  C   UNL     1       0.245  11.696  19.584  0.00  0.00    +0.000 C 
ATOM     15  C   UNL     1       0.321  10.805  20.830  0.00  0.00    +0.000 C 
ATOM     16  C   UNL     1      -0.334  11.332  22.156  0.00  0.00    +0.000 C 
ATOM     17  C   UNL     1      -1.303  12.606  22.177  0.00  0.00    +0.000 C 
ATOM     18  C   UNL     1      -2.878  12.313  21.948  0.00  0.00    +0.000 C 
ATOM     19  N   UNL     1      -3.204  12.341  20.511  0.00  0.00    +0.000 NA
ATOM     20  C   UNL     1      -2.135  11.830  19.709  0.00  0.00    +0.000 C 
ATOM     21  H   UNL     1      -2.153  16.767  23.355  0.00  0.00    +0.000 HD
ATOM     22  H   UNL     1      -3.453  13.285  20.220  0.00  0.00    +0.000 HD
ENDROOT
BRANCH  18  23
ATOM     23  C   UNL     1      -4.092  13.074  22.573  0.00  0.00    +0.000 A 
ATOM     24  C   UNL     1      -4.076  13.968  23.648  0.00  0.00    +0.000 A 
ATOM     25  C   UNL     1      -5.162  14.841  23.889  0.00  0.00    +0.000 A 
ATOM     26  C   UNL     1      -6.304  14.787  23.102  0.00  0.00    +0.000 A 
ATOM     27  F   UNL     1      -7.310  15.644  23.320  0.00  0.00    +0.000 F 
ATOM     28  C   UNL     1      -6.401  13.853  22.089  0.00  0.00    +0.000 A 
ATOM     29  C   UNL     1      -5.313  13.009  21.837  0.00  0.00    +0.000 A 
ENDBRANCH  18  23
BRANCH  20  30
ATOM     30  C   UNL     1      -2.626  11.384  18.345  0.00  0.00    +0.000 A 
ATOM     31  C   UNL     1      -3.858  11.805  17.833  0.00  0.00    +0.000 A 
ATOM     32  C   UNL     1      -4.312  11.319  16.608  0.00  0.00    +0.000 A 
ATOM     33  C   UNL     1      -3.531  10.424  15.887  0.00  0.00    +0.000 A 
ATOM     34  F   UNL     1      -3.979   9.955  14.713  0.00  0.00    +0.000 F 
ATOM     35  C   UNL     1      -2.296  10.001  16.364  0.00  0.00    +0.000 A 
ATOM     36  C   UNL     1      -1.853  10.488  17.586  0.00  0.00    +0.000 A 
ENDBRANCH  20  30
TORSDOF 2
ENDMDL
MODEL 6
REMARK VINA RESULT:      -7.6      0.927      1.243
REMARK  Name = 
REMARK  4 active torsions:
REMARK  status: ('A' for Active; 'I' for Inactive)
REMARK    1  A    between atoms: C_1  and  C_2
REMARK    2  A    between atoms: C_8  and  C_9
REMARK    3  A    between atoms: C_18  and  C_19
REMARK    4  A    between atoms: C_27  and  C_28
REMARK                            x       y       z     vdW  Elec       q    Type
REMARK                         _______ _______ _______ _____ _____    ______ ____
ROOT
ATOM      1  C   UNL     1      -0.557  17.505  24.857  0.00  0.00    +0.000 C 
ATOM      2  C   UNL     1       0.260  16.817  23.795  0.00  0.00    +0.000 C 
ATOM      3  O   UNL     1       1.453  16.591  23.977  0.00  0.00    +0.000 OA
ATOM      4  N   UNL     1      -0.451  16.524  22.640  0.00  0.00    +0.000 N 
ATOM      5  C   UNL     1      -0.085  15.530  21.782  0.00  0.00    +0.000 C 
ATOM      6  N   UNL     1       0.955  14.792  21.925  0.00  0.00    +0.000 NA
ATOM      7  N   UNL     1       1.006  13.797  20.965  0.00  0.00    +0.000 N 
ATOM      8  C   UNL     1       2.295  13.535  20.505  0.00  0.00    +0.000 C 
ATOM      9  C   UNL     1       3.433  14.255  21.223  0.00  0.00    +0.000 C 
ATOM     10  O   UNL     1       2.598  12.848  19.536  0.00  0.00    +0.000 OA
ATOM     11  C   UNL     1      -0.405  13.383  20.501  0.00  0.00    +0.000 C 
ATOM     12  S   UNL     1      -1.131  15.136  20.435  0.00  0.00    +0.000 S 
ATOM     13  C   UNL     1      -0.679  12.503  19.214  0.00  0.00    +0.000 C 
ATOM     14  C   UNL     1       0.251  11.296  19.142  0.00  0.00    +0.000 C 
ATOM     15  C   UNL     1       0.218  10.503  20.454  0.00  0.00    +0.000 C 
ATOM     16  C   UNL     1      -0.339  11.217  21.735  0.00  0.00    +0.000 C 
ATOM     17  C   UNL     1      -1.120  12.612  21.658  0.00  0.00    +0.000 C 
ATOM     18  C   UNL     1      -2.724  12.527  21.456  0.00  0.00    +0.000 C 
ATOM     19  N   UNL     1      -3.062  12.489  20.022  0.00  0.00    +0.000 NA
ATOM     20  C   UNL     1      -2.085  11.772  19.260  0.00  0.00    +0.000 C 
ATOM     21  H   UNL     1      -1.365  16.930  22.507  0.00  0.00    +0.000 HD
ATOM     22  H   UNL     1      -3.180  13.433  19.659  0.00  0.00    +0.000 HD
ENDROOT
BRANCH  18  23
ATOM     23  C   UNL     1      -3.811  13.497  22.021  0.00  0.00    +0.000 A 
ATOM     24  C   UNL     1      -5.143  13.617  21.612  0.00  0.00    +0.000 A 
ATOM     25  C   UNL     1      -6.101  14.270  22.420  0.00  0.00    +0.000 A 
ATOM     26  C   UNL     1      -5.730  14.871  23.616  0.00  0.00    +0.000 A 
ATOM     27  F   UNL     1      -6.654  15.455  24.388  0.00  0.00    +0.000 F 
ATOM     28  C   UNL     1      -4.407  14.859  24.012  0.00  0.00    +0.000 A 
ATOM     29  C   UNL     1      -3.466  14.188  23.221  0.00  0.00    +0.000 A 
ENDBRANCH  18  23
BRANCH  20  30
ATOM     30  C   UNL     1      -2.651  11.295  17.937  0.00  0.00    +0.000 A 
ATOM     31  C   UNL     1      -3.910  11.706  17.484  0.00  0.00    +0.000 A 
ATOM     32  C   UNL     1      -4.432  11.192  16.299  0.00  0.00    +0.000 A 
ATOM     33  C   UNL     1      -3.692  10.280  15.556  0.00  0.00    +0.000 A 
ATOM     34  F   UNL     1      -4.204   9.784  14.420  0.00  0.00    +0.000 F 
ATOM     35  C   UNL     1      -2.432   9.867  15.973  0.00  0.00    +0.000 A 
ATOM     36  C   UNL     1      -1.922  10.381  17.157  0.00  0.00    +0.000 A 
ENDBRANCH  20  30
TORSDOF 2
ENDMDL
MODEL 7
REMARK VINA RESULT:      -7.6      3.655      7.048
REMARK  Name = 
REMARK  4 active torsions:
REMARK  status: ('A' for Active; 'I' for Inactive)
REMARK    1  A    between atoms: C_1  and  C_2
REMARK    2  A    between atoms: C_8  and  C_9
REMARK    3  A    between atoms: C_18  and  C_19
REMARK    4  A    between atoms: C_27  and  C_28
REMARK                            x       y       z     vdW  Elec       q    Type
REMARK                         _______ _______ _______ _____ _____    ______ ____
ROOT
ATOM      1  C   UNL     1      -7.636   9.404  20.370  0.00  0.00    +0.000 C 
ATOM      2  C   UNL     1      -7.268  10.696  21.050  0.00  0.00    +0.000 C 
ATOM      3  O   UNL     1      -7.622  10.914  22.206  0.00  0.00    +0.000 OA
ATOM      4  N   UNL     1      -6.558  11.574  20.243  0.00  0.00    +0.000 N 
ATOM      5  C   UNL     1      -5.741  12.542  20.748  0.00  0.00    +0.000 C 
ATOM      6  N   UNL     1      -5.567  12.767  21.999  0.00  0.00    +0.000 NA
ATOM      7  N   UNL     1      -4.597  13.729  22.210  0.00  0.00    +0.000 N 
ATOM      8  C   UNL     1      -4.887  14.587  23.270  0.00  0.00    +0.000 C 
ATOM      9  C   UNL     1      -6.117  14.243  24.106  0.00  0.00    +0.000 C 
ATOM     10  O   UNL     1      -4.302  15.627  23.547  0.00  0.00    +0.000 OA
ATOM     11  C   UNL     1      -3.546  13.734  21.082  0.00  0.00    +0.000 C 
ATOM     12  S   UNL     1      -4.769  13.498  19.650  0.00  0.00    +0.000 S 
ATOM     13  C   UNL     1      -2.495  14.899  20.871  0.00  0.00    +0.000 C 
ATOM     14  C   UNL     1      -1.830  15.310  22.182  0.00  0.00    +0.000 C 
ATOM     15  C   UNL     1      -1.263  14.087  22.913  0.00  0.00    +0.000 C 
ATOM     16  C   UNL     1      -1.795  12.669  22.504  0.00  0.00    +0.000 C 
ATOM     17  C   UNL     1      -2.675  12.439  21.186  0.00  0.00    +0.000 C 
ATOM     18  C   UNL     1      -1.860  12.121  19.825  0.00  0.00    +0.000 C 
ATOM     19  N   UNL     1      -1.511  13.373  19.129  0.00  0.00    +0.000 NA
ATOM     20  C   UNL     1      -1.223  14.433  20.046  0.00  0.00    +0.000 C 
ATOM     21  H   UNL     1      -6.495  11.393  19.253  0.00  0.00    +0.000 HD
ATOM     22  H   UNL     1      -2.254  13.643  18.487  0.00  0.00    +0.000 HD
ENDROOT
BRANCH  18  23
ATOM     23  C   UNL     1      -2.300  11.202  18.640  0.00  0.00    +0.000 A 
ATOM     24  C   UNL     1      -3.478  11.281  17.891  0.00  0.00    +0.000 A 
ATOM     25  C   UNL     1      -3.598  10.626  16.644  0.00  0.00    +0.000 A 
ATOM     26  C   UNL     1      -2.570   9.828  16.160  0.00  0.00    +0.000 A 
ATOM     27  F   UNL     1      -2.683   9.241  14.963  0.00  0.00    +0.000 F 
ATOM     28  C   UNL     1      -1.427   9.644  16.913  0.00  0.00    +0.000 A 
ATOM     29  C   UNL     1      -1.301  10.317  18.135  0.00  0.00    +0.000 A 
ENDBRANCH  18  23
BRANCH  20  30
ATOM     30  C   UNL     1      -0.395  15.523  19.394  0.00  0.00    +0.000 A 
ATOM     31  C   UNL     1       0.992  15.409  19.253  0.00  0.00    +0.000 A 
ATOM     32  C   UNL     1       1.732  16.460  18.715  0.00  0.00    +0.000 A 
ATOM     33  C   UNL     1       1.087  17.620  18.303  0.00  0.00    +0.000 A 
ATOM     34  F   UNL     1       1.807  18.630  17.792  0.00  0.00    +0.000 F 
ATOM     35  C   UNL     1      -0.292  17.754  18.415  0.00  0.00    +0.000 A 
ATOM     36  C   UNL     1      -1.020  16.704  18.956  0.00  0.00    +0.000 A 
ENDBRANCH  20  30
TORSDOF 2
ENDMDL
MODEL 8
REMARK VINA RESULT:      -7.5      3.403      8.064
REMARK  Name = 
REMARK  4 active torsions:
REMARK  status: ('A' for Active; 'I' for Inactive)
REMARK    1  A    between atoms: C_1  and  C_2
REMARK    2  A    between atoms: C_8  and  C_9
REMARK    3  A    between atoms: C_18  and  C_19
REMARK    4  A    between atoms: C_27  and  C_28
REMARK                            x       y       z     vdW  Elec       q    Type
REMARK                         _______ _______ _______ _____ _____    ______ ____
ROOT
ATOM      1  C   UNL     1      -3.232   9.603  17.528  0.00  0.00    +0.000 C 
ATOM      2  C   UNL     1      -3.805  10.917  17.990  0.00  0.00    +0.000 C 
ATOM      3  O   UNL     1      -4.981  11.193  17.773  0.00  0.00    +0.000 OA
ATOM      4  N   UNL     1      -2.882  11.743  18.618  0.00  0.00    +0.000 N 
ATOM      5  C   UNL     1      -3.246  12.716  19.502  0.00  0.00    +0.000 C 
ATOM      6  N   UNL     1      -4.458  12.993  19.819  0.00  0.00    +0.000 NA
ATOM      7  N   UNL     1      -4.513  13.944  20.822  0.00  0.00    +0.000 N 
ATOM      8  C   UNL     1      -5.557  14.854  20.667  0.00  0.00    +0.000 C 
ATOM      9  C   UNL     1      -6.542  14.573  19.534  0.00  0.00    +0.000 C 
ATOM     10  O   UNL     1      -5.718  15.894  21.295  0.00  0.00    +0.000 OA
ATOM     11  C   UNL     1      -3.275  13.876  21.738  0.00  0.00    +0.000 C 
ATOM     12  S   UNL     1      -2.002  13.601  20.356  0.00  0.00    +0.000 S 
ATOM     13  C   UNL     1      -2.892  15.009  22.776  0.00  0.00    +0.000 C 
ATOM     14  C   UNL     1      -4.099  15.466  23.591  0.00  0.00    +0.000 C 
ATOM     15  C   UNL     1      -4.818  14.266  24.219  0.00  0.00    +0.000 C 
ATOM     16  C   UNL     1      -4.539  12.841  23.622  0.00  0.00    +0.000 C 
ATOM     17  C   UNL     1      -3.341  12.571  22.595  0.00  0.00    +0.000 C 
ATOM     18  C   UNL     1      -1.913  12.176  23.246  0.00  0.00    +0.000 C 
ATOM     19  N   UNL     1      -1.124  13.387  23.532  0.00  0.00    +0.000 NA
ATOM     20  C   UNL     1      -1.953  14.482  23.938  0.00  0.00    +0.000 C 
ATOM     21  H   UNL     1      -1.901  11.516  18.565  0.00  0.00    +0.000 HD
ATOM     22  H   UNL     1      -0.558  13.643  22.726  0.00  0.00    +0.000 HD
ENDROOT
BRANCH  18  23
ATOM     23  C   UNL     1      -0.830  11.213  22.660  0.00  0.00    +0.000 A 
ATOM     24  C   UNL     1      -0.668   9.850  22.925  0.00  0.00    +0.000 A 
ATOM     25  C   UNL     1       0.116   9.028  22.083  0.00  0.00    +0.000 A 
ATOM     26  C   UNL     1       0.802   9.569  21.003  0.00  0.00    +0.000 A 
ATOM     27  F   UNL     1       1.512   8.774  20.193  0.00  0.00    +0.000 F 
ATOM     28  C   UNL     1       0.747  10.928  20.762  0.00  0.00    +0.000 A 
ATOM     29  C   UNL     1      -0.051  11.733  21.583  0.00  0.00    +0.000 A 
ENDBRANCH  18  23
BRANCH  20  30
ATOM     30  C   UNL     1      -1.161  15.524  24.704  0.00  0.00    +0.000 A 
ATOM     31  C   UNL     1      -0.268  16.389  24.061  0.00  0.00    +0.000 A 
ATOM     32  C   UNL     1       0.498  17.286  24.804  0.00  0.00    +0.000 A 
ATOM     33  C   UNL     1       0.361  17.332  26.185  0.00  0.00    +0.000 A 
ATOM     34  F   UNL     1       1.107  18.193  26.894  0.00  0.00    +0.000 F 
ATOM     35  C   UNL     1      -0.530  16.497  26.849  0.00  0.00    +0.000 A 
ATOM     36  C   UNL     1      -1.285  15.604  26.102  0.00  0.00    +0.000 A 
ENDBRANCH  20  30
TORSDOF 2
ENDMDL
MODEL 9
REMARK VINA RESULT:      -7.4      3.295      8.226
REMARK  Name = 
REMARK  4 active torsions:
REMARK  status: ('A' for Active; 'I' for Inactive)
REMARK    1  A    between atoms: C_1  and  C_2
REMARK    2  A    between atoms: C_8  and  C_9
REMARK    3  A    between atoms: C_18  and  C_19
REMARK    4  A    between atoms: C_27  and  C_28
REMARK                            x       y       z     vdW  Elec       q    Type
REMARK                         _______ _______ _______ _____ _____    ______ ____
ROOT
ATOM      1  C   UNL     1      -3.855  10.099  17.306  0.00  0.00    +0.000 C 
ATOM      2  C   UNL     1      -4.564  11.081  18.201  0.00  0.00    +0.000 C 
ATOM      3  O   UNL     1      -5.766  10.965  18.423  0.00  0.00    +0.000 OA
ATOM      4  N   UNL     1      -3.747  12.094  18.683  0.00  0.00    +0.000 N 
ATOM      5  C   UNL     1      -4.022  12.780  19.829  0.00  0.00    +0.000 C 
ATOM      6  N   UNL     1      -5.062  12.594  20.556  0.00  0.00    +0.000 NA
ATOM      7  N   UNL     1      -5.013  13.351  21.713  0.00  0.00    +0.000 N 
ATOM      8  C   UNL     1      -6.252  13.865  22.092  0.00  0.00    +0.000 C 
ATOM      9  C   UNL     1      -7.459  13.396  21.284  0.00  0.00    +0.000 C 
ATOM     10  O   UNL     1      -6.457  14.711  22.955  0.00  0.00    +0.000 OA
ATOM     11  C   UNL     1      -3.561  13.604  22.165  0.00  0.00    +0.000 C 
ATOM     12  S   UNL     1      -2.853  13.933  20.435  0.00  0.00    +0.000 S 
ATOM     13  C   UNL     1      -3.161  14.675  23.261  0.00  0.00    +0.000 C 
ATOM     14  C   UNL     1      -4.067  14.601  24.487  0.00  0.00    +0.000 C 
ATOM     15  C   UNL     1      -4.145  13.166  25.021  0.00  0.00    +0.000 C 
ATOM     16  C   UNL     1      -3.714  11.997  24.066  0.00  0.00    +0.000 C 
ATOM     17  C   UNL     1      -2.946  12.265  22.688  0.00  0.00    +0.000 C 
ATOM     18  C   UNL     1      -1.330  12.307  22.764  0.00  0.00    +0.000 C 
ATOM     19  N   UNL     1      -0.862  13.674  23.057  0.00  0.00    +0.000 NA
ATOM     20  C   UNL     1      -1.757  14.370  23.930  0.00  0.00    +0.000 C 
ATOM     21  H   UNL     1      -2.830  12.221  18.282  0.00  0.00    +0.000 HD
ATOM     22  H   UNL     1      -0.722  14.195  22.194  0.00  0.00    +0.000 HD
ENDROOT
BRANCH  18  23
ATOM     23  C   UNL     1      -0.310  11.840  21.676  0.00  0.00    +0.000 A 
ATOM     24  C   UNL     1      -0.297  10.625  20.984  0.00  0.00    +0.000 A 
ATOM     25  C   UNL     1       0.455  10.465  19.798  0.00  0.00    +0.000 A 
ATOM     26  C   UNL     1       1.257  11.495  19.322  0.00  0.00    +0.000 A 
ATOM     27  F   UNL     1       1.936  11.342  18.179  0.00  0.00    +0.000 F 
ATOM     28  C   UNL     1       1.348  12.679  20.026  0.00  0.00    +0.000 A 
ATOM     29  C   UNL     1       0.581  12.842  21.186  0.00  0.00    +0.000 A 
ENDBRANCH  18  23
BRANCH  20  30
ATOM     30  C   UNL     1      -1.067  15.526  24.628  0.00  0.00    +0.000 A 
ATOM     31  C   UNL     1      -0.336  16.484  23.917  0.00  0.00    +0.000 A 
ATOM     32  C   UNL     1       0.347  17.492  24.595  0.00  0.00    +0.000 A 
ATOM     33  C   UNL     1       0.288  17.554  25.982  0.00  0.00    +0.000 A 
ATOM     34  F   UNL     1       0.954  18.523  26.628  0.00  0.00    +0.000 F 
ATOM     35  C   UNL     1      -0.445  16.626  26.713  0.00  0.00    +0.000 A 
ATOM     36  C   UNL     1      -1.118  15.624  26.029  0.00  0.00    +0.000 A 
ENDBRANCH  20  30
TORSDOF 2
ENDMDL
