MODEL 1
REMARK VINA RESULT:      -6.6      0.000      0.000
REMARK  Name = 
REMARK  11 active torsions:
REMARK  status: ('A' for Active; 'I' for Inactive)
REMARK    1  A    between atoms: C_1  and  O_2
REMARK    2  A    between atoms: O_2  and  C_3
REMARK    3  A    between atoms: N_5  and  C_6
REMARK    4  A    between atoms: N_5  and  C_7
REMARK    5  A    between atoms: C_7  and  C_8
REMARK    6  A    between atoms: C_7  and  C_9
REMARK    7  A    between atoms: C_7  and  C_10
REMARK    8  A    between atoms: C_10  and  C_11
REMARK    9  A    between atoms: N_12  and  O_13
REMARK   10  A    between atoms: O_13  and  C_14
REMARK   11  A    between atoms: C_14  and  C_16
REMARK                            x       y       z     vdW  Elec       q    Type
REMARK                         _______ _______ _______ _____ _____    ______ ____
ROOT
ATOM      1  C   UNL     1       3.575   3.376  18.107  0.00  0.00    +0.000 C 
ATOM      2  C   UNL     1       4.500   2.693  19.115  0.00  0.00    +0.000 C 
ATOM      3  N   UNL     1       4.025   3.718  16.932  0.00  0.00    +0.000 NA
ENDROOT
BRANCH   1   4
ATOM      4  C   UNL     1       2.093   3.677  18.549  0.00  0.00    +0.000 C 
ATOM      5  C   UNL     1       1.468   2.289  18.858  0.00  0.00    +0.000 C 
ATOM      6  C   UNL     1       1.301   4.275  17.363  0.00  0.00    +0.000 C 
BRANCH   4   9
ATOM      7  C   UNL     1       2.196   5.973  19.684  0.00  0.00    +0.000 C 
ATOM      8  O   UNL     1       1.978   6.738  20.616  0.00  0.00    +0.000 OA
ATOM      9  N   UNL     1       1.985   4.594  19.744  0.00  0.00    +0.000 N 
ATOM     10  C   UNL     1       1.423   4.094  20.995  0.00  0.00    +0.000 C 
BRANCH   7  12
ATOM     11  C   UNL     1       2.524   7.805  18.272  0.00  0.00    +0.000 C 
ATOM     12  O   UNL     1       2.637   6.397  18.470  0.00  0.00    +0.000 OA
ENDBRANCH   7  12
ENDBRANCH   4   9
ENDBRANCH   1   4
BRANCH   3  13
ATOM     13  O   UNL     1       5.374   3.314  16.776  0.00  0.00    +0.000 OA
BRANCH  13  14
ATOM     14  C   UNL     1       6.094   4.218  16.054  0.00  0.00    +0.000 C 
ATOM     15  O   UNL     1       6.199   4.290  14.837  0.00  0.00    +0.000 OA
BRANCH  14  16
ATOM     16  C   UNL     1       6.780   5.172  16.980  0.00  0.00    +0.000 A 
ATOM     17  C   UNL     1       6.847   6.523  16.598  0.00  0.00    +0.000 A 
ATOM     18  C   UNL     1       7.482   7.463  17.412  0.00  0.00    +0.000 A 
ATOM     19  C   UNL     1       8.059   7.068  18.617  0.00  0.00    +0.000 A 
ATOM     20  C   UNL     1       8.001   5.731  19.009  0.00  0.00    +0.000 A 
ATOM     21  C   UNL     1       7.364   4.786  18.196  0.00  0.00    +0.000 A 
ENDBRANCH  14  16
ENDBRANCH  13  14
ENDBRANCH   3  13
TORSDOF 6
ENDMDL
MODEL 2
REMARK VINA RESULT:      -6.6      2.227      3.642
REMARK  Name = 
REMARK  11 active torsions:
REMARK  status: ('A' for Active; 'I' for Inactive)
REMARK    1  A    between atoms: C_1  and  O_2
REMARK    2  A    between atoms: O_2  and  C_3
REMARK    3  A    between atoms: N_5  and  C_6
REMARK    4  A    between atoms: N_5  and  C_7
REMARK    5  A    between atoms: C_7  and  C_8
REMARK    6  A    between atoms: C_7  and  C_9
REMARK    7  A    between atoms: C_7  and  C_10
REMARK    8  A    between atoms: C_10  and  C_11
REMARK    9  A    between atoms: N_12  and  O_13
REMARK   10  A    between atoms: O_13  and  C_14
REMARK   11  A    between atoms: C_14  and  C_16
REMARK                            x       y       z     vdW  Elec       q    Type
REMARK                         _______ _______ _______ _____ _____    ______ ____
ROOT
ATOM      1  C   UNL     1       4.088   4.848  19.423  0.00  0.00    +0.000 C 
ATOM      2  C   UNL     1       4.464   3.367  19.377  0.00  0.00    +0.000 C 
ATOM      3  N   UNL     1       5.010   5.754  19.594  0.00  0.00    +0.000 NA
ENDROOT
BRANCH   1   4
ATOM      4  C   UNL     1       2.565   5.229  19.295  0.00  0.00    +0.000 C 
ATOM      5  C   UNL     1       2.520   6.406  18.282  0.00  0.00    +0.000 C 
ATOM      6  C   UNL     1       2.043   5.775  20.645  0.00  0.00    +0.000 C 
BRANCH   4   9
ATOM      7  C   UNL     1       0.975   3.261  19.706  0.00  0.00    +0.000 C 
ATOM      8  O   UNL     1       0.157   2.426  19.338  0.00  0.00    +0.000 OA
ATOM      9  N   UNL     1       1.685   4.091  18.836  0.00  0.00    +0.000 N 
ATOM     10  C   UNL     1       1.359   3.949  17.420  0.00  0.00    +0.000 C 
BRANCH   7  12
ATOM     11  C   UNL     1       1.703   2.340  21.725  0.00  0.00    +0.000 C 
ATOM     12  O   UNL     1       1.253   3.492  21.016  0.00  0.00    +0.000 OA
ENDBRANCH   7  12
ENDBRANCH   4   9
ENDBRANCH   1   4
BRANCH   3  13
ATOM     13  O   UNL     1       6.293   5.155  19.655  0.00  0.00    +0.000 OA
BRANCH  13  14
ATOM     14  C   UNL     1       7.164   5.734  18.781  0.00  0.00    +0.000 C 
ATOM     15  O   UNL     1       8.210   6.315  19.042  0.00  0.00    +0.000 OA
BRANCH  14  16
ATOM     16  C   UNL     1       6.664   5.563  17.382  0.00  0.00    +0.000 A 
ATOM     17  C   UNL     1       7.047   4.404  16.686  0.00  0.00    +0.000 A 
ATOM     18  C   UNL     1       6.623   4.188  15.373  0.00  0.00    +0.000 A 
ATOM     19  C   UNL     1       5.813   5.126  14.737  0.00  0.00    +0.000 A 
ATOM     20  C   UNL     1       5.425   6.282  15.415  0.00  0.00    +0.000 A 
ATOM     21  C   UNL     1       5.847   6.501  16.732  0.00  0.00    +0.000 A 
ENDBRANCH  14  16
ENDBRANCH  13  14
ENDBRANCH   3  13
TORSDOF 6
ENDMDL
MODEL 3
REMARK VINA RESULT:      -6.6      2.230      3.533
REMARK  Name = 
REMARK  11 active torsions:
REMARK  status: ('A' for Active; 'I' for Inactive)
REMARK    1  A    between atoms: C_1  and  O_2
REMARK    2  A    between atoms: O_2  and  C_3
REMARK    3  A    between atoms: N_5  and  C_6
REMARK    4  A    between atoms: N_5  and  C_7
REMARK    5  A    between atoms: C_7  and  C_8
REMARK    6  A    between atoms: C_7  and  C_9
REMARK    7  A    between atoms: C_7  and  C_10
REMARK    8  A    between atoms: C_10  and  C_11
REMARK    9  A    between atoms: N_12  and  O_13
REMARK   10  A    between atoms: O_13  and  C_14
REMARK   11  A    between atoms: C_14  and  C_16
REMARK                            x       y       z     vdW  Elec       q    Type
REMARK                         _______ _______ _______ _____ _____    ______ ____
ROOT
ATOM      1  C   UNL     1       4.092   4.864  19.422  0.00  0.00    +0.000 C 
ATOM      2  C   UNL     1       4.480   3.386  19.389  0.00  0.00    +0.000 C 
ATOM      3  N   UNL     1       5.007   5.779  19.577  0.00  0.00    +0.000 NA
ENDROOT
BRANCH   1   4
ATOM      4  C   UNL     1       2.564   5.230  19.299  0.00  0.00    +0.000 C 
ATOM      5  C   UNL     1       2.507   6.418  18.300  0.00  0.00    +0.000 C 
ATOM      6  C   UNL     1       2.037   5.754  20.655  0.00  0.00    +0.000 C 
BRANCH   4   9
ATOM      7  C   UNL     1       0.974   3.257  19.685  0.00  0.00    +0.000 C 
ATOM      8  O   UNL     1       0.165   2.419  19.304  0.00  0.00    +0.000 OA
ATOM      9  N   UNL     1       1.696   4.088  18.826  0.00  0.00    +0.000 N 
ATOM     10  C   UNL     1       1.396   3.943  17.405  0.00  0.00    +0.000 C 
BRANCH   7  12
ATOM     11  C   UNL     1       1.802   2.382  21.686  0.00  0.00    +0.000 C 
ATOM     12  O   UNL     1       1.227   3.492  20.999  0.00  0.00    +0.000 OA
ENDBRANCH   7  12
ENDBRANCH   4   9
ENDBRANCH   1   4
BRANCH   3  13
ATOM     13  O   UNL     1       6.295   5.192  19.637  0.00  0.00    +0.000 OA
BRANCH  13  14
ATOM     14  C   UNL     1       7.158   5.773  18.755  0.00  0.00    +0.000 C 
ATOM     15  O   UNL     1       8.165   6.419  19.010  0.00  0.00    +0.000 OA
BRANCH  14  16
ATOM     16  C   UNL     1       6.702   5.509  17.355  0.00  0.00    +0.000 A 
ATOM     17  C   UNL     1       5.887   6.473  16.738  0.00  0.00    +0.000 A 
ATOM     18  C   UNL     1       5.418   6.283  15.436  0.00  0.00    +0.000 A 
ATOM     19  C   UNL     1       5.756   5.128  14.734  0.00  0.00    +0.000 A 
ATOM     20  C   UNL     1       6.563   4.162  15.333  0.00  0.00    +0.000 A 
ATOM     21  C   UNL     1       7.036   4.349  16.638  0.00  0.00    +0.000 A 
ENDBRANCH  14  16
ENDBRANCH  13  14
ENDBRANCH   3  13
TORSDOF 6
ENDMDL
MODEL 4
REMARK VINA RESULT:      -6.5      1.987      3.156
REMARK  Name = 
REMARK  11 active torsions:
REMARK  status: ('A' for Active; 'I' for Inactive)
REMARK    1  A    between atoms: C_1  and  O_2
REMARK    2  A    between atoms: O_2  and  C_3
REMARK    3  A    between atoms: N_5  and  C_6
REMARK    4  A    between atoms: N_5  and  C_7
REMARK    5  A    between atoms: C_7  and  C_8
REMARK    6  A    between atoms: C_7  and  C_9
REMARK    7  A    between atoms: C_7  and  C_10
REMARK    8  A    between atoms: C_10  and  C_11
REMARK    9  A    between atoms: N_12  and  O_13
REMARK   10  A    between atoms: O_13  and  C_14
REMARK   11  A    between atoms: C_14  and  C_16
REMARK                            x       y       z     vdW  Elec       q    Type
REMARK                         _______ _______ _______ _____ _____    ______ ____
ROOT
ATOM      1  C   UNL     1       3.999   4.005  18.086  0.00  0.00    +0.000 C 
ATOM      2  C   UNL     1       5.232   4.050  18.989  0.00  0.00    +0.000 C 
ATOM      3  N   UNL     1       4.130   4.092  16.792  0.00  0.00    +0.000 NA
ENDROOT
BRANCH   1   4
ATOM      4  C   UNL     1       2.585   3.889  18.771  0.00  0.00    +0.000 C 
ATOM      5  C   UNL     1       2.517   2.440  19.328  0.00  0.00    +0.000 C 
ATOM      6  C   UNL     1       1.471   4.015  17.705  0.00  0.00    +0.000 C 
BRANCH   4   9
ATOM      7  C   UNL     1       2.240   6.273  19.647  0.00  0.00    +0.000 C 
ATOM      8  O   UNL     1       1.916   7.080  20.511  0.00  0.00    +0.000 OA
ATOM      9  N   UNL     1       2.350   4.899  19.869  0.00  0.00    +0.000 N 
ATOM     10  C   UNL     1       2.000   4.445  21.212  0.00  0.00    +0.000 C 
BRANCH   7  12
ATOM     11  C   UNL     1       2.307   8.021  18.100  0.00  0.00    +0.000 C 
ATOM     12  O   UNL     1       2.494   6.632  18.361  0.00  0.00    +0.000 OA
ENDBRANCH   7  12
ENDBRANCH   4   9
ENDBRANCH   1   4
BRANCH   3  13
ATOM     13  O   UNL     1       5.499   4.162  16.433  0.00  0.00    +0.000 OA
BRANCH  13  14
ATOM     14  C   UNL     1       5.764   5.247  15.652  0.00  0.00    +0.000 C 
ATOM     15  O   UNL     1       5.669   6.429  15.956  0.00  0.00    +0.000 OA
BRANCH  14  16
ATOM     16  C   UNL     1       6.213   4.796  14.298  0.00  0.00    +0.000 A 
ATOM     17  C   UNL     1       5.429   3.839  13.632  0.00  0.00    +0.000 A 
ATOM     18  C   UNL     1       5.799   3.368  12.370  0.00  0.00    +0.000 A 
ATOM     19  C   UNL     1       6.955   3.845  11.757  0.00  0.00    +0.000 A 
ATOM     20  C   UNL     1       7.744   4.795  12.406  0.00  0.00    +0.000 A 
ATOM     21  C   UNL     1       7.376   5.270  13.671  0.00  0.00    +0.000 A 
ENDBRANCH  14  16
ENDBRANCH  13  14
ENDBRANCH   3  13
TORSDOF 6
ENDMDL
MODEL 5
REMARK VINA RESULT:      -6.5      2.130      3.230
REMARK  Name = 
REMARK  11 active torsions:
REMARK  status: ('A' for Active; 'I' for Inactive)
REMARK    1  A    between atoms: C_1  and  O_2
REMARK    2  A    between atoms: O_2  and  C_3
REMARK    3  A    between atoms: N_5  and  C_6
REMARK    4  A    between atoms: N_5  and  C_7
REMARK    5  A    between atoms: C_7  and  C_8
REMARK    6  A    between atoms: C_7  and  C_9
REMARK    7  A    between atoms: C_7  and  C_10
REMARK    8  A    between atoms: C_10  and  C_11
REMARK    9  A    between atoms: N_12  and  O_13
REMARK   10  A    between atoms: O_13  and  C_14
REMARK   11  A    between atoms: C_14  and  C_16
REMARK                            x       y       z     vdW  Elec       q    Type
REMARK                         _______ _______ _______ _____ _____    ______ ____
ROOT
ATOM      1  C   UNL     1       4.519   3.788  18.103  0.00  0.00    +0.000 C 
ATOM      2  C   UNL     1       5.425   4.504  19.105  0.00  0.00    +0.000 C 
ATOM      3  N   UNL     1       4.831   3.764  16.838  0.00  0.00    +0.000 NA
ENDROOT
BRANCH   1   4
ATOM      4  C   UNL     1       3.197   3.124  18.645  0.00  0.00    +0.000 C 
ATOM      5  C   UNL     1       3.559   1.634  18.892  0.00  0.00    +0.000 C 
ATOM      6  C   UNL     1       2.108   3.149  17.548  0.00  0.00    +0.000 C 
BRANCH   4   9
ATOM      7  C   UNL     1       2.095   5.039  19.945  0.00  0.00    +0.000 C 
ATOM      8  O   UNL     1       1.538   5.507  20.931  0.00  0.00    +0.000 OA
ATOM      9  N   UNL     1       2.662   3.763  19.904  0.00  0.00    +0.000 N 
ATOM     10  C   UNL     1       2.509   2.964  21.116  0.00  0.00    +0.000 C 
BRANCH   7  12
ATOM     11  C   UNL     1       2.629   7.056  18.897  0.00  0.00    +0.000 C 
ATOM     12  O   UNL     1       2.189   5.706  18.765  0.00  0.00    +0.000 OA
ENDBRANCH   7  12
ENDBRANCH   4   9
ENDBRANCH   1   4
BRANCH   3  13
ATOM     13  O   UNL     1       6.075   4.407  16.618  0.00  0.00    +0.000 OA
BRANCH  13  14
ATOM     14  C   UNL     1       5.982   5.379  15.667  0.00  0.00    +0.000 C 
ATOM     15  O   UNL     1       5.690   6.557  15.827  0.00  0.00    +0.000 OA
BRANCH  14  16
ATOM     16  C   UNL     1       6.300   4.803  14.323  0.00  0.00    +0.000 A 
ATOM     17  C   UNL     1       7.465   5.251  13.678  0.00  0.00    +0.000 A 
ATOM     18  C   UNL     1       7.814   4.762  12.417  0.00  0.00    +0.000 A 
ATOM     19  C   UNL     1       7.007   3.820  11.785  0.00  0.00    +0.000 A 
ATOM     20  C   UNL     1       5.847   3.366  12.413  0.00  0.00    +0.000 A 
ATOM     21  C   UNL     1       5.494   3.854  13.677  0.00  0.00    +0.000 A 
ENDBRANCH  14  16
ENDBRANCH  13  14
ENDBRANCH   3  13
TORSDOF 6
ENDMDL
MODEL 6
REMARK VINA RESULT:      -6.4      2.110      3.194
REMARK  Name = 
REMARK  11 active torsions:
REMARK  status: ('A' for Active; 'I' for Inactive)
REMARK    1  A    between atoms: C_1  and  O_2
REMARK    2  A    between atoms: O_2  and  C_3
REMARK    3  A    between atoms: N_5  and  C_6
REMARK    4  A    between atoms: N_5  and  C_7
REMARK    5  A    between atoms: C_7  and  C_8
REMARK    6  A    between atoms: C_7  and  C_9
REMARK    7  A    between atoms: C_7  and  C_10
REMARK    8  A    between atoms: C_10  and  C_11
REMARK    9  A    between atoms: N_12  and  O_13
REMARK   10  A    between atoms: O_13  and  C_14
REMARK   11  A    between atoms: C_14  and  C_16
REMARK                            x       y       z     vdW  Elec       q    Type
REMARK                         _______ _______ _______ _____ _____    ______ ____
ROOT
ATOM      1  C   UNL     1       4.764   5.087  18.125  0.00  0.00    +0.000 C 
ATOM      2  C   UNL     1       5.823   5.565  19.118  0.00  0.00    +0.000 C 
ATOM      3  N   UNL     1       4.964   5.212  16.842  0.00  0.00    +0.000 NA
ENDROOT
BRANCH   1   4
ATOM      4  C   UNL     1       3.428   4.483  18.701  0.00  0.00    +0.000 C 
ATOM      5  C   UNL     1       3.820   3.093  19.272  0.00  0.00    +0.000 C 
ATOM      6  C   UNL     1       2.424   4.233  17.552  0.00  0.00    +0.000 C 
BRANCH   4   9
ATOM      7  C   UNL     1       2.411   6.670  19.570  0.00  0.00    +0.000 C 
ATOM      8  O   UNL     1       1.763   7.325  20.379  0.00  0.00    +0.000 OA
ATOM      9  N   UNL     1       2.778   5.337  19.764  0.00  0.00    +0.000 N 
ATOM     10  C   UNL     1       2.293   4.721  20.996  0.00  0.00    +0.000 C 
BRANCH   7  12
ATOM     11  C   UNL     1       2.156   8.379  17.998  0.00  0.00    +0.000 C 
ATOM     12  O   UNL     1       2.813   7.169  18.371  0.00  0.00    +0.000 OA
ENDBRANCH   7  12
ENDBRANCH   4   9
ENDBRANCH   1   4
BRANCH   3  13
ATOM     13  O   UNL     1       6.247   5.757  16.588  0.00  0.00    +0.000 OA
BRANCH  13  14
ATOM     14  C   UNL     1       7.133   4.802  16.186  0.00  0.00    +0.000 C 
ATOM     15  O   UNL     1       7.941   4.194  16.875  0.00  0.00    +0.000 OA
BRANCH  14  16
ATOM     16  C   UNL     1       6.989   4.568  14.715  0.00  0.00    +0.000 A 
ATOM     17  C   UNL     1       7.801   5.320  13.849  0.00  0.00    +0.000 A 
ATOM     18  C   UNL     1       7.709   5.158  12.466  0.00  0.00    +0.000 A 
ATOM     19  C   UNL     1       6.806   4.244  11.927  0.00  0.00    +0.000 A 
ATOM     20  C   UNL     1       5.992   3.491  12.774  0.00  0.00    +0.000 A 
ATOM     21  C   UNL     1       6.082   3.650  14.162  0.00  0.00    +0.000 A 
ENDBRANCH  14  16
ENDBRANCH  13  14
ENDBRANCH   3  13
TORSDOF 6
ENDMDL
MODEL 7
REMARK VINA RESULT:      -6.4      0.423      1.132
REMARK  Name = 
REMARK  11 active torsions:
REMARK  status: ('A' for Active; 'I' for Inactive)
REMARK    1  A    between atoms: C_1  and  O_2
REMARK    2  A    between atoms: O_2  and  C_3
REMARK    3  A    between atoms: N_5  and  C_6
REMARK    4  A    between atoms: N_5  and  C_7
REMARK    5  A    between atoms: C_7  and  C_8
REMARK    6  A    between atoms: C_7  and  C_9
REMARK    7  A    between atoms: C_7  and  C_10
REMARK    8  A    between atoms: C_10  and  C_11
REMARK    9  A    between atoms: N_12  and  O_13
REMARK   10  A    between atoms: O_13  and  C_14
REMARK   11  A    between atoms: C_14  and  C_16
REMARK                            x       y       z     vdW  Elec       q    Type
REMARK                         _______ _______ _______ _____ _____    ______ ____
ROOT
ATOM      1  C   UNL     1       3.321   3.223  17.872  0.00  0.00    +0.000 C 
ATOM      2  C   UNL     1       3.802   1.845  18.325  0.00  0.00    +0.000 C 
ATOM      3  N   UNL     1       4.045   3.936  17.055  0.00  0.00    +0.000 NA
ENDROOT
BRANCH   1   4
ATOM      4  C   UNL     1       1.955   3.757  18.451  0.00  0.00    +0.000 C 
ATOM      5  C   UNL     1       1.172   2.488  18.886  0.00  0.00    +0.000 C 
ATOM      6  C   UNL     1       1.135   4.430  17.326  0.00  0.00    +0.000 C 
BRANCH   4   9
ATOM      7  C   UNL     1       2.318   6.088  19.452  0.00  0.00    +0.000 C 
ATOM      8  O   UNL     1       2.311   6.888  20.381  0.00  0.00    +0.000 OA
ATOM      9  N   UNL     1       2.112   4.715  19.607  0.00  0.00    +0.000 N 
ATOM     10  C   UNL     1       1.826   4.268  20.966  0.00  0.00    +0.000 C 
BRANCH   7  12
ATOM     11  C   UNL     1       2.577   7.874  17.970  0.00  0.00    +0.000 C 
ATOM     12  O   UNL     1       2.494   6.463  18.158  0.00  0.00    +0.000 OA
ENDBRANCH   7  12
ENDBRANCH   4   9
ENDBRANCH   1   4
BRANCH   3  13
ATOM     13  O   UNL     1       5.206   3.222  16.666  0.00  0.00    +0.000 OA
BRANCH  13  14
ATOM     14  C   UNL     1       6.048   3.991  15.920  0.00  0.00    +0.000 C 
ATOM     15  O   UNL     1       6.278   3.901  14.721  0.00  0.00    +0.000 OA
BRANCH  14  16
ATOM     16  C   UNL     1       6.693   5.023  16.790  0.00  0.00    +0.000 A 
ATOM     17  C   UNL     1       7.373   4.580  17.937  0.00  0.00    +0.000 A 
ATOM     18  C   UNL     1       7.988   5.491  18.798  0.00  0.00    +0.000 A 
ATOM     19  C   UNL     1       7.932   6.856  18.526  0.00  0.00    +0.000 A 
ATOM     20  C   UNL     1       7.260   7.311  17.392  0.00  0.00    +0.000 A 
ATOM     21  C   UNL     1       6.643   6.400  16.526  0.00  0.00    +0.000 A 
ENDBRANCH  14  16
ENDBRANCH  13  14
ENDBRANCH   3  13
TORSDOF 6
ENDMDL
MODEL 8
REMARK VINA RESULT:      -6.3      2.342      3.376
REMARK  Name = 
REMARK  11 active torsions:
REMARK  status: ('A' for Active; 'I' for Inactive)
REMARK    1  A    between atoms: C_1  and  O_2
REMARK    2  A    between atoms: O_2  and  C_3
REMARK    3  A    between atoms: N_5  and  C_6
REMARK    4  A    between atoms: N_5  and  C_7
REMARK    5  A    between atoms: C_7  and  C_8
REMARK    6  A    between atoms: C_7  and  C_9
REMARK    7  A    between atoms: C_7  and  C_10
REMARK    8  A    between atoms: C_10  and  C_11
REMARK    9  A    between atoms: N_12  and  O_13
REMARK   10  A    between atoms: O_13  and  C_14
REMARK   11  A    between atoms: C_14  and  C_16
REMARK                            x       y       z     vdW  Elec       q    Type
REMARK                         _______ _______ _______ _____ _____    ______ ____
ROOT
ATOM      1  C   UNL     1       4.474   4.095  19.594  0.00  0.00    +0.000 C 
ATOM      2  C   UNL     1       3.598   5.340  19.736  0.00  0.00    +0.000 C 
ATOM      3  N   UNL     1       5.769   4.212  19.491  0.00  0.00    +0.000 NA
ENDROOT
BRANCH   1   4
ATOM      4  C   UNL     1       3.761   2.691  19.541  0.00  0.00    +0.000 C 
ATOM      5  C   UNL     1       4.608   1.767  20.458  0.00  0.00    +0.000 C 
ATOM      6  C   UNL     1       3.849   2.110  18.110  0.00  0.00    +0.000 C 
BRANCH   4   9
ATOM      7  C   UNL     1       1.239   2.838  19.113  0.00  0.00    +0.000 C 
ATOM      8  O   UNL     1       0.067   2.725  19.455  0.00  0.00    +0.000 OA
ATOM      9  N   UNL     1       2.319   2.718  19.988  0.00  0.00    +0.000 N 
ATOM     10  C   UNL     1       1.981   2.389  21.370  0.00  0.00    +0.000 C 
BRANCH   7  12
ATOM     11  C   UNL     1       1.281   4.359  17.340  0.00  0.00    +0.000 C 
ATOM     12  O   UNL     1       1.612   3.059  17.825  0.00  0.00    +0.000 OA
ENDBRANCH   7  12
ENDBRANCH   4   9
ENDBRANCH   1   4
BRANCH   3  13
ATOM     13  O   UNL     1       6.157   5.571  19.593  0.00  0.00    +0.000 OA
BRANCH  13  14
ATOM     14  C   UNL     1       7.124   5.892  18.688  0.00  0.00    +0.000 C 
ATOM     15  O   UNL     1       8.245   6.329  18.914  0.00  0.00    +0.000 OA
BRANCH  14  16
ATOM     16  C   UNL     1       6.625   5.628  17.302  0.00  0.00    +0.000 A 
ATOM     17  C   UNL     1       7.218   4.577  16.581  0.00  0.00    +0.000 A 
ATOM     18  C   UNL     1       6.807   4.285  15.279  0.00  0.00    +0.000 A 
ATOM     19  C   UNL     1       5.799   5.036  14.680  0.00  0.00    +0.000 A 
ATOM     20  C   UNL     1       5.201   6.082  15.383  0.00  0.00    +0.000 A 
ATOM     21  C   UNL     1       5.610   6.378  16.689  0.00  0.00    +0.000 A 
ENDBRANCH  14  16
ENDBRANCH  13  14
ENDBRANCH   3  13
TORSDOF 6
ENDMDL
MODEL 9
REMARK VINA RESULT:      -6.3      3.269      6.416
REMARK  Name = 
REMARK  11 active torsions:
REMARK  status: ('A' for Active; 'I' for Inactive)
REMARK    1  A    between atoms: C_1  and  O_2
REMARK    2  A    between atoms: O_2  and  C_3
REMARK    3  A    between atoms: N_5  and  C_6
REMARK    4  A    between atoms: N_5  and  C_7
REMARK    5  A    between atoms: C_7  and  C_8
REMARK    6  A    between atoms: C_7  and  C_9
REMARK    7  A    between atoms: C_7  and  C_10
REMARK    8  A    between atoms: C_10  and  C_11
REMARK    9  A    between atoms: N_12  and  O_13
REMARK   10  A    between atoms: O_13  and  C_14
REMARK   11  A    between atoms: C_14  and  C_16
REMARK                            x       y       z     vdW  Elec       q    Type
REMARK                         _______ _______ _______ _____ _____    ______ ____
ROOT
ATOM      1  C   UNL     1       2.313   5.800  19.299  0.00  0.00    +0.000 C 
ATOM      2  C   UNL     1       1.678   5.343  20.612  0.00  0.00    +0.000 C 
ATOM      3  N   UNL     1       2.481   7.071  19.059  0.00  0.00    +0.000 NA
ENDROOT
BRANCH   1   4
ATOM      4  C   UNL     1       2.715   4.697  18.249  0.00  0.00    +0.000 C 
ATOM      5  C   UNL     1       3.585   5.434  17.193  0.00  0.00    +0.000 C 
ATOM      6  C   UNL     1       1.454   4.183  17.515  0.00  0.00    +0.000 C 
BRANCH   4   9
ATOM      7  C   UNL     1       4.660   3.657  19.555  0.00  0.00    +0.000 C 
ATOM      8  O   UNL     1       5.200   2.734  20.154  0.00  0.00    +0.000 OA
ATOM      9  N   UNL     1       3.465   3.529  18.843  0.00  0.00    +0.000 N 
ATOM     10  C   UNL     1       2.840   2.211  18.890  0.00  0.00    +0.000 C 
BRANCH   7  12
ATOM     11  C   UNL     1       6.477   5.027  19.029  0.00  0.00    +0.000 C 
ATOM     12  O   UNL     1       5.154   4.923  19.551  0.00  0.00    +0.000 OA
ENDBRANCH   7  12
ENDBRANCH   4   9
ENDBRANCH   1   4
BRANCH   3  13
ATOM     13  O   UNL     1       2.063   7.848  20.168  0.00  0.00    +0.000 OA
BRANCH  13  14
ATOM     14  C   UNL     1       1.341   8.937  19.780  0.00  0.00    +0.000 C 
ATOM     15  O   UNL     1       1.276   9.432  18.662  0.00  0.00    +0.000 OA
BRANCH  14  16
ATOM     16  C   UNL     1       0.588   9.486  20.950  0.00  0.00    +0.000 A 
ATOM     17  C   UNL     1      -0.162  10.658  20.756  0.00  0.00    +0.000 A 
ATOM     18  C   UNL     1      -0.879  11.229  21.810  0.00  0.00    +0.000 A 
ATOM     19  C   UNL     1      -0.857  10.638  23.071  0.00  0.00    +0.000 A 
ATOM     20  C   UNL     1      -0.116   9.474  23.279  0.00  0.00    +0.000 A 
ATOM     21  C   UNL     1       0.604   8.899  22.225  0.00  0.00    +0.000 A 
ENDBRANCH  14  16
ENDBRANCH  13  14
ENDBRANCH   3  13
TORSDOF 6
ENDMDL
