MODEL 1
REMARK VINA RESULT:      -8.3      0.000      0.000
REMARK  Name = 
REMARK  5 active torsions:
REMARK  status: ('A' for Active; 'I' for Inactive)
REMARK    1  A    between atoms: C_1  and  O_2
REMARK    2  A    between atoms: O_2  and  C_3
REMARK    3  A    between atoms: C_8  and  N_9
REMARK    4  A    between atoms: N_9  and  C_10
REMARK    5  A    between atoms: C_10  and  C_11
REMARK                            x       y       z     vdW  Elec       q    Type
REMARK                         _______ _______ _______ _____ _____    ______ ____
ROOT
ATOM      1  C   UNL     1       4.334   4.705  18.883  0.00  0.00    +0.000 A 
ATOM      2  C   UNL     1       3.542   5.481  19.754  0.00  0.00    +0.000 A 
ATOM      3  C   UNL     1       2.975   6.677  19.282  0.00  0.00    +0.000 A 
ATOM      4  C   UNL     1       3.313   7.103  18.009  0.00  0.00    +0.000 A 
ATOM      5  C   UNL     1       4.162   6.407  17.155  0.00  0.00    +0.000 A 
ATOM      6  C   UNL     1       4.697   5.179  17.596  0.00  0.00    +0.000 A 
ATOM      7  O   UNL     1       2.683   8.275  17.715  0.00  0.00    +0.000 OA
ATOM      8  C   UNL     1       1.898   8.579  18.785  0.00  0.00    +0.000 A 
ATOM      9  C   UNL     1       1.052   9.683  18.869  0.00  0.00    +0.000 A 
ATOM     10  C   UNL     1       0.287   9.789  20.038  0.00  0.00    +0.000 A 
ATOM     11  C   UNL     1       0.383   8.837  21.057  0.00  0.00    +0.000 A 
ATOM     12  C   UNL     1       1.259   7.749  20.947  0.00  0.00    +0.000 A 
ATOM     13  C   UNL     1       2.035   7.622  19.779  0.00  0.00    +0.000 A 
ENDROOT
BRANCH   1  15
ATOM     14  C   UNL     1       3.790   2.610  19.882  0.00  0.00    +0.000 C 
ATOM     15  O   UNL     1       4.758   3.451  19.257  0.00  0.00    +0.000 OA
ENDBRANCH   1  15
BRANCH   6  16
ATOM     16  N   UNL     1       5.441   4.457  16.652  0.00  0.00    +0.000 N 
ATOM     17  H   UNL     1       4.888   4.086  15.886  0.00  0.00    +0.000 HD
BRANCH  16  18
ATOM     18  C   UNL     1       6.750   4.911  16.175  0.00  0.00    +0.000 C 
BRANCH  18  19
ATOM     19  C   UNL     1       6.894   4.704  14.677  0.00  0.00    +0.000 A 
ATOM     20  C   UNL     1       6.107   3.759  14.015  0.00  0.00    +0.000 A 
ATOM     21  C   UNL     1       6.245   3.606  12.639  0.00  0.00    +0.000 A 
ATOM     22  C   UNL     1       7.168   4.387  11.955  0.00  0.00    +0.000 A 
ATOM     23  C   UNL     1       7.925   5.289  12.685  0.00  0.00    +0.000 A 
ATOM     24  N   UNL     1       7.813   5.464  14.022  0.00  0.00    +0.000 NA
ENDBRANCH  18  19
ENDBRANCH  16  18
ENDBRANCH   6  16
TORSDOF 4
ENDMDL
MODEL 2
REMARK VINA RESULT:      -8.0      2.474      3.897
REMARK  Name = 
REMARK  5 active torsions:
REMARK  status: ('A' for Active; 'I' for Inactive)
REMARK    1  A    between atoms: C_1  and  O_2
REMARK    2  A    between atoms: O_2  and  C_3
REMARK    3  A    between atoms: C_8  and  N_9
REMARK    4  A    between atoms: N_9  and  C_10
REMARK    5  A    between atoms: C_10  and  C_11
REMARK                            x       y       z     vdW  Elec       q    Type
REMARK                         _______ _______ _______ _____ _____    ______ ____
ROOT
ATOM      1  C   UNL     1       6.313   5.929  16.614  0.00  0.00    +0.000 A 
ATOM      2  C   UNL     1       5.329   6.177  17.593  0.00  0.00    +0.000 A 
ATOM      3  C   UNL     1       4.284   5.255  17.763  0.00  0.00    +0.000 A 
ATOM      4  C   UNL     1       4.200   4.190  16.881  0.00  0.00    +0.000 A 
ATOM      5  C   UNL     1       5.104   3.963  15.848  0.00  0.00    +0.000 A 
ATOM      6  C   UNL     1       6.187   4.853  15.697  0.00  0.00    +0.000 A 
ATOM      7  O   UNL     1       3.132   3.401  17.185  0.00  0.00    +0.000 OA
ATOM      8  C   UNL     1       2.553   3.933  18.296  0.00  0.00    +0.000 A 
ATOM      9  C   UNL     1       1.451   3.397  18.960  0.00  0.00    +0.000 A 
ATOM     10  C   UNL     1       1.040   4.067  20.119  0.00  0.00    +0.000 A 
ATOM     11  C   UNL     1       1.704   5.212  20.570  0.00  0.00    +0.000 A 
ATOM     12  C   UNL     1       2.798   5.734  19.867  0.00  0.00    +0.000 A 
ATOM     13  C   UNL     1       3.229   5.074  18.700  0.00  0.00    +0.000 A 
ENDROOT
BRANCH   1  15
ATOM     14  C   UNL     1       7.720   7.537  17.673  0.00  0.00    +0.000 C 
ATOM     15  O   UNL     1       7.438   6.717  16.540  0.00  0.00    +0.000 OA
ENDBRANCH   1  15
BRANCH   6  16
ATOM     16  N   UNL     1       7.137   4.507  14.725  0.00  0.00    +0.000 N 
ATOM     17  H   UNL     1       7.487   3.559  14.809  0.00  0.00    +0.000 HD
BRANCH  16  18
ATOM     18  C   UNL     1       6.987   4.884  13.317  0.00  0.00    +0.000 C 
BRANCH  18  19
ATOM     19  C   UNL     1       6.607   3.687  12.463  0.00  0.00    +0.000 A 
ATOM     20  C   UNL     1       7.595   2.886  11.887  0.00  0.00    +0.000 A 
ATOM     21  C   UNL     1       7.217   1.784  11.128  0.00  0.00    +0.000 A 
ATOM     22  C   UNL     1       5.867   1.508  10.950  0.00  0.00    +0.000 A 
ATOM     23  C   UNL     1       4.946   2.360  11.537  0.00  0.00    +0.000 A 
ATOM     24  N   UNL     1       5.281   3.439  12.284  0.00  0.00    +0.000 NA
ENDBRANCH  18  19
ENDBRANCH  16  18
ENDBRANCH   6  16
TORSDOF 4
ENDMDL
MODEL 3
REMARK VINA RESULT:      -7.9      2.470      3.971
REMARK  Name = 
REMARK  5 active torsions:
REMARK  status: ('A' for Active; 'I' for Inactive)
REMARK    1  A    between atoms: C_1  and  O_2
REMARK    2  A    between atoms: O_2  and  C_3
REMARK    3  A    between atoms: C_8  and  N_9
REMARK    4  A    between atoms: N_9  and  C_10
REMARK    5  A    between atoms: C_10  and  C_11
REMARK                            x       y       z     vdW  Elec       q    Type
REMARK                         _______ _______ _______ _____ _____    ______ ____
ROOT
ATOM      1  C   UNL     1       5.727   6.015  16.697  0.00  0.00    +0.000 A 
ATOM      2  C   UNL     1       4.621   6.091  17.568  0.00  0.00    +0.000 A 
ATOM      3  C   UNL     1       3.916   4.917  17.884  0.00  0.00    +0.000 A 
ATOM      4  C   UNL     1       4.270   3.746  17.234  0.00  0.00    +0.000 A 
ATOM      5  C   UNL     1       5.299   3.654  16.302  0.00  0.00    +0.000 A 
ATOM      6  C   UNL     1       6.049   4.814  16.014  0.00  0.00    +0.000 A 
ATOM      7  O   UNL     1       3.487   2.713  17.651  0.00  0.00    +0.000 OA
ATOM      8  C   UNL     1       2.658   3.209  18.610  0.00  0.00    +0.000 A 
ATOM      9  C   UNL     1       1.725   2.463  19.327  0.00  0.00    +0.000 A 
ATOM     10  C   UNL     1       1.004   3.152  20.311  0.00  0.00    +0.000 A 
ATOM     11  C   UNL     1       1.214   4.515  20.543  0.00  0.00    +0.000 A 
ATOM     12  C   UNL     1       2.148   5.239  19.790  0.00  0.00    +0.000 A 
ATOM     13  C   UNL     1       2.886   4.564  18.798  0.00  0.00    +0.000 A 
ENDROOT
BRANCH   1  15
ATOM     14  C   UNL     1       7.514   7.365  17.516  0.00  0.00    +0.000 C 
ATOM     15  O   UNL     1       6.540   7.109  16.506  0.00  0.00    +0.000 OA
ENDBRANCH   1  15
BRANCH   6  16
ATOM     16  N   UNL     1       7.153   4.639  15.168  0.00  0.00    +0.000 N 
ATOM     17  H   UNL     1       7.603   3.734  15.258  0.00  0.00    +0.000 HD
BRANCH  16  18
ATOM     18  C   UNL     1       7.145   5.079  13.770  0.00  0.00    +0.000 C 
BRANCH  18  19
ATOM     19  C   UNL     1       6.505   4.037  12.868  0.00  0.00    +0.000 A 
ATOM     20  C   UNL     1       5.121   4.015  12.683  0.00  0.00    +0.000 A 
ATOM     21  C   UNL     1       4.566   3.064  11.835  0.00  0.00    +0.000 A 
ATOM     22  C   UNL     1       5.395   2.150  11.198  0.00  0.00    +0.000 A 
ATOM     23  C   UNL     1       6.756   2.223  11.447  0.00  0.00    +0.000 A 
ATOM     24  N   UNL     1       7.329   3.138  12.264  0.00  0.00    +0.000 NA
ENDBRANCH  18  19
ENDBRANCH  16  18
ENDBRANCH   6  16
TORSDOF 4
ENDMDL
MODEL 4
REMARK VINA RESULT:      -7.9      2.667      3.322
REMARK  Name = 
REMARK  5 active torsions:
REMARK  status: ('A' for Active; 'I' for Inactive)
REMARK    1  A    between atoms: C_1  and  O_2
REMARK    2  A    between atoms: O_2  and  C_3
REMARK    3  A    between atoms: C_8  and  N_9
REMARK    4  A    between atoms: N_9  and  C_10
REMARK    5  A    between atoms: C_10  and  C_11
REMARK                            x       y       z     vdW  Elec       q    Type
REMARK                         _______ _______ _______ _____ _____    ______ ____
ROOT
ATOM      1  C   UNL     1       2.382   5.120  19.807  0.00  0.00    +0.000 A 
ATOM      2  C   UNL     1       1.824   6.022  20.736  0.00  0.00    +0.000 A 
ATOM      3  C   UNL     1       1.623   7.359  20.357  0.00  0.00    +0.000 A 
ATOM      4  C   UNL     1       2.089   7.765  19.117  0.00  0.00    +0.000 A 
ATOM      5  C   UNL     1       2.723   6.922  18.210  0.00  0.00    +0.000 A 
ATOM      6  C   UNL     1       2.885   5.565  18.557  0.00  0.00    +0.000 A 
ATOM      7  O   UNL     1       1.817   9.085  18.914  0.00  0.00    +0.000 OA
ATOM      8  C   UNL     1       1.132   9.519  20.006  0.00  0.00    +0.000 A 
ATOM      9  C   UNL     1       0.627  10.806  20.176  0.00  0.00    +0.000 A 
ATOM     10  C   UNL     1      -0.098  11.038  21.352  0.00  0.00    +0.000 A 
ATOM     11  C   UNL     1      -0.290  10.026  22.297  0.00  0.00    +0.000 A 
ATOM     12  C   UNL     1       0.247   8.746  22.103  0.00  0.00    +0.000 A 
ATOM     13  C   UNL     1       0.978   8.492  20.926  0.00  0.00    +0.000 A 
ENDROOT
BRANCH   1  15
ATOM     14  C   UNL     1       1.187   3.134  20.368  0.00  0.00    +0.000 C 
ATOM     15  O   UNL     1       2.430   3.774  20.085  0.00  0.00    +0.000 OA
ENDBRANCH   1  15
BRANCH   6  16
ATOM     16  N   UNL     1       3.414   4.733  17.559  0.00  0.00    +0.000 N 
ATOM     17  H   UNL     1       3.345   5.118  16.622  0.00  0.00    +0.000 HD
BRANCH  16  18
ATOM     18  C   UNL     1       4.675   4.008  17.733  0.00  0.00    +0.000 C 
BRANCH  18  19
ATOM     19  C   UNL     1       5.829   4.962  17.990  0.00  0.00    +0.000 A 
ATOM     20  C   UNL     1       6.193   5.908  17.030  0.00  0.00    +0.000 A 
ATOM     21  C   UNL     1       7.240   6.782  17.302  0.00  0.00    +0.000 A 
ATOM     22  C   UNL     1       7.908   6.690  18.516  0.00  0.00    +0.000 A 
ATOM     23  C   UNL     1       7.501   5.712  19.410  0.00  0.00    +0.000 A 
ATOM     24  N   UNL     1       6.485   4.848  19.177  0.00  0.00    +0.000 NA
ENDBRANCH  18  19
ENDBRANCH  16  18
ENDBRANCH   6  16
TORSDOF 4
ENDMDL
MODEL 5
REMARK VINA RESULT:      -7.7      0.709      1.066
REMARK  Name = 
REMARK  5 active torsions:
REMARK  status: ('A' for Active; 'I' for Inactive)
REMARK    1  A    between atoms: C_1  and  O_2
REMARK    2  A    between atoms: O_2  and  C_3
REMARK    3  A    between atoms: C_8  and  N_9
REMARK    4  A    between atoms: N_9  and  C_10
REMARK    5  A    between atoms: C_10  and  C_11
REMARK                            x       y       z     vdW  Elec       q    Type
REMARK                         _______ _______ _______ _____ _____    ______ ____
ROOT
ATOM      1  C   UNL     1       4.584   4.508  18.986  0.00  0.00    +0.000 A 
ATOM      2  C   UNL     1       3.773   5.347  19.777  0.00  0.00    +0.000 A 
ATOM      3  C   UNL     1       3.213   6.499  19.201  0.00  0.00    +0.000 A 
ATOM      4  C   UNL     1       3.575   6.825  17.904  0.00  0.00    +0.000 A 
ATOM      5  C   UNL     1       4.442   6.067  17.125  0.00  0.00    +0.000 A 
ATOM      6  C   UNL     1       4.972   4.880  17.673  0.00  0.00    +0.000 A 
ATOM      7  O   UNL     1       2.949   7.968  17.506  0.00  0.00    +0.000 OA
ATOM      8  C   UNL     1       2.142   8.353  18.533  0.00  0.00    +0.000 A 
ATOM      9  C   UNL     1       1.292   9.456  18.513  0.00  0.00    +0.000 A 
ATOM     10  C   UNL     1       0.503   9.652  19.654  0.00  0.00    +0.000 A 
ATOM     11  C   UNL     1       0.581   8.783  20.747  0.00  0.00    +0.000 A 
ATOM     12  C   UNL     1       1.461   7.693  20.740  0.00  0.00    +0.000 A 
ATOM     13  C   UNL     1       2.261   7.478  19.602  0.00  0.00    +0.000 A 
ENDROOT
BRANCH   1  15
ATOM     14  C   UNL     1       4.017   2.260  19.545  0.00  0.00    +0.000 C 
ATOM     15  O   UNL     1       5.002   3.288  19.467  0.00  0.00    +0.000 OA
ENDBRANCH   1  15
BRANCH   6  16
ATOM     16  N   UNL     1       5.736   4.088  16.804  0.00  0.00    +0.000 N 
ATOM     17  H   UNL     1       5.186   3.559  16.135  0.00  0.00    +0.000 HD
BRANCH  16  18
ATOM     18  C   UNL     1       6.975   4.573  16.190  0.00  0.00    +0.000 C 
BRANCH  18  19
ATOM     19  C   UNL     1       6.920   4.463  14.675  0.00  0.00    +0.000 A 
ATOM     20  C   UNL     1       7.753   5.250  13.878  0.00  0.00    +0.000 A 
ATOM     21  C   UNL     1       7.695   5.112  12.495  0.00  0.00    +0.000 A 
ATOM     22  C   UNL     1       6.805   4.205  11.936  0.00  0.00    +0.000 A 
ATOM     23  C   UNL     1       5.997   3.474  12.793  0.00  0.00    +0.000 A 
ATOM     24  N   UNL     1       6.030   3.582  14.142  0.00  0.00    +0.000 NA
ENDBRANCH  18  19
ENDBRANCH  16  18
ENDBRANCH   6  16
TORSDOF 4
ENDMDL
MODEL 6
REMARK VINA RESULT:      -7.7      2.023      2.854
REMARK  Name = 
REMARK  5 active torsions:
REMARK  status: ('A' for Active; 'I' for Inactive)
REMARK    1  A    between atoms: C_1  and  O_2
REMARK    2  A    between atoms: O_2  and  C_3
REMARK    3  A    between atoms: C_8  and  N_9
REMARK    4  A    between atoms: N_9  and  C_10
REMARK    5  A    between atoms: C_10  and  C_11
REMARK                            x       y       z     vdW  Elec       q    Type
REMARK                         _______ _______ _______ _____ _____    ______ ____
ROOT
ATOM      1  C   UNL     1       3.674   4.561  19.274  0.00  0.00    +0.000 A 
ATOM      2  C   UNL     1       3.046   5.515  20.101  0.00  0.00    +0.000 A 
ATOM      3  C   UNL     1       2.584   6.714  19.535  0.00  0.00    +0.000 A 
ATOM      4  C   UNL     1       2.868   6.961  18.202  0.00  0.00    +0.000 A 
ATOM      5  C   UNL     1       3.562   6.080  17.379  0.00  0.00    +0.000 A 
ATOM      6  C   UNL     1       3.987   4.849  17.920  0.00  0.00    +0.000 A 
ATOM      7  O   UNL     1       2.355   8.163  17.819  0.00  0.00    +0.000 OA
ATOM      8  C   UNL     1       1.697   8.671  18.896  0.00  0.00    +0.000 A 
ATOM      9  C   UNL     1       0.991   9.873  18.910  0.00  0.00    +0.000 A 
ATOM     10  C   UNL     1       0.337  10.194  20.107  0.00  0.00    +0.000 A 
ATOM     11  C   UNL     1       0.403   9.349  21.219  0.00  0.00    +0.000 A 
ATOM     12  C   UNL     1       1.137   8.156  21.175  0.00  0.00    +0.000 A 
ATOM     13  C   UNL     1       1.801   7.814  19.981  0.00  0.00    +0.000 A 
ENDROOT
BRANCH   1  15
ATOM     14  C   UNL     1       2.909   2.575  20.350  0.00  0.00    +0.000 C 
ATOM     15  O   UNL     1       3.979   3.310  19.759  0.00  0.00    +0.000 OA
ENDBRANCH   1  15
BRANCH   6  16
ATOM     16  N   UNL     1       4.567   3.946  17.018  0.00  0.00    +0.000 N 
ATOM     17  H   UNL     1       3.919   3.574  16.331  0.00  0.00    +0.000 HD
BRANCH  16  18
ATOM     18  C   UNL     1       5.884   4.179  16.417  0.00  0.00    +0.000 C 
BRANCH  18  19
ATOM     19  C   UNL     1       6.702   5.157  17.243  0.00  0.00    +0.000 A 
ATOM     20  C   UNL     1       6.915   6.460  16.790  0.00  0.00    +0.000 A 
ATOM     21  C   UNL     1       7.651   7.340  17.577  0.00  0.00    +0.000 A 
ATOM     22  C   UNL     1       8.165   6.902  18.791  0.00  0.00    +0.000 A 
ATOM     23  C   UNL     1       7.927   5.589  19.163  0.00  0.00    +0.000 A 
ATOM     24  N   UNL     1       7.214   4.709  18.422  0.00  0.00    +0.000 NA
ENDBRANCH  18  19
ENDBRANCH  16  18
ENDBRANCH   6  16
TORSDOF 4
ENDMDL
MODEL 7
REMARK VINA RESULT:      -7.7      1.820      2.748
REMARK  Name = 
REMARK  5 active torsions:
REMARK  status: ('A' for Active; 'I' for Inactive)
REMARK    1  A    between atoms: C_1  and  O_2
REMARK    2  A    between atoms: O_2  and  C_3
REMARK    3  A    between atoms: C_8  and  N_9
REMARK    4  A    between atoms: N_9  and  C_10
REMARK    5  A    between atoms: C_10  and  C_11
REMARK                            x       y       z     vdW  Elec       q    Type
REMARK                         _______ _______ _______ _____ _____    ______ ____
ROOT
ATOM      1  C   UNL     1       3.656   4.632  19.124  0.00  0.00    +0.000 A 
ATOM      2  C   UNL     1       3.016   5.522  20.010  0.00  0.00    +0.000 A 
ATOM      3  C   UNL     1       2.554   6.757  19.525  0.00  0.00    +0.000 A 
ATOM      4  C   UNL     1       2.849   7.098  18.216  0.00  0.00    +0.000 A 
ATOM      5  C   UNL     1       3.556   6.281  17.339  0.00  0.00    +0.000 A 
ATOM      6  C   UNL     1       3.981   5.016  17.797  0.00  0.00    +0.000 A 
ATOM      7  O   UNL     1       2.335   8.323  17.913  0.00  0.00    +0.000 OA
ATOM      8  C   UNL     1       1.664   8.751  19.017  0.00  0.00    +0.000 A 
ATOM      9  C   UNL     1       0.952   9.946  19.109  0.00  0.00    +0.000 A 
ATOM     10  C   UNL     1       0.285  10.179  20.319  0.00  0.00    +0.000 A 
ATOM     11  C   UNL     1       0.344   9.258  21.369  0.00  0.00    +0.000 A 
ATOM     12  C   UNL     1       1.084   8.074  21.249  0.00  0.00    +0.000 A 
ATOM     13  C   UNL     1       1.761   7.820  20.040  0.00  0.00    +0.000 A 
ENDROOT
BRANCH   1  15
ATOM     14  C   UNL     1       2.871   2.535  19.945  0.00  0.00    +0.000 C 
ATOM     15  O   UNL     1       3.962   3.351  19.522  0.00  0.00    +0.000 OA
ENDBRANCH   1  15
BRANCH   6  16
ATOM     16  N   UNL     1       4.574   4.182  16.839  0.00  0.00    +0.000 N 
ATOM     17  H   UNL     1       3.924   3.813  16.153  0.00  0.00    +0.000 HD
BRANCH  16  18
ATOM     18  C   UNL     1       5.862   4.500  16.215  0.00  0.00    +0.000 C 
BRANCH  18  19
ATOM     19  C   UNL     1       6.673   5.450  17.079  0.00  0.00    +0.000 A 
ATOM     20  C   UNL     1       7.200   5.023  18.299  0.00  0.00    +0.000 A 
ATOM     21  C   UNL     1       7.957   5.909  19.059  0.00  0.00    +0.000 A 
ATOM     22  C   UNL     1       8.164   7.201  18.594  0.00  0.00    +0.000 A 
ATOM     23  C   UNL     1       7.593   7.556  17.383  0.00  0.00    +0.000 A 
ATOM     24  N   UNL     1       6.854   6.718  16.619  0.00  0.00    +0.000 NA
ENDBRANCH  18  19
ENDBRANCH  16  18
ENDBRANCH   6  16
TORSDOF 4
ENDMDL
MODEL 8
REMARK VINA RESULT:      -7.6      2.786      3.466
REMARK  Name = 
REMARK  5 active torsions:
REMARK  status: ('A' for Active; 'I' for Inactive)
REMARK    1  A    between atoms: C_1  and  O_2
REMARK    2  A    between atoms: O_2  and  C_3
REMARK    3  A    between atoms: C_8  and  N_9
REMARK    4  A    between atoms: N_9  and  C_10
REMARK    5  A    between atoms: C_10  and  C_11
REMARK                            x       y       z     vdW  Elec       q    Type
REMARK                         _______ _______ _______ _____ _____    ______ ____
ROOT
ATOM      1  C   UNL     1       2.236   5.508  19.924  0.00  0.00    +0.000 A 
ATOM      2  C   UNL     1       1.663   6.324  20.921  0.00  0.00    +0.000 A 
ATOM      3  C   UNL     1       1.405   7.675  20.635  0.00  0.00    +0.000 A 
ATOM      4  C   UNL     1       1.831   8.179  19.418  0.00  0.00    +0.000 A 
ATOM      5  C   UNL     1       2.479   7.423  18.446  0.00  0.00    +0.000 A 
ATOM      6  C   UNL     1       2.699   6.053  18.699  0.00  0.00    +0.000 A 
ATOM      7  O   UNL     1       1.508   9.498  19.308  0.00  0.00    +0.000 OA
ATOM      8  C   UNL     1       0.827   9.832  20.438  0.00  0.00    +0.000 A 
ATOM      9  C   UNL     1       0.278  11.085  20.702  0.00  0.00    +0.000 A 
ATOM     10  C   UNL     1      -0.432  11.211  21.903  0.00  0.00    +0.000 A 
ATOM     11  C   UNL     1      -0.568  10.131  22.781  0.00  0.00    +0.000 A 
ATOM     12  C   UNL     1       0.013   8.889  22.493  0.00  0.00    +0.000 A 
ATOM     13  C   UNL     1       0.729   8.742  21.289  0.00  0.00    +0.000 A 
ENDROOT
BRANCH   1  15
ATOM     14  C   UNL     1       2.140   3.668  21.439  0.00  0.00    +0.000 C 
ATOM     15  O   UNL     1       2.340   4.148  20.111  0.00  0.00    +0.000 OA
ENDBRANCH   1  15
BRANCH   6  16
ATOM     16  N   UNL     1       3.238   5.310  17.639  0.00  0.00    +0.000 N 
ATOM     17  H   UNL     1       3.215   5.790  16.745  0.00  0.00    +0.000 HD
BRANCH  16  18
ATOM     18  C   UNL     1       4.471   4.530  17.778  0.00  0.00    +0.000 C 
BRANCH  18  19
ATOM     19  C   UNL     1       5.680   5.434  17.949  0.00  0.00    +0.000 A 
ATOM     20  C   UNL     1       6.615   5.183  18.955  0.00  0.00    +0.000 A 
ATOM     21  C   UNL     1       7.723   6.015  19.074  0.00  0.00    +0.000 A 
ATOM     22  C   UNL     1       7.871   7.083  18.198  0.00  0.00    +0.000 A 
ATOM     23  C   UNL     1       6.891   7.279  17.239  0.00  0.00    +0.000 A 
ATOM     24  N   UNL     1       5.803   6.486  17.095  0.00  0.00    +0.000 NA
ENDBRANCH  18  19
ENDBRANCH  16  18
ENDBRANCH   6  16
TORSDOF 4
ENDMDL
MODEL 9
REMARK VINA RESULT:      -7.5      3.136      3.838
REMARK  Name = 
REMARK  5 active torsions:
REMARK  status: ('A' for Active; 'I' for Inactive)
REMARK    1  A    between atoms: C_1  and  O_2
REMARK    2  A    between atoms: O_2  and  C_3
REMARK    3  A    between atoms: C_8  and  N_9
REMARK    4  A    between atoms: N_9  and  C_10
REMARK    5  A    between atoms: C_10  and  C_11
REMARK                            x       y       z     vdW  Elec       q    Type
REMARK                         _______ _______ _______ _____ _____    ______ ____
ROOT
ATOM      1  C   UNL     1       6.513   4.958  17.596  0.00  0.00    +0.000 A 
ATOM      2  C   UNL     1       5.534   4.992  18.610  0.00  0.00    +0.000 A 
ATOM      3  C   UNL     1       4.293   4.376  18.384  0.00  0.00    +0.000 A 
ATOM      4  C   UNL     1       4.040   3.855  17.126  0.00  0.00    +0.000 A 
ATOM      5  C   UNL     1       4.951   3.882  16.075  0.00  0.00    +0.000 A 
ATOM      6  C   UNL     1       6.220   4.452  16.303  0.00  0.00    +0.000 A 
ATOM      7  O   UNL     1       2.795   3.302  17.079  0.00  0.00    +0.000 OA
ATOM      8  C   UNL     1       2.263   3.424  18.326  0.00  0.00    +0.000 A 
ATOM      9  C   UNL     1       1.014   2.944  18.714  0.00  0.00    +0.000 A 
ATOM     10  C   UNL     1       0.672   3.124  20.061  0.00  0.00    +0.000 A 
ATOM     11  C   UNL     1       1.542   3.759  20.951  0.00  0.00    +0.000 A 
ATOM     12  C   UNL     1       2.784   4.247  20.522  0.00  0.00    +0.000 A 
ATOM     13  C   UNL     1       3.148   4.074  19.173  0.00  0.00    +0.000 A 
ENDROOT
BRANCH   1  15
ATOM     14  C   UNL     1       8.003   6.081  19.082  0.00  0.00    +0.000 C 
ATOM     15  O   UNL     1       7.793   5.397  17.847  0.00  0.00    +0.000 OA
ENDBRANCH   1  15
BRANCH   6  16
ATOM     16  N   UNL     1       7.144   4.340  15.254  0.00  0.00    +0.000 N 
ATOM     17  H   UNL     1       7.538   3.410  15.148  0.00  0.00    +0.000 HD
BRANCH  16  18
ATOM     18  C   UNL     1       6.920   4.961  13.945  0.00  0.00    +0.000 C 
BRANCH  18  19
ATOM     19  C   UNL     1       6.367   3.959  12.946  0.00  0.00    +0.000 A 
ATOM     20  C   UNL     1       5.004   3.939  12.644  0.00  0.00    +0.000 A 
ATOM     21  C   UNL     1       4.530   3.025  11.709  0.00  0.00    +0.000 A 
ATOM     22  C   UNL     1       5.418   2.145  11.105  0.00  0.00    +0.000 A 
ATOM     23  C   UNL     1       6.752   2.213  11.471  0.00  0.00    +0.000 A 
ATOM     24  N   UNL     1       7.246   3.092  12.374  0.00  0.00    +0.000 NA
ENDBRANCH  18  19
ENDBRANCH  16  18
ENDBRANCH   6  16
TORSDOF 4
ENDMDL
