MODEL 1
REMARK VINA RESULT:      -8.4      0.000      0.000
REMARK  Name = 
REMARK  6 active torsions:
REMARK  status: ('A' for Active; 'I' for Inactive)
REMARK    1  A    between atoms: C_1  and  C_2
REMARK    2  A    between atoms: C_2  and  C_3
REMARK    3  A    between atoms: C_2  and  C_4
REMARK    4  A    between atoms: C_2  and  C_5
REMARK    5  A    between atoms: C_17  and  O_18
REMARK    6  A    between atoms: O_18  and  C_19
REMARK                            x       y       z     vdW  Elec       q    Type
REMARK                         _______ _______ _______ _____ _____    ______ ____
ROOT
ATOM      1  C   UNL     1       9.067  11.407  18.258  0.00  0.00    +0.000 A 
ATOM      2  C   UNL     1       8.098  10.665  17.588  0.00  0.00    +0.000 A 
ATOM      3  C   UNL     1       8.256   9.334  18.082  0.00  0.00    +0.000 A 
ATOM      4  N   UNL     1       7.433   8.245  17.760  0.00  0.00    +0.000 N 
ATOM      5  C   UNL     1       7.661   6.998  18.289  0.00  0.00    +0.000 C 
ATOM      6  O   UNL     1       8.570   6.627  19.045  0.00  0.00    +0.000 OA
ATOM      7  N   UNL     1       6.834   5.983  17.774  0.00  0.00    +0.000 N 
ATOM      8  C   UNL     1       7.374   4.866  17.179  0.00  0.00    +0.000 A 
ATOM      9  C   UNL     1       6.370   4.041  16.738  0.00  0.00    +0.000 A 
ATOM     10  C   UNL     1       5.154   4.616  17.157  0.00  0.00    +0.000 A 
ATOM     11  C   UNL     1       3.831   4.195  16.969  0.00  0.00    +0.000 A 
ATOM     12  C   UNL     1       2.792   4.862  17.611  0.00  0.00    +0.000 A 
ATOM     13  C   UNL     1       3.063   5.910  18.493  0.00  0.00    +0.000 A 
ATOM     14  C   UNL     1       4.366   6.456  18.580  0.00  0.00    +0.000 A 
ATOM     15  C   UNL     1       5.420   5.802  17.874  0.00  0.00    +0.000 A 
ATOM     16  N   UNL     1       9.295   9.281  18.919  0.00  0.00    +0.000 NA
ATOM     17  O   UNL     1       9.780  10.566  19.044  0.00  0.00    +0.000 OA
ATOM     18  H   UNL     1       6.684   8.400  17.110  0.00  0.00    +0.000 HD
ENDROOT
BRANCH   1  20
ATOM     19  C   UNL     1       8.175  13.707  17.918  0.00  0.00    +0.000 C 
ATOM     20  C   UNL     1       9.413  12.872  18.291  0.00  0.00    +0.000 C 
ATOM     21  C   UNL     1      10.544  13.179  17.291  0.00  0.00    +0.000 C 
ATOM     22  C   UNL     1       9.893  13.291  19.694  0.00  0.00    +0.000 C 
ENDBRANCH   1  20
BRANCH  13  23
ATOM     23  O   UNL     1       2.037   6.438  19.286  0.00  0.00    +0.000 OA
BRANCH  23  24
ATOM     24  C   UNL     1       1.812   7.817  19.176  0.00  0.00    +0.000 A 
ATOM     25  N   UNL     1       1.903   8.381  17.943  0.00  0.00    +0.000 NA
ATOM     26  C   UNL     1       1.638   9.695  17.827  0.00  0.00    +0.000 A 
ATOM     27  N   UNL     1       1.226  10.510  18.799  0.00  0.00    +0.000 NA
ATOM     28  C   UNL     1       1.088   9.887  19.973  0.00  0.00    +0.000 A 
ATOM     29  C   UNL     1       1.408   8.558  20.252  0.00  0.00    +0.000 A 
ATOM     30  C   UNL     1       0.962   8.216  21.626  0.00  0.00    +0.000 C 
ATOM     31  N   UNL     1      -0.278   9.042  21.595  0.00  0.00    +0.000 NA
ATOM     32  C   UNL     1       0.130  10.338  21.048  0.00  0.00    +0.000 C 
ATOM     33  H   UNL     1      -0.833   9.065  22.438  0.00  0.00    +0.000 HD
ENDBRANCH  23  24
ENDBRANCH  13  23
TORSDOF 3
ENDMDL
MODEL 2
REMARK VINA RESULT:      -8.2      3.838      7.684
REMARK  Name = 
REMARK  6 active torsions:
REMARK  status: ('A' for Active; 'I' for Inactive)
REMARK    1  A    between atoms: C_1  and  C_2
REMARK    2  A    between atoms: C_2  and  C_3
REMARK    3  A    between atoms: C_2  and  C_4
REMARK    4  A    between atoms: C_2  and  C_5
REMARK    5  A    between atoms: C_17  and  O_18
REMARK    6  A    between atoms: O_18  and  C_19
REMARK                            x       y       z     vdW  Elec       q    Type
REMARK                         _______ _______ _______ _____ _____    ______ ____
ROOT
ATOM      1  C   UNL     1       1.471  15.549  18.807  0.00  0.00    +0.000 A 
ATOM      2  C   UNL     1       2.032  14.412  19.382  0.00  0.00    +0.000 A 
ATOM      3  C   UNL     1       0.973  13.454  19.399  0.00  0.00    +0.000 A 
ATOM      4  N   UNL     1       1.091  12.118  19.808  0.00  0.00    +0.000 N 
ATOM      5  C   UNL     1       0.013  11.267  19.785  0.00  0.00    +0.000 C 
ATOM      6  O   UNL     1      -1.161  11.506  19.469  0.00  0.00    +0.000 OA
ATOM      7  N   UNL     1       0.256   9.999  20.346  0.00  0.00    +0.000 N 
ATOM      8  C   UNL     1      -0.510   9.530  21.389  0.00  0.00    +0.000 A 
ATOM      9  C   UNL     1      -0.065   8.290  21.772  0.00  0.00    +0.000 A 
ATOM     10  C   UNL     1       0.958   7.926  20.874  0.00  0.00    +0.000 A 
ATOM     11  C   UNL     1       1.753   6.774  20.812  0.00  0.00    +0.000 A 
ATOM     12  C   UNL     1       2.607   6.577  19.730  0.00  0.00    +0.000 A 
ATOM     13  C   UNL     1       2.631   7.489  18.673  0.00  0.00    +0.000 A 
ATOM     14  C   UNL     1       1.962   8.731  18.782  0.00  0.00    +0.000 A 
ATOM     15  C   UNL     1       1.131   8.953  19.921  0.00  0.00    +0.000 A 
ATOM     16  N   UNL     1      -0.151  14.014  18.944  0.00  0.00    +0.000 NA
ATOM     17  O   UNL     1       0.164  15.300  18.557  0.00  0.00    +0.000 OA
ATOM     18  H   UNL     1       1.985  11.808  20.142  0.00  0.00    +0.000 HD
ENDROOT
BRANCH   1  20
ATOM     19  C   UNL     1       2.560  17.623  19.653  0.00  0.00    +0.000 C 
ATOM     20  C   UNL     1       2.026  16.891  18.409  0.00  0.00    +0.000 C 
ATOM     21  C   UNL     1       0.929  17.752  17.754  0.00  0.00    +0.000 C 
ATOM     22  C   UNL     1       3.173  16.731  17.394  0.00  0.00    +0.000 C 
ENDBRANCH   1  20
BRANCH  13  23
ATOM     23  O   UNL     1       3.336   7.182  17.503  0.00  0.00    +0.000 OA
BRANCH  23  24
ATOM     24  C   UNL     1       3.952   5.924  17.459  0.00  0.00    +0.000 A 
ATOM     25  N   UNL     1       3.158   4.831  17.317  0.00  0.00    +0.000 NA
ATOM     26  C   UNL     1       3.751   3.626  17.222  0.00  0.00    +0.000 A 
ATOM     27  N   UNL     1       5.062   3.388  17.189  0.00  0.00    +0.000 NA
ATOM     28  C   UNL     1       5.794   4.504  17.262  0.00  0.00    +0.000 A 
ATOM     29  C   UNL     1       5.314   5.802  17.449  0.00  0.00    +0.000 A 
ATOM     30  C   UNL     1       6.432   6.769  17.317  0.00  0.00    +0.000 C 
ATOM     31  N   UNL     1       7.150   6.030  16.241  0.00  0.00    +0.000 NA
ATOM     32  C   UNL     1       7.180   4.632  16.680  0.00  0.00    +0.000 C 
ATOM     33  H   UNL     1       8.027   6.419  15.925  0.00  0.00    +0.000 HD
ENDBRANCH  23  24
ENDBRANCH  13  23
TORSDOF 3
ENDMDL
MODEL 3
REMARK VINA RESULT:      -8.1      3.741      7.547
REMARK  Name = 
REMARK  6 active torsions:
REMARK  status: ('A' for Active; 'I' for Inactive)
REMARK    1  A    between atoms: C_1  and  C_2
REMARK    2  A    between atoms: C_2  and  C_3
REMARK    3  A    between atoms: C_2  and  C_4
REMARK    4  A    between atoms: C_2  and  C_5
REMARK    5  A    between atoms: C_17  and  O_18
REMARK    6  A    between atoms: O_18  and  C_19
REMARK                            x       y       z     vdW  Elec       q    Type
REMARK                         _______ _______ _______ _____ _____    ______ ____
ROOT
ATOM      1  C   UNL     1       1.422  15.336  18.794  0.00  0.00    +0.000 A 
ATOM      2  C   UNL     1       2.110  14.207  19.227  0.00  0.00    +0.000 A 
ATOM      3  C   UNL     1       1.118  13.182  19.297  0.00  0.00    +0.000 A 
ATOM      4  N   UNL     1       1.360  11.834  19.602  0.00  0.00    +0.000 N 
ATOM      5  C   UNL     1       0.338  10.918  19.642  0.00  0.00    +0.000 C 
ATOM      6  O   UNL     1      -0.876  11.097  19.473  0.00  0.00    +0.000 OA
ATOM      7  N   UNL     1       0.717   9.637  20.087  0.00  0.00    +0.000 N 
ATOM      8  C   UNL     1       0.104   9.058  21.174  0.00  0.00    +0.000 A 
ATOM      9  C   UNL     1       0.663   7.829  21.423  0.00  0.00    +0.000 A 
ATOM     10  C   UNL     1       1.596   7.587  20.395  0.00  0.00    +0.000 A 
ATOM     11  C   UNL     1       2.444   6.496  20.170  0.00  0.00    +0.000 A 
ATOM     12  C   UNL     1       3.179   6.419  18.990  0.00  0.00    +0.000 A 
ATOM     13  C   UNL     1       3.030   7.392  18.000  0.00  0.00    +0.000 A 
ATOM     14  C   UNL     1       2.305   8.579  18.263  0.00  0.00    +0.000 A 
ATOM     15  C   UNL     1       1.598   8.678  19.500  0.00  0.00    +0.000 A 
ATOM     16  N   UNL     1      -0.082  13.693  19.007  0.00  0.00    +0.000 NA
ATOM     17  O   UNL     1       0.112  15.017  18.674  0.00  0.00    +0.000 OA
ATOM     18  H   UNL     1       2.303  11.565  19.814  0.00  0.00    +0.000 HD
ENDROOT
BRANCH   1  20
ATOM     19  C   UNL     1       2.365  17.465  19.679  0.00  0.00    +0.000 C 
ATOM     20  C   UNL     1       1.848  16.733  18.428  0.00  0.00    +0.000 C 
ATOM     21  C   UNL     1       0.659  17.521  17.843  0.00  0.00    +0.000 C 
ATOM     22  C   UNL     1       2.966  16.705  17.368  0.00  0.00    +0.000 C 
ENDBRANCH   1  20
BRANCH  13  23
ATOM     23  O   UNL     1       3.613   7.203  16.741  0.00  0.00    +0.000 OA
BRANCH  23  24
ATOM     24  C   UNL     1       4.991   6.949  16.725  0.00  0.00    +0.000 A 
ATOM     25  N   UNL     1       5.807   7.827  17.365  0.00  0.00    +0.000 NA
ATOM     26  C   UNL     1       7.126   7.559  17.395  0.00  0.00    +0.000 A 
ATOM     27  N   UNL     1       7.725   6.472  16.910  0.00  0.00    +0.000 NA
ATOM     28  C   UNL     1       6.867   5.611  16.354  0.00  0.00    +0.000 A 
ATOM     29  C   UNL     1       5.495   5.801  16.179  0.00  0.00    +0.000 A 
ATOM     30  C   UNL     1       4.880   4.551  15.667  0.00  0.00    +0.000 C 
ATOM     31  N   UNL     1       5.750   3.622  16.444  0.00  0.00    +0.000 NA
ATOM     32  C   UNL     1       7.114   4.125  16.267  0.00  0.00    +0.000 C 
ATOM     33  H   UNL     1       5.613   2.634  16.292  0.00  0.00    +0.000 HD
ENDBRANCH  23  24
ENDBRANCH  13  23
TORSDOF 3
ENDMDL
MODEL 4
REMARK VINA RESULT:      -8.0      4.718      8.648
REMARK  Name = 
REMARK  6 active torsions:
REMARK  status: ('A' for Active; 'I' for Inactive)
REMARK    1  A    between atoms: C_1  and  C_2
REMARK    2  A    between atoms: C_2  and  C_3
REMARK    3  A    between atoms: C_2  and  C_4
REMARK    4  A    between atoms: C_2  and  C_5
REMARK    5  A    between atoms: C_17  and  O_18
REMARK    6  A    between atoms: O_18  and  C_19
REMARK                            x       y       z     vdW  Elec       q    Type
REMARK                         _______ _______ _______ _____ _____    ______ ____
ROOT
ATOM      1  C   UNL     1       2.258   5.049  19.723  0.00  0.00    +0.000 A 
ATOM      2  C   UNL     1       2.101   6.294  20.325  0.00  0.00    +0.000 A 
ATOM      3  C   UNL     1       2.061   7.220  19.238  0.00  0.00    +0.000 A 
ATOM      4  N   UNL     1       1.823   8.598  19.352  0.00  0.00    +0.000 N 
ATOM      5  C   UNL     1       1.800   9.410  18.244  0.00  0.00    +0.000 C 
ATOM      6  O   UNL     1       2.005   9.117  17.058  0.00  0.00    +0.000 OA
ATOM      7  N   UNL     1       1.678  10.784  18.529  0.00  0.00    +0.000 N 
ATOM      8  C   UNL     1       2.621  11.682  18.084  0.00  0.00    +0.000 A 
ATOM      9  C   UNL     1       2.295  12.947  18.508  0.00  0.00    +0.000 A 
ATOM     10  C   UNL     1       1.050  12.851  19.162  0.00  0.00    +0.000 A 
ATOM     11  C   UNL     1       0.269  13.832  19.786  0.00  0.00    +0.000 A 
ATOM     12  C   UNL     1      -1.009  13.516  20.239  0.00  0.00    +0.000 A 
ATOM     13  C   UNL     1      -1.544  12.245  20.020  0.00  0.00    +0.000 A 
ATOM     14  C   UNL     1      -0.725  11.196  19.537  0.00  0.00    +0.000 A 
ATOM     15  C   UNL     1       0.605  11.512  19.126  0.00  0.00    +0.000 A 
ATOM     16  N   UNL     1       2.264   6.575  18.086  0.00  0.00    +0.000 NA
ATOM     17  O   UNL     1       2.362   5.232  18.386  0.00  0.00    +0.000 OA
ATOM     18  H   UNL     1       1.693   8.976  20.272  0.00  0.00    +0.000 HD
ENDROOT
BRANCH   1  20
ATOM     19  C   UNL     1       1.096   2.846  19.696  0.00  0.00    +0.000 C 
ATOM     20  C   UNL     1       2.293   3.639  20.251  0.00  0.00    +0.000 C 
ATOM     21  C   UNL     1       2.223   3.640  21.790  0.00  0.00    +0.000 C 
ATOM     22  C   UNL     1       3.596   2.930  19.835  0.00  0.00    +0.000 C 
ENDBRANCH   1  20
BRANCH  13  23
ATOM     23  O   UNL     1      -2.894  11.999  20.294  0.00  0.00    +0.000 OA
BRANCH  23  24
ATOM     24  C   UNL     1      -3.763  12.002  19.194  0.00  0.00    +0.000 A 
ATOM     25  N   UNL     1      -3.271  11.602  17.992  0.00  0.00    +0.000 NA
ATOM     26  C   UNL     1      -4.117  11.555  16.946  0.00  0.00    +0.000 A 
ATOM     27  N   UNL     1      -5.426  11.804  16.973  0.00  0.00    +0.000 NA
ATOM     28  C   UNL     1      -5.868  12.124  18.193  0.00  0.00    +0.000 A 
ATOM     29  C   UNL     1      -5.091  12.292  19.341  0.00  0.00    +0.000 A 
ATOM     30  C   UNL     1      -5.976  12.491  20.516  0.00  0.00    +0.000 C 
ATOM     31  N   UNL     1      -7.044  11.553  20.064  0.00  0.00    +0.000 NA
ATOM     32  C   UNL     1      -7.283  11.883  18.657  0.00  0.00    +0.000 C 
ATOM     33  H   UNL     1      -7.862  11.475  20.652  0.00  0.00    +0.000 HD
ENDBRANCH  23  24
ENDBRANCH  13  23
TORSDOF 3
ENDMDL
MODEL 5
REMARK VINA RESULT:      -8.0      4.877      8.686
REMARK  Name = 
REMARK  6 active torsions:
REMARK  status: ('A' for Active; 'I' for Inactive)
REMARK    1  A    between atoms: C_1  and  C_2
REMARK    2  A    between atoms: C_2  and  C_3
REMARK    3  A    between atoms: C_2  and  C_4
REMARK    4  A    between atoms: C_2  and  C_5
REMARK    5  A    between atoms: C_17  and  O_18
REMARK    6  A    between atoms: O_18  and  C_19
REMARK                            x       y       z     vdW  Elec       q    Type
REMARK                         _______ _______ _______ _____ _____    ______ ____
ROOT
ATOM      1  C   UNL     1       2.411   4.625  19.645  0.00  0.00    +0.000 A 
ATOM      2  C   UNL     1       2.566   5.847  20.294  0.00  0.00    +0.000 A 
ATOM      3  C   UNL     1       2.093   6.817  19.358  0.00  0.00    +0.000 A 
ATOM      4  N   UNL     1       1.970   8.192  19.604  0.00  0.00    +0.000 N 
ATOM      5  C   UNL     1       1.500   9.049  18.639  0.00  0.00    +0.000 C 
ATOM      6  O   UNL     1       1.167   8.801  17.471  0.00  0.00    +0.000 OA
ATOM      7  N   UNL     1       1.555  10.412  18.989  0.00  0.00    +0.000 N 
ATOM      8  C   UNL     1       2.243  11.313  18.210  0.00  0.00    +0.000 A 
ATOM      9  C   UNL     1       2.170  12.564  18.771  0.00  0.00    +0.000 A 
ATOM     10  C   UNL     1       1.324  12.461  19.892  0.00  0.00    +0.000 A 
ATOM     11  C   UNL     1       0.916  13.427  20.821  0.00  0.00    +0.000 A 
ATOM     12  C   UNL     1      -0.054  13.113  21.769  0.00  0.00    +0.000 A 
ATOM     13  C   UNL     1      -0.670  11.861  21.763  0.00  0.00    +0.000 A 
ATOM     14  C   UNL     1      -0.170  10.820  20.944  0.00  0.00    +0.000 A 
ATOM     15  C   UNL     1       0.864  11.132  20.011  0.00  0.00    +0.000 A 
ATOM     16  N   UNL     1       1.763   6.216  18.211  0.00  0.00    +0.000 NA
ATOM     17  O   UNL     1       1.938   4.861  18.399  0.00  0.00    +0.000 OA
ATOM     18  H   UNL     1       2.259   8.535  20.501  0.00  0.00    +0.000 HD
ENDROOT
BRANCH   1  20
ATOM     19  C   UNL     1       1.740   2.266  19.213  0.00  0.00    +0.000 C 
ATOM     20  C   UNL     1       2.624   3.195  20.064  0.00  0.00    +0.000 C 
ATOM     21  C   UNL     1       2.260   3.010  21.550  0.00  0.00    +0.000 C 
ATOM     22  C   UNL     1       4.098   2.784  19.882  0.00  0.00    +0.000 C 
ENDBRANCH   1  20
BRANCH  13  23
ATOM     23  O   UNL     1      -1.780  11.624  22.583  0.00  0.00    +0.000 OA
BRANCH  23  24
ATOM     24  C   UNL     1      -2.953  12.319  22.258  0.00  0.00    +0.000 A 
ATOM     25  N   UNL     1      -3.258  12.474  20.943  0.00  0.00    +0.000 NA
ATOM     26  C   UNL     1      -4.410  13.095  20.630  0.00  0.00    +0.000 A 
ATOM     27  N   UNL     1      -5.335  13.530  21.486  0.00  0.00    +0.000 NA
ATOM     28  C   UNL     1      -5.015  13.289  22.761  0.00  0.00    +0.000 A 
ATOM     29  C   UNL     1      -3.822  12.735  23.228  0.00  0.00    +0.000 A 
ATOM     30  C   UNL     1      -3.925  12.491  24.689  0.00  0.00    +0.000 C 
ATOM     31  N   UNL     1      -5.364  12.102  24.679  0.00  0.00    +0.000 NA
ATOM     32  C   UNL     1      -6.036  13.112  23.858  0.00  0.00    +0.000 C 
ATOM     33  H   UNL     1      -5.788  11.896  25.572  0.00  0.00    +0.000 HD
ENDBRANCH  23  24
ENDBRANCH  13  23
TORSDOF 3
ENDMDL
MODEL 6
REMARK VINA RESULT:      -8.0      4.693      8.653
REMARK  Name = 
REMARK  6 active torsions:
REMARK  status: ('A' for Active; 'I' for Inactive)
REMARK    1  A    between atoms: C_1  and  C_2
REMARK    2  A    between atoms: C_2  and  C_3
REMARK    3  A    between atoms: C_2  and  C_4
REMARK    4  A    between atoms: C_2  and  C_5
REMARK    5  A    between atoms: C_17  and  O_18
REMARK    6  A    between atoms: O_18  and  C_19
REMARK                            x       y       z     vdW  Elec       q    Type
REMARK                         _______ _______ _______ _____ _____    ______ ____
ROOT
ATOM      1  C   UNL     1       2.630   4.689  19.575  0.00  0.00    +0.000 A 
ATOM      2  C   UNL     1       2.117   5.856  20.136  0.00  0.00    +0.000 A 
ATOM      3  C   UNL     1       2.226   6.834  19.100  0.00  0.00    +0.000 A 
ATOM      4  N   UNL     1       1.749   8.151  19.171  0.00  0.00    +0.000 N 
ATOM      5  C   UNL     1       1.897   9.021  18.118  0.00  0.00    +0.000 C 
ATOM      6  O   UNL     1       2.460   8.838  17.030  0.00  0.00    +0.000 OA
ATOM      7  N   UNL     1       1.485  10.339  18.386  0.00  0.00    +0.000 N 
ATOM      8  C   UNL     1       2.356  11.395  18.240  0.00  0.00    +0.000 A 
ATOM      9  C   UNL     1       1.729  12.567  18.583  0.00  0.00    +0.000 A 
ATOM     10  C   UNL     1       0.386  12.246  18.863  0.00  0.00    +0.000 A 
ATOM     11  C   UNL     1      -0.682  13.058  19.266  0.00  0.00    +0.000 A 
ATOM     12  C   UNL     1      -1.967  12.528  19.339  0.00  0.00    +0.000 A 
ATOM     13  C   UNL     1      -2.212  11.209  18.954  0.00  0.00    +0.000 A 
ATOM     14  C   UNL     1      -1.136  10.326  18.696  0.00  0.00    +0.000 A 
ATOM     15  C   UNL     1       0.187  10.861  18.677  0.00  0.00    +0.000 A 
ATOM     16  N   UNL     1       2.835   6.301  18.037  0.00  0.00    +0.000 NA
ATOM     17  O   UNL     1       3.062   4.971  18.324  0.00  0.00    +0.000 OA
ATOM     18  H   UNL     1       1.316   8.446  20.027  0.00  0.00    +0.000 HD
ENDROOT
BRANCH   1  20
ATOM     19  C   UNL     1       4.186   2.766  19.863  0.00  0.00    +0.000 C 
ATOM     20  C   UNL     1       2.745   3.269  20.062  0.00  0.00    +0.000 C 
ATOM     21  C   UNL     1       1.783   2.354  19.281  0.00  0.00    +0.000 C 
ATOM     22  C   UNL     1       2.385   3.171  21.557  0.00  0.00    +0.000 C 
ENDBRANCH   1  20
BRANCH  13  23
ATOM     23  O   UNL     1      -3.528  10.748  18.837  0.00  0.00    +0.000 OA
BRANCH  23  24
ATOM     24  C   UNL     1      -4.486  11.693  18.445  0.00  0.00    +0.000 A 
ATOM     25  N   UNL     1      -4.782  11.791  17.122  0.00  0.00    +0.000 NA
ATOM     26  C   UNL     1      -5.738  12.661  16.750  0.00  0.00    +0.000 A 
ATOM     27  N   UNL     1      -6.487  13.411  17.559  0.00  0.00    +0.000 NA
ATOM     28  C   UNL     1      -6.202  13.223  18.851  0.00  0.00    +0.000 A 
ATOM     29  C   UNL     1      -5.184  12.421  19.369  0.00  0.00    +0.000 A 
ATOM     30  C   UNL     1      -5.300  12.362  20.848  0.00  0.00    +0.000 C 
ATOM     31  N   UNL     1      -6.790  12.371  20.885  0.00  0.00    +0.000 NA
ATOM     32  C   UNL     1      -7.198  13.435  19.964  0.00  0.00    +0.000 C 
ATOM     33  H   UNL     1      -7.225  12.376  21.797  0.00  0.00    +0.000 HD
ENDBRANCH  23  24
ENDBRANCH  13  23
TORSDOF 3
ENDMDL
MODEL 7
REMARK VINA RESULT:      -7.9      4.708      8.700
REMARK  Name = 
REMARK  6 active torsions:
REMARK  status: ('A' for Active; 'I' for Inactive)
REMARK    1  A    between atoms: C_1  and  C_2
REMARK    2  A    between atoms: C_2  and  C_3
REMARK    3  A    between atoms: C_2  and  C_4
REMARK    4  A    between atoms: C_2  and  C_5
REMARK    5  A    between atoms: C_17  and  O_18
REMARK    6  A    between atoms: O_18  and  C_19
REMARK                            x       y       z     vdW  Elec       q    Type
REMARK                         _______ _______ _______ _____ _____    ______ ____
ROOT
ATOM      1  C   UNL     1       2.231   5.139  19.685  0.00  0.00    +0.000 A 
ATOM      2  C   UNL     1       2.022   6.378  20.284  0.00  0.00    +0.000 A 
ATOM      3  C   UNL     1       2.030   7.310  19.201  0.00  0.00    +0.000 A 
ATOM      4  N   UNL     1       1.765   8.683  19.309  0.00  0.00    +0.000 N 
ATOM      5  C   UNL     1       1.792   9.503  18.207  0.00  0.00    +0.000 C 
ATOM      6  O   UNL     1       2.068   9.220  17.032  0.00  0.00    +0.000 OA
ATOM      7  N   UNL     1       1.635  10.872  18.492  0.00  0.00    +0.000 N 
ATOM      8  C   UNL     1       2.587  11.787  18.106  0.00  0.00    +0.000 A 
ATOM      9  C   UNL     1       2.219  13.044  18.518  0.00  0.00    +0.000 A 
ATOM     10  C   UNL     1       0.941  12.926  19.100  0.00  0.00    +0.000 A 
ATOM     11  C   UNL     1       0.111  13.891  19.684  0.00  0.00    +0.000 A 
ATOM     12  C   UNL     1      -1.186  13.554  20.063  0.00  0.00    +0.000 A 
ATOM     13  C   UNL     1      -1.688  12.277  19.807  0.00  0.00    +0.000 A 
ATOM     14  C   UNL     1      -0.828  11.243  19.365  0.00  0.00    +0.000 A 
ATOM     15  C   UNL     1       0.519  11.581  19.031  0.00  0.00    +0.000 A 
ATOM     16  N   UNL     1       2.307   6.675  18.059  0.00  0.00    +0.000 NA
ATOM     17  O   UNL     1       2.408   5.332  18.356  0.00  0.00    +0.000 OA
ATOM     18  H   UNL     1       1.578   9.054  20.223  0.00  0.00    +0.000 HD
ENDROOT
BRANCH   1  20
ATOM     19  C   UNL     1       2.247   3.738  21.744  0.00  0.00    +0.000 C 
ATOM     20  C   UNL     1       2.257   3.726  20.205  0.00  0.00    +0.000 C 
ATOM     21  C   UNL     1       3.525   2.998  19.718  0.00  0.00    +0.000 C 
ATOM     22  C   UNL     1       1.034   2.935  19.704  0.00  0.00    +0.000 C 
ENDBRANCH   1  20
BRANCH  13  23
ATOM     23  O   UNL     1      -3.048  12.009  20.002  0.00  0.00    +0.000 OA
BRANCH  23  24
ATOM     24  C   UNL     1      -3.749  12.910  20.816  0.00  0.00    +0.000 A 
ATOM     25  N   UNL     1      -4.719  13.667  20.240  0.00  0.00    +0.000 NA
ATOM     26  C   UNL     1      -5.428  14.495  21.030  0.00  0.00    +0.000 A 
ATOM     27  N   UNL     1      -5.324  14.612  22.353  0.00  0.00    +0.000 NA
ATOM     28  C   UNL     1      -4.404  13.794  22.874  0.00  0.00    +0.000 A 
ATOM     29  C   UNL     1      -3.543  12.952  22.168  0.00  0.00    +0.000 A 
ATOM     30  C   UNL     1      -2.787  12.101  23.119  0.00  0.00    +0.000 C 
ATOM     31  N   UNL     1      -3.902  11.930  24.094  0.00  0.00    +0.000 NA
ATOM     32  C   UNL     1      -4.458  13.272  24.289  0.00  0.00    +0.000 C 
ATOM     33  H   UNL     1      -3.701  11.402  24.930  0.00  0.00    +0.000 HD
ENDBRANCH  23  24
ENDBRANCH  13  23
TORSDOF 3
ENDMDL
MODEL 8
REMARK VINA RESULT:      -7.9      4.084      7.750
REMARK  Name = 
REMARK  6 active torsions:
REMARK  status: ('A' for Active; 'I' for Inactive)
REMARK    1  A    between atoms: C_1  and  C_2
REMARK    2  A    between atoms: C_2  and  C_3
REMARK    3  A    between atoms: C_2  and  C_4
REMARK    4  A    between atoms: C_2  and  C_5
REMARK    5  A    between atoms: C_17  and  O_18
REMARK    6  A    between atoms: O_18  and  C_19
REMARK                            x       y       z     vdW  Elec       q    Type
REMARK                         _______ _______ _______ _____ _____    ______ ____
ROOT
ATOM      1  C   UNL     1       1.079  15.894  18.750  0.00  0.00    +0.000 A 
ATOM      2  C   UNL     1       1.693  14.778  19.311  0.00  0.00    +0.000 A 
ATOM      3  C   UNL     1       0.639  13.828  19.473  0.00  0.00    +0.000 A 
ATOM      4  N   UNL     1       0.797  12.508  19.921  0.00  0.00    +0.000 N 
ATOM      5  C   UNL     1      -0.280  11.663  20.041  0.00  0.00    +0.000 C 
ATOM      6  O   UNL     1      -1.480  11.895  19.835  0.00  0.00    +0.000 OA
ATOM      7  N   UNL     1       0.016  10.417  20.625  0.00  0.00    +0.000 N 
ATOM      8  C   UNL     1      -0.641   9.994  21.757  0.00  0.00    +0.000 A 
ATOM      9  C   UNL     1      -0.161   8.768  22.144  0.00  0.00    +0.000 A 
ATOM     10  C   UNL     1       0.765   8.362  21.162  0.00  0.00    +0.000 A 
ATOM     11  C   UNL     1       1.548   7.205  21.067  0.00  0.00    +0.000 A 
ATOM     12  C   UNL     1       2.289   6.960  19.914  0.00  0.00    +0.000 A 
ATOM     13  C   UNL     1       2.208   7.829  18.824  0.00  0.00    +0.000 A 
ATOM     14  C   UNL     1       1.554   9.079  18.949  0.00  0.00    +0.000 A 
ATOM     15  C   UNL     1       0.843   9.350  20.157  0.00  0.00    +0.000 A 
ATOM     16  N   UNL     1      -0.524  14.375  19.111  0.00  0.00    +0.000 NA
ATOM     17  O   UNL     1      -0.247  15.643  18.643  0.00  0.00    +0.000 OA
ATOM     18  H   UNL     1       1.719  12.207  20.176  0.00  0.00    +0.000 HD
ENDROOT
BRANCH   1  20
ATOM     19  C   UNL     1       2.835  16.991  17.366  0.00  0.00    +0.000 C 
ATOM     20  C   UNL     1       1.592  17.217  18.245  0.00  0.00    +0.000 C 
ATOM     21  C   UNL     1       1.973  18.131  19.426  0.00  0.00    +0.000 C 
ATOM     22  C   UNL     1       0.517  17.940  17.412  0.00  0.00    +0.000 C 
ENDBRANCH   1  20
BRANCH  13  23
ATOM     23  O   UNL     1       2.790   7.473  17.602  0.00  0.00    +0.000 OA
BRANCH  23  24
ATOM     24  C   UNL     1       3.710   6.415  17.635  0.00  0.00    +0.000 A 
ATOM     25  N   UNL     1       5.023   6.718  17.810  0.00  0.00    +0.000 NA
ATOM     26  C   UNL     1       5.901   5.702  17.894  0.00  0.00    +0.000 A 
ATOM     27  N   UNL     1       5.611   4.401  17.886  0.00  0.00    +0.000 NA
ATOM     28  C   UNL     1       4.300   4.162  17.783  0.00  0.00    +0.000 A 
ATOM     29  C   UNL     1       3.294   5.113  17.603  0.00  0.00    +0.000 A 
ATOM     30  C   UNL     1       1.966   4.456  17.692  0.00  0.00    +0.000 C 
ATOM     31  N   UNL     1       2.349   3.478  18.750  0.00  0.00    +0.000 NA
ATOM     32  C   UNL     1       3.634   2.920  18.319  0.00  0.00    +0.000 C 
ATOM     33  H   UNL     1       1.644   2.813  19.035  0.00  0.00    +0.000 HD
ENDBRANCH  23  24
ENDBRANCH  13  23
TORSDOF 3
ENDMDL
MODEL 9
REMARK VINA RESULT:      -7.8      4.278      8.156
REMARK  Name = 
REMARK  6 active torsions:
REMARK  status: ('A' for Active; 'I' for Inactive)
REMARK    1  A    between atoms: C_1  and  C_2
REMARK    2  A    between atoms: C_2  and  C_3
REMARK    3  A    between atoms: C_2  and  C_4
REMARK    4  A    between atoms: C_2  and  C_5
REMARK    5  A    between atoms: C_17  and  O_18
REMARK    6  A    between atoms: O_18  and  C_19
REMARK                            x       y       z     vdW  Elec       q    Type
REMARK                         _______ _______ _______ _____ _____    ______ ____
ROOT
ATOM      1  C   UNL     1       0.656  16.197  18.751  0.00  0.00    +0.000 A 
ATOM      2  C   UNL     1       1.349  15.115  19.285  0.00  0.00    +0.000 A 
ATOM      3  C   UNL     1       0.335  14.170  19.632  0.00  0.00    +0.000 A 
ATOM      4  N   UNL     1       0.562  12.877  20.125  0.00  0.00    +0.000 N 
ATOM      5  C   UNL     1      -0.482  12.036  20.428  0.00  0.00    +0.000 C 
ATOM      6  O   UNL     1      -1.700  12.254  20.367  0.00  0.00    +0.000 OA
ATOM      7  N   UNL     1      -0.100  10.824  21.033  0.00  0.00    +0.000 N 
ATOM      8  C   UNL     1      -0.602  10.461  22.262  0.00  0.00    +0.000 A 
ATOM      9  C   UNL     1      -0.063   9.258  22.647  0.00  0.00    +0.000 A 
ATOM     10  C   UNL     1       0.732   8.804  21.577  0.00  0.00    +0.000 A 
ATOM     11  C   UNL     1       1.508   7.646  21.442  0.00  0.00    +0.000 A 
ATOM     12  C   UNL     1       2.096   7.342  20.217  0.00  0.00    +0.000 A 
ATOM     13  C   UNL     1       1.866   8.151  19.103  0.00  0.00    +0.000 A 
ATOM     14  C   UNL     1       1.222   9.403  19.245  0.00  0.00    +0.000 A 
ATOM     15  C   UNL     1       0.669   9.737  20.519  0.00  0.00    +0.000 A 
ATOM     16  N   UNL     1      -0.871  14.694  19.395  0.00  0.00    +0.000 NA
ATOM     17  O   UNL     1      -0.670  15.936  18.829  0.00  0.00    +0.000 OA
ATOM     18  H   UNL     1       1.512  12.593  20.274  0.00  0.00    +0.000 HD
ENDROOT
BRANCH   1  20
ATOM     19  C   UNL     1       2.393  17.277  17.329  0.00  0.00    +0.000 C 
ATOM     20  C   UNL     1       1.087  17.492  18.114  0.00  0.00    +0.000 C 
ATOM     21  C   UNL     1       1.323  18.568  19.193  0.00  0.00    +0.000 C 
ATOM     22  C   UNL     1       0.005  18.016  17.150  0.00  0.00    +0.000 C 
ENDBRANCH   1  20
BRANCH  13  23
ATOM     23  O   UNL     1       2.290   7.731  17.836  0.00  0.00    +0.000 OA
BRANCH  23  24
ATOM     24  C   UNL     1       2.827   6.439  17.755  0.00  0.00    +0.000 A 
ATOM     25  N   UNL     1       1.971   5.387  17.842  0.00  0.00    +0.000 NA
ATOM     26  C   UNL     1       2.478   4.147  17.713  0.00  0.00    +0.000 A 
ATOM     27  N   UNL     1       3.744   3.832  17.443  0.00  0.00    +0.000 NA
ATOM     28  C   UNL     1       4.526   4.906  17.299  0.00  0.00    +0.000 A 
ATOM     29  C   UNL     1       4.153   6.237  17.489  0.00  0.00    +0.000 A 
ATOM     30  C   UNL     1       5.266   7.130  17.081  0.00  0.00    +0.000 C 
ATOM     31  N   UNL     1       5.723   6.291  15.936  0.00  0.00    +0.000 NA
ATOM     32  C   UNL     1       5.775   4.921  16.452  0.00  0.00    +0.000 C 
ATOM     33  H   UNL     1       6.537   6.611  15.431  0.00  0.00    +0.000 HD
ENDBRANCH  23  24
ENDBRANCH  13  23
TORSDOF 3
ENDMDL
