MODEL 1
REMARK VINA RESULT:      -7.3      0.000      0.000
REMARK  Name = 
REMARK  9 active torsions:
REMARK  status: ('A' for Active; 'I' for Inactive)
REMARK    1  A    between atoms: C_1  and  O_2
REMARK    2  A    between atoms: O_2  and  C_3
REMARK    3  A    between atoms: C_3  and  C_5
REMARK    4  A    between atoms: N_9  and  N_10
REMARK    5  A    between atoms: C_11  and  C_12
REMARK    6  A    between atoms: C_15  and  O_16
REMARK    7  A    between atoms: O_16  and  C_17
REMARK    8  A    between atoms: C_17  and  C_18
REMARK    9  A    between atoms: N_24  and  C_25
REMARK                            x       y       z     vdW  Elec       q    Type
REMARK                         _______ _______ _______ _____ _____    ______ ____
ROOT
ATOM      1  C   UNL     1      -2.807  11.748  18.003  0.00  0.00    +0.000 C 
ATOM      2  C   UNL     1      -1.526  11.511  18.316  0.00  0.00    +0.000 C 
ATOM      3  S   UNL     1      -0.676  10.025  18.248  0.00  0.00    +0.000 S 
ATOM      4  C   UNL     1       0.862  10.778  18.623  0.00  0.00    +0.000 C 
ATOM      5  N   UNL     1       2.001  10.165  18.732  0.00  0.00    +0.000 NA
ATOM      6  N   UNL     1       0.688  12.130  18.831  0.00  0.00    +0.000 N 
ATOM      7  C   UNL     1      -0.604  12.615  18.705  0.00  0.00    +0.000 C 
ATOM      8  O   UNL     1      -0.986  13.773  18.822  0.00  0.00    +0.000 OA
ENDROOT
BRANCH   6   9
ATOM      9  C   UNL     1       1.781  12.996  19.093  0.00  0.00    +0.000 A 
ATOM     10  C   UNL     1       2.505  13.571  18.042  0.00  0.00    +0.000 A 
ATOM     11  C   UNL     1       3.548  14.460  18.312  0.00  0.00    +0.000 A 
ATOM     12  C   UNL     1       3.906  14.743  19.630  0.00  0.00    +0.000 A 
ATOM     13  C   UNL     1       3.212  14.150  20.681  0.00  0.00    +0.000 A 
ATOM     14  C   UNL     1       2.143  13.294  20.415  0.00  0.00    +0.000 A 
ENDBRANCH   6   9
BRANCH   1  15
ATOM     15  C   UNL     1      -3.768  10.701  17.613  0.00  0.00    +0.000 C 
ATOM     16  O   UNL     1      -4.830  10.468  18.160  0.00  0.00    +0.000 OA
BRANCH  15  18
ATOM     17  C   UNL     1      -3.572  10.683  15.294  0.00  0.00    +0.000 C 
ATOM     18  O   UNL     1      -3.271  10.043  16.533  0.00  0.00    +0.000 OA
ENDBRANCH  15  18
ENDBRANCH   1  15
BRANCH   5  19
ATOM     19  N   UNL     1       1.937   8.806  18.456  0.00  0.00    +0.000 NA
ATOM     20  C   UNL     1       2.112   8.085  19.515  0.00  0.00    +0.000 C 
BRANCH  20  21
ATOM     21  C   UNL     1       2.143   6.614  19.426  0.00  0.00    +0.000 A 
ATOM     22  C   UNL     1       1.801   5.835  20.535  0.00  0.00    +0.000 A 
ATOM     23  C   UNL     1       1.774   4.446  20.422  0.00  0.00    +0.000 A 
ATOM     24  C   UNL     1       2.072   3.834  19.203  0.00  0.00    +0.000 A 
ATOM     25  C   UNL     1       2.454   4.612  18.109  0.00  0.00    +0.000 A 
ATOM     26  C   UNL     1       2.483   6.007  18.215  0.00  0.00    +0.000 A 
BRANCH  24  27
ATOM     27  O   UNL     1       1.979   2.471  19.206  0.00  0.00    +0.000 OA
BRANCH  27  28
ATOM     28  C   UNL     1       3.175   1.763  18.852  0.00  0.00    +0.000 C 
BRANCH  28  29
ATOM     29  C   UNL     1       4.283   2.004  19.875  0.00  0.00    +0.000 C 
ATOM     30  F   UNL     1       5.012   3.110  19.618  0.00  0.00    +0.000 F 
ATOM     31  F   UNL     1       3.759   2.146  21.117  0.00  0.00    +0.000 F 
ATOM     32  F   UNL     1       5.136   0.955  19.919  0.00  0.00    +0.000 F 
ENDBRANCH  28  29
ENDBRANCH  27  28
ENDBRANCH  24  27
ENDBRANCH  20  21
ENDBRANCH   5  19
TORSDOF 8
ENDMDL
MODEL 2
REMARK VINA RESULT:      -7.2      5.432     10.375
REMARK  Name = 
REMARK  9 active torsions:
REMARK  status: ('A' for Active; 'I' for Inactive)
REMARK    1  A    between atoms: C_1  and  O_2
REMARK    2  A    between atoms: O_2  and  C_3
REMARK    3  A    between atoms: C_3  and  C_5
REMARK    4  A    between atoms: N_9  and  N_10
REMARK    5  A    between atoms: C_11  and  C_12
REMARK    6  A    between atoms: C_15  and  O_16
REMARK    7  A    between atoms: O_16  and  C_17
REMARK    8  A    between atoms: C_17  and  C_18
REMARK    9  A    between atoms: N_24  and  C_25
REMARK                            x       y       z     vdW  Elec       q    Type
REMARK                         _______ _______ _______ _____ _____    ______ ____
ROOT
ATOM      1  C   UNL     1       6.663   5.284  17.116  0.00  0.00    +0.000 C 
ATOM      2  C   UNL     1       5.524   5.563  17.764  0.00  0.00    +0.000 C 
ATOM      3  S   UNL     1       4.624   7.021  17.747  0.00  0.00    +0.000 S 
ATOM      4  C   UNL     1       3.306   6.330  18.673  0.00  0.00    +0.000 C 
ATOM      5  N   UNL     1       2.224   6.951  19.033  0.00  0.00    +0.000 NA
ATOM      6  N   UNL     1       3.596   5.024  19.008  0.00  0.00    +0.000 N 
ATOM      7  C   UNL     1       4.812   4.528  18.567  0.00  0.00    +0.000 C 
ATOM      8  O   UNL     1       5.266   3.401  18.725  0.00  0.00    +0.000 OA
ENDROOT
BRANCH   6   9
ATOM      9  C   UNL     1       2.673   4.206  19.708  0.00  0.00    +0.000 A 
ATOM     10  C   UNL     1       1.659   3.526  19.023  0.00  0.00    +0.000 A 
ATOM     11  C   UNL     1       0.786   2.684  19.717  0.00  0.00    +0.000 A 
ATOM     12  C   UNL     1       0.889   2.554  21.102  0.00  0.00    +0.000 A 
ATOM     13  C   UNL     1       1.874   3.252  21.795  0.00  0.00    +0.000 A 
ATOM     14  C   UNL     1       2.774   4.061  21.099  0.00  0.00    +0.000 A 
ENDBRANCH   6   9
BRANCH   1  15
ATOM     15  C   UNL     1       7.414   6.263  16.309  0.00  0.00    +0.000 C 
ATOM     16  O   UNL     1       7.767   7.368  16.675  0.00  0.00    +0.000 OA
BRANCH  15  18
ATOM     17  C   UNL     1       6.576   4.914  14.607  0.00  0.00    +0.000 C 
ATOM     18  O   UNL     1       7.653   5.717  15.087  0.00  0.00    +0.000 OA
ENDBRANCH  15  18
ENDBRANCH   1  15
BRANCH   5  19
ATOM     19  N   UNL     1       2.139   8.254  18.562  0.00  0.00    +0.000 NA
ATOM     20  C   UNL     1       1.480   9.021  19.365  0.00  0.00    +0.000 C 
BRANCH  20  21
ATOM     21  C   UNL     1       1.223  10.430  19.017  0.00  0.00    +0.000 A 
ATOM     22  C   UNL     1      -0.023  11.006  19.287  0.00  0.00    +0.000 A 
ATOM     23  C   UNL     1      -0.235  12.355  19.010  0.00  0.00    +0.000 A 
ATOM     24  C   UNL     1       0.794  13.135  18.481  0.00  0.00    +0.000 A 
ATOM     25  C   UNL     1       2.023  12.549  18.173  0.00  0.00    +0.000 A 
ATOM     26  C   UNL     1       2.243  11.194  18.448  0.00  0.00    +0.000 A 
BRANCH  24  27
ATOM     27  O   UNL     1       0.478  14.450  18.284  0.00  0.00    +0.000 OA
BRANCH  27  28
ATOM     28  C   UNL     1       1.107  15.383  19.173  0.00  0.00    +0.000 C 
BRANCH  28  29
ATOM     29  C   UNL     1       1.656  16.587  18.412  0.00  0.00    +0.000 C 
ATOM     30  F   UNL     1       0.716  17.233  17.690  0.00  0.00    +0.000 F 
ATOM     31  F   UNL     1       2.194  17.488  19.271  0.00  0.00    +0.000 F 
ATOM     32  F   UNL     1       2.639  16.213  17.560  0.00  0.00    +0.000 F 
ENDBRANCH  28  29
ENDBRANCH  27  28
ENDBRANCH  24  27
ENDBRANCH  20  21
ENDBRANCH   5  19
TORSDOF 8
ENDMDL
MODEL 3
REMARK VINA RESULT:      -7.2      4.945      9.127
REMARK  Name = 
REMARK  9 active torsions:
REMARK  status: ('A' for Active; 'I' for Inactive)
REMARK    1  A    between atoms: C_1  and  O_2
REMARK    2  A    between atoms: O_2  and  C_3
REMARK    3  A    between atoms: C_3  and  C_5
REMARK    4  A    between atoms: N_9  and  N_10
REMARK    5  A    between atoms: C_11  and  C_12
REMARK    6  A    between atoms: C_15  and  O_16
REMARK    7  A    between atoms: O_16  and  C_17
REMARK    8  A    between atoms: C_17  and  C_18
REMARK    9  A    between atoms: N_24  and  C_25
REMARK                            x       y       z     vdW  Elec       q    Type
REMARK                         _______ _______ _______ _____ _____    ______ ____
ROOT
ATOM      1  C   UNL     1       2.403   2.778  19.169  0.00  0.00    +0.000 C 
ATOM      2  C   UNL     1       2.842   3.969  18.740  0.00  0.00    +0.000 C 
ATOM      3  S   UNL     1       1.920   5.350  18.320  0.00  0.00    +0.000 S 
ATOM      4  C   UNL     1       3.341   6.355  18.116  0.00  0.00    +0.000 C 
ATOM      5  N   UNL     1       3.342   7.608  17.775  0.00  0.00    +0.000 NA
ATOM      6  N   UNL     1       4.482   5.611  18.330  0.00  0.00    +0.000 N 
ATOM      7  C   UNL     1       4.298   4.277  18.656  0.00  0.00    +0.000 C 
ATOM      8  O   UNL     1       5.157   3.440  18.910  0.00  0.00    +0.000 OA
ENDROOT
BRANCH   6   9
ATOM      9  C   UNL     1       5.775   6.192  18.289  0.00  0.00    +0.000 A 
ATOM     10  C   UNL     1       6.762   5.803  19.202  0.00  0.00    +0.000 A 
ATOM     11  C   UNL     1       8.047   6.346  19.120  0.00  0.00    +0.000 A 
ATOM     12  C   UNL     1       8.340   7.314  18.159  0.00  0.00    +0.000 A 
ATOM     13  C   UNL     1       7.354   7.730  17.268  0.00  0.00    +0.000 A 
ATOM     14  C   UNL     1       6.083   7.158  17.321  0.00  0.00    +0.000 A 
ENDBRANCH   6   9
BRANCH   1  15
ATOM     15  C   UNL     1       0.979   2.411  19.272  0.00  0.00    +0.000 C 
ATOM     16  O   UNL     1       0.329   1.831  18.423  0.00  0.00    +0.000 OA
BRANCH  15  18
ATOM     17  C   UNL     1       1.439   2.598  21.546  0.00  0.00    +0.000 C 
ATOM     18  O   UNL     1       0.517   2.825  20.481  0.00  0.00    +0.000 OA
ENDBRANCH  15  18
ENDBRANCH   1  15
BRANCH   5  19
ATOM     19  N   UNL     1       2.073   8.154  17.634  0.00  0.00    +0.000 NA
ATOM     20  C   UNL     1       1.884   9.159  18.423  0.00  0.00    +0.000 C 
BRANCH  20  21
ATOM     21  C   UNL     1       0.578   9.840  18.473  0.00  0.00    +0.000 A 
ATOM     22  C   UNL     1       0.340  10.837  19.424  0.00  0.00    +0.000 A 
ATOM     23  C   UNL     1      -0.877  11.517  19.423  0.00  0.00    +0.000 A 
ATOM     24  C   UNL     1      -1.848  11.218  18.467  0.00  0.00    +0.000 A 
ATOM     25  C   UNL     1      -1.625  10.194  17.544  0.00  0.00    +0.000 A 
ATOM     26  C   UNL     1      -0.406   9.506  17.540  0.00  0.00    +0.000 A 
BRANCH  24  27
ATOM     27  O   UNL     1      -2.984  11.974  18.543  0.00  0.00    +0.000 OA
BRANCH  27  28
ATOM     28  C   UNL     1      -3.998  11.678  17.573  0.00  0.00    +0.000 C 
BRANCH  28  29
ATOM     29  C   UNL     1      -5.298  11.247  18.246  0.00  0.00    +0.000 C 
ATOM     30  F   UNL     1      -6.397  11.547  17.522  0.00  0.00    +0.000 F 
ATOM     31  F   UNL     1      -5.305   9.908  18.454  0.00  0.00    +0.000 F 
ATOM     32  F   UNL     1      -5.434  11.839  19.456  0.00  0.00    +0.000 F 
ENDBRANCH  28  29
ENDBRANCH  27  28
ENDBRANCH  24  27
ENDBRANCH  20  21
ENDBRANCH   5  19
TORSDOF 8
ENDMDL
MODEL 4
REMARK VINA RESULT:      -7.2      5.182     10.284
REMARK  Name = 
REMARK  9 active torsions:
REMARK  status: ('A' for Active; 'I' for Inactive)
REMARK    1  A    between atoms: C_1  and  O_2
REMARK    2  A    between atoms: O_2  and  C_3
REMARK    3  A    between atoms: C_3  and  C_5
REMARK    4  A    between atoms: N_9  and  N_10
REMARK    5  A    between atoms: C_11  and  C_12
REMARK    6  A    between atoms: C_15  and  O_16
REMARK    7  A    between atoms: O_16  and  C_17
REMARK    8  A    between atoms: C_17  and  C_18
REMARK    9  A    between atoms: N_24  and  C_25
REMARK                            x       y       z     vdW  Elec       q    Type
REMARK                         _______ _______ _______ _____ _____    ______ ____
ROOT
ATOM      1  C   UNL     1       6.518   5.036  16.686  0.00  0.00    +0.000 C 
ATOM      2  C   UNL     1       5.402   5.355  17.356  0.00  0.00    +0.000 C 
ATOM      3  S   UNL     1       4.660   6.891  17.508  0.00  0.00    +0.000 S 
ATOM      4  C   UNL     1       3.259   6.239  18.335  0.00  0.00    +0.000 C 
ATOM      5  N   UNL     1       2.241   6.924  18.759  0.00  0.00    +0.000 NA
ATOM      6  N   UNL     1       3.405   4.879  18.513  0.00  0.00    +0.000 N 
ATOM      7  C   UNL     1       4.571   4.313  18.023  0.00  0.00    +0.000 C 
ATOM      8  O   UNL     1       4.901   3.133  18.048  0.00  0.00    +0.000 OA
ENDROOT
BRANCH   6   9
ATOM      9  C   UNL     1       2.388   4.086  19.103  0.00  0.00    +0.000 A 
ATOM     10  C   UNL     1       2.296   3.960  20.494  0.00  0.00    +0.000 A 
ATOM     11  C   UNL     1       1.260   3.216  21.064  0.00  0.00    +0.000 A 
ATOM     12  C   UNL     1       0.340   2.555  20.251  0.00  0.00    +0.000 A 
ATOM     13  C   UNL     1       0.443   2.649  18.866  0.00  0.00    +0.000 A 
ATOM     14  C   UNL     1       1.452   3.426  18.294  0.00  0.00    +0.000 A 
ENDBRANCH   6   9
BRANCH   1  15
ATOM     15  C   UNL     1       7.382   6.018  16.008  0.00  0.00    +0.000 C 
ATOM     16  O   UNL     1       7.832   7.035  16.503  0.00  0.00    +0.000 OA
BRANCH  15  18
ATOM     17  C   UNL     1       6.672   4.596  14.308  0.00  0.00    +0.000 C 
ATOM     18  O   UNL     1       7.599   5.592  14.736  0.00  0.00    +0.000 OA
ENDBRANCH  15  18
ENDBRANCH   1  15
BRANCH   5  19
ATOM     19  N   UNL     1       2.302   8.275  18.448  0.00  0.00    +0.000 NA
ATOM     20  C   UNL     1       1.432   8.967  19.106  0.00  0.00    +0.000 C 
BRANCH  20  21
ATOM     21  C   UNL     1       1.291  10.416  18.872  0.00  0.00    +0.000 A 
ATOM     22  C   UNL     1       0.184  11.105  19.375  0.00  0.00    +0.000 A 
ATOM     23  C   UNL     1       0.091  12.485  19.201  0.00  0.00    +0.000 A 
ATOM     24  C   UNL     1       1.106  13.180  18.543  0.00  0.00    +0.000 A 
ATOM     25  C   UNL     1       2.191  12.485  18.005  0.00  0.00    +0.000 A 
ATOM     26  C   UNL     1       2.290  11.099  18.175  0.00  0.00    +0.000 A 
BRANCH  24  27
ATOM     27  O   UNL     1       0.922  14.532  18.463  0.00  0.00    +0.000 OA
BRANCH  27  28
ATOM     28  C   UNL     1       1.653  15.319  19.414  0.00  0.00    +0.000 C 
BRANCH  28  29
ATOM     29  C   UNL     1       2.846  16.010  18.758  0.00  0.00    +0.000 C 
ATOM     30  F   UNL     1       2.931  15.778  17.431  0.00  0.00    +0.000 F 
ATOM     31  F   UNL     1       2.771  17.352  18.930  0.00  0.00    +0.000 F 
ATOM     32  F   UNL     1       4.008  15.601  19.319  0.00  0.00    +0.000 F 
ENDBRANCH  28  29
ENDBRANCH  27  28
ENDBRANCH  24  27
ENDBRANCH  20  21
ENDBRANCH   5  19
TORSDOF 8
ENDMDL
MODEL 5
REMARK VINA RESULT:      -7.2      0.876      1.393
REMARK  Name = 
REMARK  9 active torsions:
REMARK  status: ('A' for Active; 'I' for Inactive)
REMARK    1  A    between atoms: C_1  and  O_2
REMARK    2  A    between atoms: O_2  and  C_3
REMARK    3  A    between atoms: C_3  and  C_5
REMARK    4  A    between atoms: N_9  and  N_10
REMARK    5  A    between atoms: C_11  and  C_12
REMARK    6  A    between atoms: C_15  and  O_16
REMARK    7  A    between atoms: O_16  and  C_17
REMARK    8  A    between atoms: C_17  and  C_18
REMARK    9  A    between atoms: N_24  and  C_25
REMARK                            x       y       z     vdW  Elec       q    Type
REMARK                         _______ _______ _______ _____ _____    ______ ____
ROOT
ATOM      1  C   UNL     1      -2.829  11.586  17.881  0.00  0.00    +0.000 C 
ATOM      2  C   UNL     1      -1.521  11.408  18.111  0.00  0.00    +0.000 C 
ATOM      3  S   UNL     1      -0.564  10.029  17.774  0.00  0.00    +0.000 S 
ATOM      4  C   UNL     1       0.927  10.836  18.221  0.00  0.00    +0.000 C 
ATOM      5  N   UNL     1       2.114  10.309  18.193  0.00  0.00    +0.000 NA
ATOM      6  N   UNL     1       0.659  12.118  18.654  0.00  0.00    +0.000 N 
ATOM      7  C   UNL     1      -0.670  12.508  18.649  0.00  0.00    +0.000 C 
ATOM      8  O   UNL     1      -1.135  13.596  18.966  0.00  0.00    +0.000 OA
ENDROOT
BRANCH   6   9
ATOM      9  C   UNL     1       1.693  13.017  19.021  0.00  0.00    +0.000 A 
ATOM     10  C   UNL     1       2.404  13.725  18.046  0.00  0.00    +0.000 A 
ATOM     11  C   UNL     1       3.387  14.644  18.422  0.00  0.00    +0.000 A 
ATOM     12  C   UNL     1       3.698  14.827  19.770  0.00  0.00    +0.000 A 
ATOM     13  C   UNL     1       3.018  14.102  20.744  0.00  0.00    +0.000 A 
ATOM     14  C   UNL     1       2.007  13.215  20.374  0.00  0.00    +0.000 A 
ENDBRANCH   6   9
BRANCH   1  15
ATOM     15  C   UNL     1      -3.723  10.540  17.353  0.00  0.00    +0.000 C 
ATOM     16  O   UNL     1      -4.080   9.540  17.947  0.00  0.00    +0.000 OA
BRANCH  15  18
ATOM     17  C   UNL     1      -3.380  10.172  15.080  0.00  0.00    +0.000 C 
ATOM     18  O   UNL     1      -4.090  10.886  16.091  0.00  0.00    +0.000 OA
ENDBRANCH  15  18
ENDBRANCH   1  15
BRANCH   5  19
ATOM     19  N   UNL     1       2.142   9.012  17.700  0.00  0.00    +0.000 NA
ATOM     20  C   UNL     1       2.635   8.177  18.553  0.00  0.00    +0.000 C 
BRANCH  20  21
ATOM     21  C   UNL     1       2.811   6.757  18.199  0.00  0.00    +0.000 A 
ATOM     22  C   UNL     1       3.926   6.349  17.461  0.00  0.00    +0.000 A 
ATOM     23  C   UNL     1       4.115   4.995  17.186  0.00  0.00    +0.000 A 
ATOM     24  C   UNL     1       3.204   4.048  17.656  0.00  0.00    +0.000 A 
ATOM     25  C   UNL     1       2.069   4.462  18.357  0.00  0.00    +0.000 A 
ATOM     26  C   UNL     1       1.873   5.819  18.637  0.00  0.00    +0.000 A 
BRANCH  24  27
ATOM     27  O   UNL     1       3.512   2.752  17.353  0.00  0.00    +0.000 OA
BRANCH  27  28
ATOM     28  C   UNL     1       3.340   1.804  18.415  0.00  0.00    +0.000 C 
BRANCH  28  29
ATOM     29  C   UNL     1       4.236   2.140  19.605  0.00  0.00    +0.000 C 
ATOM     30  F   UNL     1       3.550   2.589  20.677  0.00  0.00    +0.000 F 
ATOM     31  F   UNL     1       4.930   1.044  20.001  0.00  0.00    +0.000 F 
ATOM     32  F   UNL     1       5.143   3.088  19.274  0.00  0.00    +0.000 F 
ENDBRANCH  28  29
ENDBRANCH  27  28
ENDBRANCH  24  27
ENDBRANCH  20  21
ENDBRANCH   5  19
TORSDOF 8
ENDMDL
MODEL 6
REMARK VINA RESULT:      -7.2      2.380      3.139
REMARK  Name = 
REMARK  9 active torsions:
REMARK  status: ('A' for Active; 'I' for Inactive)
REMARK    1  A    between atoms: C_1  and  O_2
REMARK    2  A    between atoms: O_2  and  C_3
REMARK    3  A    between atoms: C_3  and  C_5
REMARK    4  A    between atoms: N_9  and  N_10
REMARK    5  A    between atoms: C_11  and  C_12
REMARK    6  A    between atoms: C_15  and  O_16
REMARK    7  A    between atoms: O_16  and  C_17
REMARK    8  A    between atoms: C_17  and  C_18
REMARK    9  A    between atoms: N_24  and  C_25
REMARK                            x       y       z     vdW  Elec       q    Type
REMARK                         _______ _______ _______ _____ _____    ______ ____
ROOT
ATOM      1  C   UNL     1      -3.196  11.092  16.964  0.00  0.00    +0.000 C 
ATOM      2  C   UNL     1      -2.377  11.029  18.022  0.00  0.00    +0.000 C 
ATOM      3  S   UNL     1      -0.976  10.065  18.223  0.00  0.00    +0.000 S 
ATOM      4  C   UNL     1      -0.553  10.827  19.744  0.00  0.00    +0.000 C 
ATOM      5  N   UNL     1       0.480  10.538  20.477  0.00  0.00    +0.000 NA
ATOM      6  N   UNL     1      -1.505  11.765  20.084  0.00  0.00    +0.000 N 
ATOM      7  C   UNL     1      -2.561  11.923  19.200  0.00  0.00    +0.000 C 
ATOM      8  O   UNL     1      -3.500  12.706  19.285  0.00  0.00    +0.000 OA
ENDROOT
BRANCH   6   9
ATOM      9  C   UNL     1      -1.380  12.576  21.241  0.00  0.00    +0.000 A 
ATOM     10  C   UNL     1      -2.034  12.232  22.429  0.00  0.00    +0.000 A 
ATOM     11  C   UNL     1      -1.863  13.012  23.576  0.00  0.00    +0.000 A 
ATOM     12  C   UNL     1      -1.078  14.164  23.531  0.00  0.00    +0.000 A 
ATOM     13  C   UNL     1      -0.451  14.531  22.344  0.00  0.00    +0.000 A 
ATOM     14  C   UNL     1      -0.586  13.731  21.209  0.00  0.00    +0.000 A 
ENDBRANCH   6   9
BRANCH   1  15
ATOM     15  C   UNL     1      -3.069  10.234  15.771  0.00  0.00    +0.000 C 
ATOM     16  O   UNL     1      -2.709   9.072  15.763  0.00  0.00    +0.000 OA
BRANCH  15  18
ATOM     17  C   UNL     1      -3.816  10.155  13.568  0.00  0.00    +0.000 C 
ATOM     18  O   UNL     1      -3.432  10.961  14.681  0.00  0.00    +0.000 OA
ENDBRANCH  15  18
ENDBRANCH   1  15
BRANCH   5  19
ATOM     19  N   UNL     1       1.312   9.576  19.922  0.00  0.00    +0.000 NA
ATOM     20  C   UNL     1       1.056   8.392  20.372  0.00  0.00    +0.000 C 
BRANCH  20  21
ATOM     21  C   UNL     1       1.871   7.237  19.954  0.00  0.00    +0.000 A 
ATOM     22  C   UNL     1       2.618   7.293  18.774  0.00  0.00    +0.000 A 
ATOM     23  C   UNL     1       3.434   6.219  18.421  0.00  0.00    +0.000 A 
ATOM     24  C   UNL     1       3.517   5.098  19.248  0.00  0.00    +0.000 A 
ATOM     25  C   UNL     1       2.738   5.026  20.404  0.00  0.00    +0.000 A 
ATOM     26  C   UNL     1       1.917   6.101  20.764  0.00  0.00    +0.000 A 
BRANCH  24  27
ATOM     27  O   UNL     1       4.374   4.126  18.815  0.00  0.00    +0.000 OA
BRANCH  27  28
ATOM     28  C   UNL     1       4.215   2.837  19.425  0.00  0.00    +0.000 C 
BRANCH  28  29
ATOM     29  C   UNL     1       3.293   1.945  18.597  0.00  0.00    +0.000 C 
ATOM     30  F   UNL     1       2.085   1.754  19.168  0.00  0.00    +0.000 F 
ATOM     31  F   UNL     1       3.079   2.487  17.373  0.00  0.00    +0.000 F 
ATOM     32  F   UNL     1       3.848   0.726  18.402  0.00  0.00    +0.000 F 
ENDBRANCH  28  29
ENDBRANCH  27  28
ENDBRANCH  24  27
ENDBRANCH  20  21
ENDBRANCH   5  19
TORSDOF 8
ENDMDL
MODEL 7
REMARK VINA RESULT:      -7.2      3.477      5.553
REMARK  Name = 
REMARK  9 active torsions:
REMARK  status: ('A' for Active; 'I' for Inactive)
REMARK    1  A    between atoms: C_1  and  O_2
REMARK    2  A    between atoms: O_2  and  C_3
REMARK    3  A    between atoms: C_3  and  C_5
REMARK    4  A    between atoms: N_9  and  N_10
REMARK    5  A    between atoms: C_11  and  C_12
REMARK    6  A    between atoms: C_15  and  O_16
REMARK    7  A    between atoms: O_16  and  C_17
REMARK    8  A    between atoms: C_17  and  C_18
REMARK    9  A    between atoms: N_24  and  C_25
REMARK                            x       y       z     vdW  Elec       q    Type
REMARK                         _______ _______ _______ _____ _____    ______ ____
ROOT
ATOM      1  C   UNL     1       2.787  15.215  19.336  0.00  0.00    +0.000 C 
ATOM      2  C   UNL     1       1.921  14.198  19.441  0.00  0.00    +0.000 C 
ATOM      3  S   UNL     1       2.101  12.591  18.875  0.00  0.00    +0.000 S 
ATOM      4  C   UNL     1       0.622  12.053  19.645  0.00  0.00    +0.000 C 
ATOM      5  N   UNL     1       0.140  10.847  19.606  0.00  0.00    +0.000 NA
ATOM      6  N   UNL     1       0.005  13.112  20.277  0.00  0.00    +0.000 N 
ATOM      7  C   UNL     1       0.643  14.339  20.193  0.00  0.00    +0.000 C 
ATOM      8  O   UNL     1       0.294  15.403  20.692  0.00  0.00    +0.000 OA
ENDROOT
BRANCH   6   9
ATOM      9  C   UNL     1      -1.184  12.946  21.033  0.00  0.00    +0.000 A 
ATOM     10  C   UNL     1      -2.439  13.119  20.439  0.00  0.00    +0.000 A 
ATOM     11  C   UNL     1      -3.603  12.904  21.181  0.00  0.00    +0.000 A 
ATOM     12  C   UNL     1      -3.521  12.563  22.532  0.00  0.00    +0.000 A 
ATOM     13  C   UNL     1      -2.277  12.420  23.138  0.00  0.00    +0.000 A 
ATOM     14  C   UNL     1      -1.113  12.593  22.389  0.00  0.00    +0.000 A 
ENDBRANCH   6   9
BRANCH   1  15
ATOM     15  C   UNL     1       4.064  15.140  18.604  0.00  0.00    +0.000 C 
ATOM     16  O   UNL     1       4.206  15.261  17.402  0.00  0.00    +0.000 OA
BRANCH  15  18
ATOM     17  C   UNL     1       6.365  15.045  18.941  0.00  0.00    +0.000 C 
ATOM     18  O   UNL     1       5.060  14.920  19.503  0.00  0.00    +0.000 OA
ENDBRANCH  15  18
ENDBRANCH   1  15
BRANCH   5  19
ATOM     19  N   UNL     1       0.945   9.942  18.929  0.00  0.00    +0.000 NA
ATOM     20  C   UNL     1       1.246   8.918  19.657  0.00  0.00    +0.000 C 
BRANCH  20  21
ATOM     21  C   UNL     1       2.146   7.869  19.145  0.00  0.00    +0.000 A 
ATOM     22  C   UNL     1       2.810   8.046  17.927  0.00  0.00    +0.000 A 
ATOM     23  C   UNL     1       3.706   7.075  17.481  0.00  0.00    +0.000 A 
ATOM     24  C   UNL     1       3.953   5.939  18.253  0.00  0.00    +0.000 A 
ATOM     25  C   UNL     1       3.257   5.745  19.448  0.00  0.00    +0.000 A 
ATOM     26  C   UNL     1       2.356   6.715  19.901  0.00  0.00    +0.000 A 
BRANCH  24  27
ATOM     27  O   UNL     1       4.875   5.077  17.731  0.00  0.00    +0.000 OA
BRANCH  27  28
ATOM     28  C   UNL     1       4.530   4.482  16.472  0.00  0.00    +0.000 C 
BRANCH  28  29
ATOM     29  C   UNL     1       5.583   4.790  15.409  0.00  0.00    +0.000 C 
ATOM     30  F   UNL     1       5.611   3.882  14.411  0.00  0.00    +0.000 F 
ATOM     31  F   UNL     1       5.350   6.001  14.847  0.00  0.00    +0.000 F 
ATOM     32  F   UNL     1       6.820   4.834  15.955  0.00  0.00    +0.000 F 
ENDBRANCH  28  29
ENDBRANCH  27  28
ENDBRANCH  24  27
ENDBRANCH  20  21
ENDBRANCH   5  19
TORSDOF 8
ENDMDL
MODEL 8
REMARK VINA RESULT:      -7.2      2.302      3.032
REMARK  Name = 
REMARK  9 active torsions:
REMARK  status: ('A' for Active; 'I' for Inactive)
REMARK    1  A    between atoms: C_1  and  O_2
REMARK    2  A    between atoms: O_2  and  C_3
REMARK    3  A    between atoms: C_3  and  C_5
REMARK    4  A    between atoms: N_9  and  N_10
REMARK    5  A    between atoms: C_11  and  C_12
REMARK    6  A    between atoms: C_15  and  O_16
REMARK    7  A    between atoms: O_16  and  C_17
REMARK    8  A    between atoms: C_17  and  C_18
REMARK    9  A    between atoms: N_24  and  C_25
REMARK                            x       y       z     vdW  Elec       q    Type
REMARK                         _______ _______ _______ _____ _____    ______ ____
ROOT
ATOM      1  C   UNL     1      -3.270  11.130  16.885  0.00  0.00    +0.000 C 
ATOM      2  C   UNL     1      -2.446  11.028  17.936  0.00  0.00    +0.000 C 
ATOM      3  S   UNL     1      -1.060  10.035  18.104  0.00  0.00    +0.000 S 
ATOM      4  C   UNL     1      -0.613  10.753  19.639  0.00  0.00    +0.000 C 
ATOM      5  N   UNL     1       0.419  10.428  20.358  0.00  0.00    +0.000 NA
ATOM      6  N   UNL     1      -1.547  11.699  20.009  0.00  0.00    +0.000 N 
ATOM      7  C   UNL     1      -2.605  11.897  19.137  0.00  0.00    +0.000 C 
ATOM      8  O   UNL     1      -3.529  12.694  19.247  0.00  0.00    +0.000 OA
ENDROOT
BRANCH   6   9
ATOM      9  C   UNL     1      -1.399  12.480  21.184  0.00  0.00    +0.000 A 
ATOM     10  C   UNL     1      -0.628  13.648  21.173  0.00  0.00    +0.000 A 
ATOM     11  C   UNL     1      -0.530  14.435  22.323  0.00  0.00    +0.000 A 
ATOM     12  C   UNL     1      -1.161  14.036  23.503  0.00  0.00    +0.000 A 
ATOM     13  C   UNL     1      -1.902  12.859  23.530  0.00  0.00    +0.000 A 
ATOM     14  C   UNL     1      -2.036  12.093  22.371  0.00  0.00    +0.000 A 
ENDBRANCH   6   9
BRANCH   1  15
ATOM     15  C   UNL     1      -3.167  10.300  15.672  0.00  0.00    +0.000 C 
ATOM     16  O   UNL     1      -2.677   9.188  15.608  0.00  0.00    +0.000 OA
BRANCH  15  18
ATOM     17  C   UNL     1      -4.041  10.156  13.519  0.00  0.00    +0.000 C 
ATOM     18  O   UNL     1      -3.721  10.984  14.636  0.00  0.00    +0.000 OA
ENDBRANCH  15  18
ENDBRANCH   1  15
BRANCH   5  19
ATOM     19  N   UNL     1       1.230   9.465  19.774  0.00  0.00    +0.000 NA
ATOM     20  C   UNL     1       1.137   8.323  20.371  0.00  0.00    +0.000 C 
BRANCH  20  21
ATOM     21  C   UNL     1       1.967   7.182  19.944  0.00  0.00    +0.000 A 
ATOM     22  C   UNL     1       2.791   7.293  18.820  0.00  0.00    +0.000 A 
ATOM     23  C   UNL     1       3.618   6.230  18.462  0.00  0.00    +0.000 A 
ATOM     24  C   UNL     1       3.636   5.064  19.228  0.00  0.00    +0.000 A 
ATOM     25  C   UNL     1       2.782   4.939  20.325  0.00  0.00    +0.000 A 
ATOM     26  C   UNL     1       1.948   6.003  20.691  0.00  0.00    +0.000 A 
BRANCH  24  27
ATOM     27  O   UNL     1       4.510   4.105  18.799  0.00  0.00    +0.000 OA
BRANCH  27  28
ATOM     28  C   UNL     1       3.947   3.066  17.987  0.00  0.00    +0.000 C 
BRANCH  28  29
ATOM     29  C   UNL     1       3.606   1.835  18.823  0.00  0.00    +0.000 C 
ATOM     30  F   UNL     1       3.899   0.673  18.202  0.00  0.00    +0.000 F 
ATOM     31  F   UNL     1       4.291   1.851  19.993  0.00  0.00    +0.000 F 
ATOM     32  F   UNL     1       2.289   1.812  19.133  0.00  0.00    +0.000 F 
ENDBRANCH  28  29
ENDBRANCH  27  28
ENDBRANCH  24  27
ENDBRANCH  20  21
ENDBRANCH   5  19
TORSDOF 8
ENDMDL
MODEL 9
REMARK VINA RESULT:      -7.1      5.696     10.513
REMARK  Name = 
REMARK  9 active torsions:
REMARK  status: ('A' for Active; 'I' for Inactive)
REMARK    1  A    between atoms: C_1  and  O_2
REMARK    2  A    between atoms: O_2  and  C_3
REMARK    3  A    between atoms: C_3  and  C_5
REMARK    4  A    between atoms: N_9  and  N_10
REMARK    5  A    between atoms: C_11  and  C_12
REMARK    6  A    between atoms: C_15  and  O_16
REMARK    7  A    between atoms: O_16  and  C_17
REMARK    8  A    between atoms: C_17  and  C_18
REMARK    9  A    between atoms: N_24  and  C_25
REMARK                            x       y       z     vdW  Elec       q    Type
REMARK                         _______ _______ _______ _____ _____    ______ ____
ROOT
ATOM      1  C   UNL     1       6.609   5.310  17.001  0.00  0.00    +0.000 C 
ATOM      2  C   UNL     1       5.443   5.600  17.594  0.00  0.00    +0.000 C 
ATOM      3  S   UNL     1       4.608   7.095  17.616  0.00  0.00    +0.000 S 
ATOM      4  C   UNL     1       3.204   6.408  18.411  0.00  0.00    +0.000 C 
ATOM      5  N   UNL     1       2.128   7.054  18.743  0.00  0.00    +0.000 NA
ATOM      6  N   UNL     1       3.419   5.072  18.679  0.00  0.00    +0.000 N 
ATOM      7  C   UNL     1       4.640   4.550  18.283  0.00  0.00    +0.000 C 
ATOM      8  O   UNL     1       5.035   3.396  18.395  0.00  0.00    +0.000 OA
ENDROOT
BRANCH   6   9
ATOM      9  C   UNL     1       2.419   4.254  19.265  0.00  0.00    +0.000 A 
ATOM     10  C   UNL     1       1.511   3.552  18.465  0.00  0.00    +0.000 A 
ATOM     11  C   UNL     1       0.562   2.711  19.053  0.00  0.00    +0.000 A 
ATOM     12  C   UNL     1       0.483   2.604  20.442  0.00  0.00    +0.000 A 
ATOM     13  C   UNL     1       1.362   3.325  21.246  0.00  0.00    +0.000 A 
ATOM     14  C   UNL     1       2.338   4.133  20.660  0.00  0.00    +0.000 A 
ENDBRANCH   6   9
BRANCH   1  15
ATOM     15  C   UNL     1       7.450   6.302  16.308  0.00  0.00    +0.000 C 
ATOM     16  O   UNL     1       7.829   7.362  16.768  0.00  0.00    +0.000 OA
BRANCH  15  18
ATOM     17  C   UNL     1       6.961   4.688  14.704  0.00  0.00    +0.000 C 
ATOM     18  O   UNL     1       7.739   5.827  15.067  0.00  0.00    +0.000 OA
ENDBRANCH  15  18
ENDBRANCH   1  15
BRANCH   5  19
ATOM     19  N   UNL     1       2.128   8.386  18.353  0.00  0.00    +0.000 NA
ATOM     20  C   UNL     1       1.481   9.136  19.182  0.00  0.00    +0.000 C 
BRANCH  20  21
ATOM     21  C   UNL     1       1.309  10.576  18.916  0.00  0.00    +0.000 A 
ATOM     22  C   UNL     1       0.184  11.252  19.398  0.00  0.00    +0.000 A 
ATOM     23  C   UNL     1       0.063  12.625  19.194  0.00  0.00    +0.000 A 
ATOM     24  C   UNL     1       1.065  13.328  18.525  0.00  0.00    +0.000 A 
ATOM     25  C   UNL     1       2.167  12.645  18.007  0.00  0.00    +0.000 A 
ATOM     26  C   UNL     1       2.296  11.265  18.208  0.00  0.00    +0.000 A 
BRANCH  24  27
ATOM     27  O   UNL     1       0.851  14.673  18.415  0.00  0.00    +0.000 OA
BRANCH  27  28
ATOM     28  C   UNL     1      -0.008  15.252  19.407  0.00  0.00    +0.000 C 
BRANCH  28  29
ATOM     29  C   UNL     1      -0.569  16.592  18.937  0.00  0.00    +0.000 C 
ATOM     30  F   UNL     1      -0.559  16.731  17.595  0.00  0.00    +0.000 F 
ATOM     31  F   UNL     1      -1.851  16.741  19.350  0.00  0.00    +0.000 F 
ATOM     32  F   UNL     1       0.140  17.620  19.459  0.00  0.00    +0.000 F 
ENDBRANCH  28  29
ENDBRANCH  27  28
ENDBRANCH  24  27
ENDBRANCH  20  21
ENDBRANCH   5  19
TORSDOF 8
ENDMDL
