MODEL 1
REMARK VINA RESULT:      -7.3      0.000      0.000
REMARK  Name = 
REMARK  7 active torsions:
REMARK  status: ('A' for Active; 'I' for Inactive)
REMARK    1  A    between atoms: C_1  and  O_2
REMARK    2  A    between atoms: O_2  and  C_3
REMARK    3  A    between atoms: C_6  and  S_7
REMARK    4  A    between atoms: S_7  and  N_10
REMARK    5  A    between atoms: N_17  and  S_18
REMARK    6  A    between atoms: S_18  and  C_21
REMARK    7  A    between atoms: C_24  and  N_25
REMARK                            x       y       z     vdW  Elec       q    Type
REMARK                         _______ _______ _______ _____ _____    ______ ____
ROOT
ATOM      1  N   UNL     1       1.010  11.878  19.657  0.00  0.00    +0.000 NA
ATOM      2  C   UNL     1       1.851  12.086  18.459  0.00  0.00    +0.000 C 
ATOM      3  C   UNL     1       1.899  13.583  18.272  0.00  0.00    +0.000 C 
ATOM      4  O   UNL     1       0.698  14.072  18.868  0.00  0.00    +0.000 OA
ATOM      5  C   UNL     1       0.393  13.212  19.994  0.00  0.00    +0.000 C 
ATOM      6  C   UNL     1      -1.136  13.239  20.158  0.00  0.00    +0.000 C 
ATOM      7  C   UNL     1      -1.646  14.552  20.742  0.00  0.00    +0.000 C 
ATOM      8  N   UNL     1      -0.940  14.906  21.999  0.00  0.00    +0.000 NA
ATOM      9  C   UNL     1       0.507  15.085  21.718  0.00  0.00    +0.000 C 
ATOM     10  C   UNL     1       1.129  13.783  21.226  0.00  0.00    +0.000 C 
ENDROOT
BRANCH   1  11
ATOM     11  S   UNL     1       0.023  10.496  19.623  0.00  0.00    +0.000 S 
ATOM     12  O   UNL     1      -0.806  10.580  18.435  0.00  0.00    +0.000 OA
ATOM     13  O   UNL     1      -0.568  10.308  20.926  0.00  0.00    +0.000 OA
BRANCH  11  17
ATOM     14  C   UNL     1       2.717   6.860  18.942  0.00  0.00    +0.000 A 
ATOM     15  C   UNL     1       2.204   7.129  20.216  0.00  0.00    +0.000 A 
ATOM     16  C   UNL     1       1.410   8.260  20.440  0.00  0.00    +0.000 A 
ATOM     17  C   UNL     1       1.158   9.141  19.386  0.00  0.00    +0.000 A 
ATOM     18  C   UNL     1       1.675   8.883  18.111  0.00  0.00    +0.000 A 
ATOM     19  C   UNL     1       2.461   7.747  17.895  0.00  0.00    +0.000 A 
BRANCH  14  21
ATOM     20  C   UNL     1       3.751   5.278  17.517  0.00  0.00    +0.000 C 
ATOM     21  O   UNL     1       3.473   5.724  18.842  0.00  0.00    +0.000 OA
ENDBRANCH  14  21
ENDBRANCH  11  17
ENDBRANCH   1  11
BRANCH   8  22
ATOM     22  S   UNL     1      -1.283  14.046  23.443  0.00  0.00    +0.000 S 
ATOM     23  O   UNL     1      -0.789  12.697  23.311  0.00  0.00    +0.000 OA
ATOM     24  O   UNL     1      -0.861  14.874  24.552  0.00  0.00    +0.000 OA
BRANCH  22  25
ATOM     25  C   UNL     1      -3.060  13.962  23.497  0.00  0.00    +0.000 A 
ATOM     26  C   UNL     1      -3.708  12.734  23.314  0.00  0.00    +0.000 A 
ATOM     27  C   UNL     1      -5.098  12.659  23.436  0.00  0.00    +0.000 A 
ATOM     28  C   UNL     1      -5.827  13.810  23.773  0.00  0.00    +0.000 A 
ATOM     29  C   UNL     1      -5.173  15.031  23.993  0.00  0.00    +0.000 A 
ATOM     30  C   UNL     1      -3.785  15.105  23.856  0.00  0.00    +0.000 A 
BRANCH  28  31
ATOM     31  N   UNL     1      -7.288  13.734  23.908  0.00  0.00    +0.000 N 
ATOM     32  O   UNL     1      -7.916  14.801  23.973  0.00  0.00    +0.000 OA
ATOM     33  O   UNL     1      -7.805  12.610  23.955  0.00  0.00    +0.000 OA
ENDBRANCH  28  31
ENDBRANCH  22  25
ENDBRANCH   8  22
TORSDOF 6
ENDMDL
MODEL 2
REMARK VINA RESULT:      -7.1      0.552      1.044
REMARK  Name = 
REMARK  7 active torsions:
REMARK  status: ('A' for Active; 'I' for Inactive)
REMARK    1  A    between atoms: C_1  and  O_2
REMARK    2  A    between atoms: O_2  and  C_3
REMARK    3  A    between atoms: C_6  and  S_7
REMARK    4  A    between atoms: S_7  and  N_10
REMARK    5  A    between atoms: N_17  and  S_18
REMARK    6  A    between atoms: S_18  and  C_21
REMARK    7  A    between atoms: C_24  and  N_25
REMARK                            x       y       z     vdW  Elec       q    Type
REMARK                         _______ _______ _______ _____ _____    ______ ____
ROOT
ATOM      1  N   UNL     1       0.965  12.009  19.645  0.00  0.00    +0.000 NA
ATOM      2  C   UNL     1       1.788  12.263  18.444  0.00  0.00    +0.000 C 
ATOM      3  C   UNL     1       1.845  13.766  18.321  0.00  0.00    +0.000 C 
ATOM      4  O   UNL     1       0.657  14.238  18.957  0.00  0.00    +0.000 OA
ATOM      5  C   UNL     1       0.364  13.332  20.050  0.00  0.00    +0.000 C 
ATOM      6  C   UNL     1      -1.161  13.363  20.241  0.00  0.00    +0.000 C 
ATOM      7  C   UNL     1      -1.652  14.652  20.890  0.00  0.00    +0.000 C 
ATOM      8  N   UNL     1      -0.922  14.947  22.149  0.00  0.00    +0.000 NA
ATOM      9  C   UNL     1       0.521  15.127  21.852  0.00  0.00    +0.000 C 
ATOM     10  C   UNL     1       1.125  13.844  21.293  0.00  0.00    +0.000 C 
ENDROOT
BRANCH   1  11
ATOM     11  S   UNL     1      -0.033  10.637  19.569  0.00  0.00    +0.000 S 
ATOM     12  O   UNL     1      -0.858  10.763  18.381  0.00  0.00    +0.000 OA
ATOM     13  O   UNL     1      -0.630  10.416  20.864  0.00  0.00    +0.000 OA
BRANCH  11  17
ATOM     14  C   UNL     1       2.632   6.998  18.798  0.00  0.00    +0.000 A 
ATOM     15  C   UNL     1       2.150   7.260  20.085  0.00  0.00    +0.000 A 
ATOM     16  C   UNL     1       1.366   8.391  20.336  0.00  0.00    +0.000 A 
ATOM     17  C   UNL     1       1.091   9.281  19.295  0.00  0.00    +0.000 A 
ATOM     18  C   UNL     1       1.577   9.030  18.006  0.00  0.00    +0.000 A 
ATOM     19  C   UNL     1       2.353   7.893  17.763  0.00  0.00    +0.000 A 
BRANCH  14  21
ATOM     20  C   UNL     1       3.230   4.898  19.711  0.00  0.00    +0.000 C 
ATOM     21  O   UNL     1       3.381   5.860  18.671  0.00  0.00    +0.000 OA
ENDBRANCH  14  21
ENDBRANCH  11  17
ENDBRANCH   1  11
BRANCH   8  22
ATOM     22  S   UNL     1      -1.248  14.027  23.559  0.00  0.00    +0.000 S 
ATOM     23  O   UNL     1      -0.753  12.686  23.367  0.00  0.00    +0.000 OA
ATOM     24  O   UNL     1      -0.816  14.810  24.698  0.00  0.00    +0.000 OA
BRANCH  22  25
ATOM     25  C   UNL     1      -3.024  13.938  23.630  0.00  0.00    +0.000 A 
ATOM     26  C   UNL     1      -3.766  15.063  24.012  0.00  0.00    +0.000 A 
ATOM     27  C   UNL     1      -5.163  15.012  23.989  0.00  0.00    +0.000 A 
ATOM     28  C   UNL     1      -5.807  13.843  23.553  0.00  0.00    +0.000 A 
ATOM     29  C   UNL     1      -5.062  12.730  23.136  0.00  0.00    +0.000 A 
ATOM     30  C   UNL     1      -3.666  12.781  23.173  0.00  0.00    +0.000 A 
BRANCH  28  31
ATOM     31  N   UNL     1      -7.275  13.787  23.523  0.00  0.00    +0.000 N 
ATOM     32  O   UNL     1      -7.863  13.541  24.585  0.00  0.00    +0.000 OA
ATOM     33  O   UNL     1      -7.837  13.982  22.437  0.00  0.00    +0.000 OA
ENDBRANCH  28  31
ENDBRANCH  22  25
ENDBRANCH   8  22
TORSDOF 6
ENDMDL
MODEL 3
REMARK VINA RESULT:      -6.9      0.689      1.430
REMARK  Name = 
REMARK  7 active torsions:
REMARK  status: ('A' for Active; 'I' for Inactive)
REMARK    1  A    between atoms: C_1  and  O_2
REMARK    2  A    between atoms: O_2  and  C_3
REMARK    3  A    between atoms: C_6  and  S_7
REMARK    4  A    between atoms: S_7  and  N_10
REMARK    5  A    between atoms: N_17  and  S_18
REMARK    6  A    between atoms: S_18  and  C_21
REMARK    7  A    between atoms: C_24  and  N_25
REMARK                            x       y       z     vdW  Elec       q    Type
REMARK                         _______ _______ _______ _____ _____    ______ ____
ROOT
ATOM      1  N   UNL     1       0.938  12.287  19.648  0.00  0.00    +0.000 NA
ATOM      2  C   UNL     1       1.818  12.520  18.484  0.00  0.00    +0.000 C 
ATOM      3  C   UNL     1       2.041  14.012  18.456  0.00  0.00    +0.000 C 
ATOM      4  O   UNL     1       0.894  14.573  19.093  0.00  0.00    +0.000 OA
ATOM      5  C   UNL     1       0.472  13.642  20.121  0.00  0.00    +0.000 C 
ATOM      6  C   UNL     1      -1.046  13.828  20.279  0.00  0.00    +0.000 C 
ATOM      7  C   UNL     1      -1.412  15.123  20.995  0.00  0.00    +0.000 C 
ATOM      8  N   UNL     1      -0.692  15.261  22.286  0.00  0.00    +0.000 NA
ATOM      9  C   UNL     1       0.771  15.299  22.033  0.00  0.00    +0.000 C 
ATOM     10  C   UNL     1       1.248  13.992  21.410  0.00  0.00    +0.000 C 
ENDROOT
BRANCH   1  11
ATOM     11  S   UNL     1      -0.200  11.039  19.465  0.00  0.00    +0.000 S 
ATOM     12  O   UNL     1      -0.914  11.279  18.224  0.00  0.00    +0.000 OA
ATOM     13  O   UNL     1      -0.914  10.867  20.707  0.00  0.00    +0.000 OA
BRANCH  11  17
ATOM     14  C   UNL     1       2.544   7.414  18.949  0.00  0.00    +0.000 A 
ATOM     15  C   UNL     1       2.213   8.211  17.847  0.00  0.00    +0.000 A 
ATOM     16  C   UNL     1       1.344   9.298  17.990  0.00  0.00    +0.000 A 
ATOM     17  C   UNL     1       0.781   9.568  19.239  0.00  0.00    +0.000 A 
ATOM     18  C   UNL     1       1.102   8.770  20.345  0.00  0.00    +0.000 A 
ATOM     19  C   UNL     1       1.975   7.690  20.193  0.00  0.00    +0.000 A 
BRANCH  14  21
ATOM     20  C   UNL     1       4.157   6.490  17.484  0.00  0.00    +0.000 C 
ATOM     21  O   UNL     1       3.407   6.384  18.690  0.00  0.00    +0.000 OA
ENDBRANCH  14  21
ENDBRANCH  11  17
ENDBRANCH   1  11
BRANCH   8  22
ATOM     22  S   UNL     1      -1.156  14.301  23.629  0.00  0.00    +0.000 S 
ATOM     23  O   UNL     1      -0.659  12.960  23.439  0.00  0.00    +0.000 OA
ATOM     24  O   UNL     1      -0.823  15.041  24.828  0.00  0.00    +0.000 OA
BRANCH  22  25
ATOM     25  C   UNL     1      -2.932  14.232  23.533  0.00  0.00    +0.000 A 
ATOM     26  C   UNL     1      -3.692  15.375  23.813  0.00  0.00    +0.000 A 
ATOM     27  C   UNL     1      -5.081  15.339  23.659  0.00  0.00    +0.000 A 
ATOM     28  C   UNL     1      -5.696  14.165  23.194  0.00  0.00    +0.000 A 
ATOM     29  C   UNL     1      -4.929  13.034  22.879  0.00  0.00    +0.000 A 
ATOM     30  C   UNL     1      -3.543  13.070  23.047  0.00  0.00    +0.000 A 
BRANCH  28  31
ATOM     31  N   UNL     1      -7.155  14.125  23.026  0.00  0.00    +0.000 N 
ATOM     32  O   UNL     1      -7.601  13.582  22.005  0.00  0.00    +0.000 OA
ATOM     33  O   UNL     1      -7.852  14.641  23.910  0.00  0.00    +0.000 OA
ENDBRANCH  28  31
ENDBRANCH  22  25
ENDBRANCH   8  22
TORSDOF 6
ENDMDL
MODEL 4
REMARK VINA RESULT:      -6.8      4.371      8.778
REMARK  Name = 
REMARK  7 active torsions:
REMARK  status: ('A' for Active; 'I' for Inactive)
REMARK    1  A    between atoms: C_1  and  O_2
REMARK    2  A    between atoms: O_2  and  C_3
REMARK    3  A    between atoms: C_6  and  S_7
REMARK    4  A    between atoms: S_7  and  N_10
REMARK    5  A    between atoms: N_17  and  S_18
REMARK    6  A    between atoms: S_18  and  C_21
REMARK    7  A    between atoms: C_24  and  N_25
REMARK                            x       y       z     vdW  Elec       q    Type
REMARK                         _______ _______ _______ _____ _____    ______ ____
ROOT
ATOM      1  N   UNL     1      -0.032  13.420  21.058  0.00  0.00    +0.000 NA
ATOM      2  C   UNL     1      -0.936  13.342  22.225  0.00  0.00    +0.000 C 
ATOM      3  C   UNL     1      -0.649  14.589  23.025  0.00  0.00    +0.000 C 
ATOM      4  O   UNL     1       0.696  14.939  22.702  0.00  0.00    +0.000 OA
ATOM      5  C   UNL     1       0.920  14.561  21.321  0.00  0.00    +0.000 C 
ATOM      6  C   UNL     1       2.420  14.245  21.195  0.00  0.00    +0.000 C 
ATOM      7  C   UNL     1       3.293  15.494  21.223  0.00  0.00    +0.000 C 
ATOM      8  N   UNL     1       2.846  16.500  20.227  0.00  0.00    +0.000 NA
ATOM      9  C   UNL     1       1.461  16.927  20.545  0.00  0.00    +0.000 C 
ATOM     10  C   UNL     1       0.493  15.754  20.438  0.00  0.00    +0.000 C 
ENDROOT
BRANCH   1  11
ATOM     11  S   UNL     1       0.587  11.936  20.514  0.00  0.00    +0.000 S 
ATOM     12  O   UNL     1       0.616  11.032  21.650  0.00  0.00    +0.000 OA
ATOM     13  O   UNL     1       1.775  12.179  19.732  0.00  0.00    +0.000 OA
BRANCH  11  17
ATOM     14  C   UNL     1      -2.465  10.534  17.406  0.00  0.00    +0.000 A 
ATOM     15  C   UNL     1      -2.763  11.608  18.253  0.00  0.00    +0.000 A 
ATOM     16  C   UNL     1      -1.849  12.018  19.230  0.00  0.00    +0.000 A 
ATOM     17  C   UNL     1      -0.646  11.326  19.380  0.00  0.00    +0.000 A 
ATOM     18  C   UNL     1      -0.345  10.245  18.541  0.00  0.00    +0.000 A 
ATOM     19  C   UNL     1      -1.260   9.847  17.563  0.00  0.00    +0.000 A 
BRANCH  14  21
ATOM     20  C   UNL     1      -3.111  10.530  15.129  0.00  0.00    +0.000 C 
ATOM     21  O   UNL     1      -3.429  10.228  16.485  0.00  0.00    +0.000 OA
ENDBRANCH  14  21
ENDBRANCH  11  17
ENDBRANCH   1  11
BRANCH   8  22
ATOM     22  S   UNL     1       3.145  16.240  18.558  0.00  0.00    +0.000 S 
ATOM     23  O   UNL     1       2.495  15.017  18.153  0.00  0.00    +0.000 OA
ATOM     24  O   UNL     1       2.864  17.481  17.868  0.00  0.00    +0.000 OA
BRANCH  22  25
ATOM     25  C   UNL     1       4.901  15.971  18.458  0.00  0.00    +0.000 A 
ATOM     26  C   UNL     1       5.397  14.795  17.881  0.00  0.00    +0.000 A 
ATOM     27  C   UNL     1       6.777  14.624  17.733  0.00  0.00    +0.000 A 
ATOM     28  C   UNL     1       7.649  15.648  18.136  0.00  0.00    +0.000 A 
ATOM     29  C   UNL     1       7.149  16.840  18.680  0.00  0.00    +0.000 A 
ATOM     30  C   UNL     1       5.770  17.001  18.839  0.00  0.00    +0.000 A 
BRANCH  28  31
ATOM     31  N   UNL     1       9.099  15.473  17.977  0.00  0.00    +0.000 N 
ATOM     32  O   UNL     1       9.808  16.489  18.015  0.00  0.00    +0.000 OA
ATOM     33  O   UNL     1       9.527  14.324  17.809  0.00  0.00    +0.000 OA
ENDBRANCH  28  31
ENDBRANCH  22  25
ENDBRANCH   8  22
TORSDOF 6
ENDMDL
MODEL 5
REMARK VINA RESULT:      -6.7      1.606      8.779
REMARK  Name = 
REMARK  7 active torsions:
REMARK  status: ('A' for Active; 'I' for Inactive)
REMARK    1  A    between atoms: C_1  and  O_2
REMARK    2  A    between atoms: O_2  and  C_3
REMARK    3  A    between atoms: C_6  and  S_7
REMARK    4  A    between atoms: S_7  and  N_10
REMARK    5  A    between atoms: N_17  and  S_18
REMARK    6  A    between atoms: S_18  and  C_21
REMARK    7  A    between atoms: C_24  and  N_25
REMARK                            x       y       z     vdW  Elec       q    Type
REMARK                         _______ _______ _______ _____ _____    ______ ____
ROOT
ATOM      1  N   UNL     1      -0.851  15.048  21.668  0.00  0.00    +0.000 NA
ATOM      2  C   UNL     1      -0.628  16.510  21.699  0.00  0.00    +0.000 C 
ATOM      3  C   UNL     1       0.323  16.783  20.559  0.00  0.00    +0.000 C 
ATOM      4  O   UNL     1       1.046  15.566  20.376  0.00  0.00    +0.000 OA
ATOM      5  C   UNL     1       0.144  14.476  20.689  0.00  0.00    +0.000 C 
ATOM      6  C   UNL     1       1.021  13.320  21.199  0.00  0.00    +0.000 C 
ATOM      7  C   UNL     1       1.809  12.638  20.087  0.00  0.00    +0.000 C 
ATOM      8  N   UNL     1       0.929  12.223  18.965  0.00  0.00    +0.000 NA
ATOM      9  C   UNL     1       0.285  13.423  18.373  0.00  0.00    +0.000 C 
ATOM     10  C   UNL     1      -0.614  14.115  19.393  0.00  0.00    +0.000 C 
ENDROOT
BRANCH   1  11
ATOM     11  S   UNL     1      -1.039  14.307  23.185  0.00  0.00    +0.000 S 
ATOM     12  O   UNL     1      -0.592  15.254  24.191  0.00  0.00    +0.000 OA
ATOM     13  O   UNL     1      -0.490  12.974  23.128  0.00  0.00    +0.000 OA
BRANCH  11  17
ATOM     14  C   UNL     1      -5.523  13.822  23.951  0.00  0.00    +0.000 A 
ATOM     15  C   UNL     1      -4.716  12.697  23.752  0.00  0.00    +0.000 A 
ATOM     16  C   UNL     1      -3.351  12.839  23.480  0.00  0.00    +0.000 A 
ATOM     17  C   UNL     1      -2.801  14.118  23.376  0.00  0.00    +0.000 A 
ATOM     18  C   UNL     1      -3.605  15.249  23.565  0.00  0.00    +0.000 A 
ATOM     19  C   UNL     1      -4.966  15.097  23.843  0.00  0.00    +0.000 A 
BRANCH  14  21
ATOM     20  C   UNL     1      -7.400  12.440  23.538  0.00  0.00    +0.000 C 
ATOM     21  O   UNL     1      -6.840  13.560  24.217  0.00  0.00    +0.000 OA
ENDBRANCH  14  21
ENDBRANCH  11  17
ENDBRANCH   1  11
BRANCH   8  22
ATOM     22  S   UNL     1      -0.115  10.875  19.152  0.00  0.00    +0.000 S 
ATOM     23  O   UNL     1      -0.766  10.964  20.437  0.00  0.00    +0.000 OA
ATOM     24  O   UNL     1      -0.898  10.761  17.941  0.00  0.00    +0.000 OA
BRANCH  22  25
ATOM     25  C   UNL     1       0.979   9.472  19.202  0.00  0.00    +0.000 A 
ATOM     26  C   UNL     1       1.105   8.725  20.381  0.00  0.00    +0.000 A 
ATOM     27  C   UNL     1       1.903   7.578  20.392  0.00  0.00    +0.000 A 
ATOM     28  C   UNL     1       2.545   7.169  19.213  0.00  0.00    +0.000 A 
ATOM     29  C   UNL     1       2.389   7.897  18.024  0.00  0.00    +0.000 A 
ATOM     30  C   UNL     1       1.601   9.050  18.021  0.00  0.00    +0.000 A 
BRANCH  28  31
ATOM     31  N   UNL     1       3.382   5.960  19.220  0.00  0.00    +0.000 N 
ATOM     32  O   UNL     1       4.393   5.957  18.505  0.00  0.00    +0.000 OA
ATOM     33  O   UNL     1       3.022   5.015  19.934  0.00  0.00    +0.000 OA
ENDBRANCH  28  31
ENDBRANCH  22  25
ENDBRANCH   8  22
TORSDOF 6
ENDMDL
MODEL 6
REMARK VINA RESULT:      -6.7      2.527      3.495
REMARK  Name = 
REMARK  7 active torsions:
REMARK  status: ('A' for Active; 'I' for Inactive)
REMARK    1  A    between atoms: C_1  and  O_2
REMARK    2  A    between atoms: O_2  and  C_3
REMARK    3  A    between atoms: C_6  and  S_7
REMARK    4  A    between atoms: S_7  and  N_10
REMARK    5  A    between atoms: N_17  and  S_18
REMARK    6  A    between atoms: S_18  and  C_21
REMARK    7  A    between atoms: C_24  and  N_25
REMARK                            x       y       z     vdW  Elec       q    Type
REMARK                         _______ _______ _______ _____ _____    ______ ____
ROOT
ATOM      1  N   UNL     1       0.499  12.537  20.100  0.00  0.00    +0.000 NA
ATOM      2  C   UNL     1       1.201  12.604  18.801  0.00  0.00    +0.000 C 
ATOM      3  C   UNL     1       1.174  14.063  18.418  0.00  0.00    +0.000 C 
ATOM      4  O   UNL     1       0.025  14.600  19.073  0.00  0.00    +0.000 OA
ATOM      5  C   UNL     1      -0.127  13.890  20.328  0.00  0.00    +0.000 C 
ATOM      6  C   UNL     1      -1.630  13.904  20.654  0.00  0.00    +0.000 C 
ATOM      7  C   UNL     1      -2.124  15.270  21.116  0.00  0.00    +0.000 C 
ATOM      8  N   UNL     1      -1.302  15.803  22.231  0.00  0.00    +0.000 NA
ATOM      9  C   UNL     1       0.099  15.977  21.773  0.00  0.00    +0.000 C 
ATOM     10  C   UNL     1       0.713  14.635  21.388  0.00  0.00    +0.000 C 
ENDROOT
BRANCH   1  11
ATOM     11  S   UNL     1      -0.434  11.141  20.354  0.00  0.00    +0.000 S 
ATOM     12  O   UNL     1      -1.297  11.394  21.494  0.00  0.00    +0.000 OA
ATOM     13  O   UNL     1       0.430   9.985  20.323  0.00  0.00    +0.000 OA
BRANCH  11  17
ATOM     14  C   UNL     1      -3.247  10.650  16.779  0.00  0.00    +0.000 A 
ATOM     15  C   UNL     1      -2.031   9.961  16.819  0.00  0.00    +0.000 A 
ATOM     16  C   UNL     1      -1.149  10.135  17.891  0.00  0.00    +0.000 A 
ATOM     17  C   UNL     1      -1.476  11.030  18.912  0.00  0.00    +0.000 A 
ATOM     18  C   UNL     1      -2.688  11.729  18.874  0.00  0.00    +0.000 A 
ATOM     19  C   UNL     1      -3.566  11.544  17.803  0.00  0.00    +0.000 A 
BRANCH  14  21
ATOM     20  C   UNL     1      -3.336  10.092  14.481  0.00  0.00    +0.000 C 
ATOM     21  O   UNL     1      -4.031  10.396  15.687  0.00  0.00    +0.000 OA
ENDBRANCH  14  21
ENDBRANCH  11  17
ENDBRANCH   1  11
BRANCH   8  22
ATOM     22  S   UNL     1      -1.459  15.135  23.803  0.00  0.00    +0.000 S 
ATOM     23  O   UNL     1      -0.518  14.050  23.944  0.00  0.00    +0.000 OA
ATOM     24  O   UNL     1      -1.455  16.233  24.745  0.00  0.00    +0.000 OA
BRANCH  22  25
ATOM     25  C   UNL     1      -3.094  14.432  23.824  0.00  0.00    +0.000 A 
ATOM     26  C   UNL     1      -3.258  13.047  23.958  0.00  0.00    +0.000 A 
ATOM     27  C   UNL     1      -4.544  12.507  24.054  0.00  0.00    +0.000 A 
ATOM     28  C   UNL     1      -5.656  13.363  24.048  0.00  0.00    +0.000 A 
ATOM     29  C   UNL     1      -5.489  14.753  23.952  0.00  0.00    +0.000 A 
ATOM     30  C   UNL     1      -4.203  15.286  23.842  0.00  0.00    +0.000 A 
BRANCH  28  31
ATOM     31  N   UNL     1      -7.010  12.800  24.154  0.00  0.00    +0.000 N 
ATOM     32  O   UNL     1      -7.896  13.521  24.635  0.00  0.00    +0.000 OA
ATOM     33  O   UNL     1      -7.183  11.638  23.764  0.00  0.00    +0.000 OA
ENDBRANCH  28  31
ENDBRANCH  22  25
ENDBRANCH   8  22
TORSDOF 6
ENDMDL
MODEL 7
REMARK VINA RESULT:      -6.6      2.214      8.316
REMARK  Name = 
REMARK  7 active torsions:
REMARK  status: ('A' for Active; 'I' for Inactive)
REMARK    1  A    between atoms: C_1  and  O_2
REMARK    2  A    between atoms: O_2  and  C_3
REMARK    3  A    between atoms: C_6  and  S_7
REMARK    4  A    between atoms: S_7  and  N_10
REMARK    5  A    between atoms: N_17  and  S_18
REMARK    6  A    between atoms: S_18  and  C_21
REMARK    7  A    between atoms: C_24  and  N_25
REMARK                            x       y       z     vdW  Elec       q    Type
REMARK                         _______ _______ _______ _____ _____    ______ ____
ROOT
ATOM      1  N   UNL     1      -0.499  15.964  20.647  0.00  0.00    +0.000 NA
ATOM      2  C   UNL     1      -0.063  17.343  20.343  0.00  0.00    +0.000 C 
ATOM      3  C   UNL     1       1.163  17.183  19.478  0.00  0.00    +0.000 C 
ATOM      4  O   UNL     1       1.709  15.913  19.835  0.00  0.00    +0.000 OA
ATOM      5  C   UNL     1       0.598  15.045  20.170  0.00  0.00    +0.000 C 
ATOM      6  C   UNL     1       1.134  14.029  21.192  0.00  0.00    +0.000 C 
ATOM      7  C   UNL     1       2.047  12.982  20.565  0.00  0.00    +0.000 C 
ATOM      8  N   UNL     1       1.407  12.321  19.400  0.00  0.00    +0.000 NA
ATOM      9  C   UNL     1       1.120  13.335  18.354  0.00  0.00    +0.000 C 
ATOM     10  C   UNL     1       0.125  14.372  18.863  0.00  0.00    +0.000 C 
ENDROOT
BRANCH   1  11
ATOM     11  S   UNL     1      -1.158  15.731  22.195  0.00  0.00    +0.000 S 
ATOM     12  O   UNL     1      -1.750  16.990  22.610  0.00  0.00    +0.000 OA
ATOM     13  O   UNL     1      -0.186  15.062  23.025  0.00  0.00    +0.000 OA
BRANCH  11  17
ATOM     14  C   UNL     1      -4.729  12.909  21.731  0.00  0.00    +0.000 A 
ATOM     15  C   UNL     1      -3.740  12.644  22.684  0.00  0.00    +0.000 A 
ATOM     16  C   UNL     1      -2.627  13.482  22.806  0.00  0.00    +0.000 A 
ATOM     17  C   UNL     1      -2.490  14.572  21.945  0.00  0.00    +0.000 A 
ATOM     18  C   UNL     1      -3.472  14.839  20.983  0.00  0.00    +0.000 A 
ATOM     19  C   UNL     1      -4.584  14.000  20.873  0.00  0.00    +0.000 A 
BRANCH  14  21
ATOM     20  C   UNL     1      -7.009  12.510  22.231  0.00  0.00    +0.000 C 
ATOM     21  O   UNL     1      -5.775  12.026  21.708  0.00  0.00    +0.000 OA
ENDBRANCH  14  21
ENDBRANCH  11  17
ENDBRANCH   1  11
BRANCH   8  22
ATOM     22  S   UNL     1       0.150  11.181  19.649  0.00  0.00    +0.000 S 
ATOM     23  O   UNL     1      -0.304  11.278  21.015  0.00  0.00    +0.000 OA
ATOM     24  O   UNL     1      -0.787  11.322  18.555  0.00  0.00    +0.000 OA
BRANCH  22  25
ATOM     25  C   UNL     1       0.943   9.599  19.460  0.00  0.00    +0.000 A 
ATOM     26  C   UNL     1       1.563   9.269  18.248  0.00  0.00    +0.000 A 
ATOM     27  C   UNL     1       2.253   8.058  18.130  0.00  0.00    +0.000 A 
ATOM     28  C   UNL     1       2.343   7.201  19.238  0.00  0.00    +0.000 A 
ATOM     29  C   UNL     1       1.752   7.551  20.461  0.00  0.00    +0.000 A 
ATOM     30  C   UNL     1       1.053   8.755  20.571  0.00  0.00    +0.000 A 
BRANCH  28  31
ATOM     31  N   UNL     1       3.071   5.930  19.119  0.00  0.00    +0.000 N 
ATOM     32  O   UNL     1       3.069   5.173  20.100  0.00  0.00    +0.000 OA
ATOM     33  O   UNL     1       3.649   5.695  18.050  0.00  0.00    +0.000 OA
ENDBRANCH  28  31
ENDBRANCH  22  25
ENDBRANCH   8  22
TORSDOF 6
ENDMDL
MODEL 8
REMARK VINA RESULT:      -6.5      4.479      8.970
REMARK  Name = 
REMARK  7 active torsions:
REMARK  status: ('A' for Active; 'I' for Inactive)
REMARK    1  A    between atoms: C_1  and  O_2
REMARK    2  A    between atoms: O_2  and  C_3
REMARK    3  A    between atoms: C_6  and  S_7
REMARK    4  A    between atoms: S_7  and  N_10
REMARK    5  A    between atoms: N_17  and  S_18
REMARK    6  A    between atoms: S_18  and  C_21
REMARK    7  A    between atoms: C_24  and  N_25
REMARK                            x       y       z     vdW  Elec       q    Type
REMARK                         _______ _______ _______ _____ _____    ______ ____
ROOT
ATOM      1  N   UNL     1       0.220  13.503  20.948  0.00  0.00    +0.000 NA
ATOM      2  C   UNL     1      -0.693  13.453  22.110  0.00  0.00    +0.000 C 
ATOM      3  C   UNL     1      -0.384  14.700  22.902  0.00  0.00    +0.000 C 
ATOM      4  O   UNL     1       0.970  15.020  22.583  0.00  0.00    +0.000 OA
ATOM      5  C   UNL     1       1.194  14.625  21.206  0.00  0.00    +0.000 C 
ATOM      6  C   UNL     1       2.687  14.277  21.092  0.00  0.00    +0.000 C 
ATOM      7  C   UNL     1       3.586  15.508  21.115  0.00  0.00    +0.000 C 
ATOM      8  N   UNL     1       3.166  16.515  20.108  0.00  0.00    +0.000 NA
ATOM      9  C   UNL     1       1.788  16.974  20.415  0.00  0.00    +0.000 C 
ATOM     10  C   UNL     1       0.796  15.820  20.312  0.00  0.00    +0.000 C 
ENDROOT
BRANCH   1  11
ATOM     11  S   UNL     1       0.810  12.001  20.419  0.00  0.00    +0.000 S 
ATOM     12  O   UNL     1       0.854  11.119  21.571  0.00  0.00    +0.000 OA
ATOM     13  O   UNL     1       1.984  12.216  19.607  0.00  0.00    +0.000 OA
BRANCH  11  17
ATOM     14  C   UNL     1      -2.291  10.530  17.394  0.00  0.00    +0.000 A 
ATOM     15  C   UNL     1      -2.465  11.758  18.041  0.00  0.00    +0.000 A 
ATOM     16  C   UNL     1      -1.540  12.197  18.995  0.00  0.00    +0.000 A 
ATOM     17  C   UNL     1      -0.453  11.384  19.323  0.00  0.00    +0.000 A 
ATOM     18  C   UNL     1      -0.278  10.149  18.685  0.00  0.00    +0.000 A 
ATOM     19  C   UNL     1      -1.203   9.722  17.729  0.00  0.00    +0.000 A 
BRANCH  14  21
ATOM     20  C   UNL     1      -4.330  11.135  16.354  0.00  0.00    +0.000 C 
ATOM     21  O   UNL     1      -3.255  10.208  16.476  0.00  0.00    +0.000 OA
ENDBRANCH  14  21
ENDBRANCH  11  17
ENDBRANCH   1  11
BRANCH   8  22
ATOM     22  S   UNL     1       3.468  16.235  18.443  0.00  0.00    +0.000 S 
ATOM     23  O   UNL     1       2.827  15.003  18.053  0.00  0.00    +0.000 OA
ATOM     24  O   UNL     1       3.179  17.465  17.737  0.00  0.00    +0.000 OA
BRANCH  22  25
ATOM     25  C   UNL     1       5.226  15.978  18.349  0.00  0.00    +0.000 A 
ATOM     26  C   UNL     1       6.102  16.935  18.877  0.00  0.00    +0.000 A 
ATOM     27  C   UNL     1       7.479  16.691  18.872  0.00  0.00    +0.000 A 
ATOM     28  C   UNL     1       7.966  15.476  18.365  0.00  0.00    +0.000 A 
ATOM     29  C   UNL     1       7.085  14.504  17.870  0.00  0.00    +0.000 A 
ATOM     30  C   UNL     1       5.711  14.757  17.865  0.00  0.00    +0.000 A 
BRANCH  28  31
ATOM     31  N   UNL     1       9.412  15.215  18.363  0.00  0.00    +0.000 N 
ATOM     32  O   UNL     1       9.827  14.286  17.656  0.00  0.00    +0.000 OA
ATOM     33  O   UNL     1      10.129  15.933  19.073  0.00  0.00    +0.000 OA
ENDBRANCH  28  31
ENDBRANCH  22  25
ENDBRANCH   8  22
TORSDOF 6
ENDMDL
MODEL 9
REMARK VINA RESULT:      -6.5      3.905      8.052
REMARK  Name = 
REMARK  7 active torsions:
REMARK  status: ('A' for Active; 'I' for Inactive)
REMARK    1  A    between atoms: C_1  and  O_2
REMARK    2  A    between atoms: O_2  and  C_3
REMARK    3  A    between atoms: C_6  and  S_7
REMARK    4  A    between atoms: S_7  and  N_10
REMARK    5  A    between atoms: N_17  and  S_18
REMARK    6  A    between atoms: S_18  and  C_21
REMARK    7  A    between atoms: C_24  and  N_25
REMARK                            x       y       z     vdW  Elec       q    Type
REMARK                         _______ _______ _______ _____ _____    ______ ____
ROOT
ATOM      1  N   UNL     1      -0.594  13.353  21.636  0.00  0.00    +0.000 NA
ATOM      2  C   UNL     1      -1.339  13.023  22.869  0.00  0.00    +0.000 C 
ATOM      3  C   UNL     1      -1.207  14.245  23.744  0.00  0.00    +0.000 C 
ATOM      4  O   UNL     1       0.008  14.870  23.331  0.00  0.00    +0.000 OA
ATOM      5  C   UNL     1       0.152  14.636  21.908  0.00  0.00    +0.000 C 
ATOM      6  C   UNL     1       1.662  14.626  21.620  0.00  0.00    +0.000 C 
ATOM      7  C   UNL     1       2.286  16.016  21.677  0.00  0.00    +0.000 C 
ATOM      8  N   UNL     1       1.557  16.981  20.816  0.00  0.00    +0.000 NA
ATOM      9  C   UNL     1       0.157  17.109  21.294  0.00  0.00    +0.000 C 
ATOM     10  C   UNL     1      -0.581  15.781  21.174  0.00  0.00    +0.000 C 
ENDROOT
BRANCH   1  11
ATOM     11  S   UNL     1       0.230  12.056  20.911  0.00  0.00    +0.000 S 
ATOM     12  O   UNL     1       0.383  11.021  21.917  0.00  0.00    +0.000 OA
ATOM     13  O   UNL     1       1.374  12.567  20.195  0.00  0.00    +0.000 OA
BRANCH  11  17
ATOM     14  C   UNL     1      -2.565  10.658  17.569  0.00  0.00    +0.000 A 
ATOM     15  C   UNL     1      -2.979  11.651  18.465  0.00  0.00    +0.000 A 
ATOM     16  C   UNL     1      -2.144  12.056  19.512  0.00  0.00    +0.000 A 
ATOM     17  C   UNL     1      -0.902  11.440  19.679  0.00  0.00    +0.000 A 
ATOM     18  C   UNL     1      -0.485  10.440  18.791  0.00  0.00    +0.000 A 
ATOM     19  C   UNL     1      -1.323  10.047  17.744  0.00  0.00    +0.000 A 
BRANCH  14  21
ATOM     20  C   UNL     1      -3.008  10.551  15.246  0.00  0.00    +0.000 C 
ATOM     21  O   UNL     1      -3.461  10.349  16.582  0.00  0.00    +0.000 OA
ENDBRANCH  14  21
ENDBRANCH  11  17
ENDBRANCH   1  11
BRANCH   8  22
ATOM     22  S   UNL     1       1.720  16.897  19.111  0.00  0.00    +0.000 S 
ATOM     23  O   UNL     1       0.794  15.915  18.601  0.00  0.00    +0.000 OA
ATOM     24  O   UNL     1       1.702  18.253  18.605  0.00  0.00    +0.000 OA
BRANCH  22  25
ATOM     25  C   UNL     1       3.364  16.265  18.854  0.00  0.00    +0.000 A 
ATOM     26  C   UNL     1       3.546  15.021  18.236  0.00  0.00    +0.000 A 
ATOM     27  C   UNL     1       4.840  14.564  17.965  0.00  0.00    +0.000 A 
ATOM     28  C   UNL     1       5.941  15.373  18.286  0.00  0.00    +0.000 A 
ATOM     29  C   UNL     1       5.756  16.634  18.871  0.00  0.00    +0.000 A 
ATOM     30  C   UNL     1       4.462  17.080  19.152  0.00  0.00    +0.000 A 
BRANCH  28  31
ATOM     31  N   UNL     1       7.302  14.899  17.997  0.00  0.00    +0.000 N 
ATOM     32  O   UNL     1       8.236  15.696  18.165  0.00  0.00    +0.000 OA
ATOM     33  O   UNL     1       7.434  13.735  17.598  0.00  0.00    +0.000 OA
ENDBRANCH  28  31
ENDBRANCH  22  25
ENDBRANCH   8  22
TORSDOF 6
ENDMDL
