MODEL 1
REMARK VINA RESULT:      -8.7      0.000      0.000
REMARK  Name = 
REMARK  9 active torsions:
REMARK  status: ('A' for Active; 'I' for Inactive)
REMARK    1  A    between atoms: C_1  and  O_2
REMARK    2  A    between atoms: O_2  and  C_3
REMARK    3  A    between atoms: C_6  and  C_7
REMARK    4  A    between atoms: C_9  and  N_10
REMARK    5  A    between atoms: C_11  and  C_13
REMARK    6  A    between atoms: C_13  and  N_14
REMARK    7  A    between atoms: N_14  and  C_15
REMARK    8  A    between atoms: C_15  and  C_16
REMARK    9  A    between atoms: C_15  and  C_22
REMARK                            x       y       z     vdW  Elec       q    Type
REMARK                         _______ _______ _______ _____ _____    ______ ____
ROOT
ATOM      1  N   UNL     1       2.648   7.608  18.852  0.00  0.00    +0.000 NA
ATOM      2  H   UNL     1       1.935   7.351  19.538  0.00  0.00    +0.000 HD
ENDROOT
BRANCH   1   3
ATOM      3  C   UNL     1       2.087   8.688  18.016  0.00  0.00    +0.000 C 
BRANCH   3   5
ATOM      4  N   UNL     1       0.115  10.136  17.907  0.00  0.00    +0.000 N 
ATOM      5  C   UNL     1       0.971   9.438  18.749  0.00  0.00    +0.000 C 
ATOM      6  O   UNL     1       0.859   9.309  19.968  0.00  0.00    +0.000 OA
ATOM      7  H   UNL     1       0.287  10.094  16.907  0.00  0.00    +0.000 HD
BRANCH   4  14
ATOM      8  C   UNL     1      -2.259  10.556  17.516  0.00  0.00    +0.000 A 
ATOM      9  C   UNL     1      -3.469  11.146  17.909  0.00  0.00    +0.000 A 
ATOM     10  C   UNL     1      -3.517  12.012  19.002  0.00  0.00    +0.000 A 
ATOM     11  C   UNL     1      -2.359  12.289  19.728  0.00  0.00    +0.000 A 
ATOM     12  C   UNL     1      -2.366  13.243  20.882  0.00  0.00    +0.000 C 
ATOM     13  C   UNL     1      -1.159  11.663  19.362  0.00  0.00    +0.000 A 
ATOM     14  C   UNL     1      -1.090  10.792  18.274  0.00  0.00    +0.000 A 
BRANCH   8  16
ATOM     15  C   UNL     1      -2.843  10.157  15.247  0.00  0.00    +0.000 C 
ATOM     16  O   UNL     1      -2.144   9.731  16.419  0.00  0.00    +0.000 OA
ENDBRANCH   8  16
ENDBRANCH   4  14
ENDBRANCH   3   5
ENDBRANCH   1   3
BRANCH   1  17
ATOM     17  C   UNL     1       2.992   6.378  18.103  0.00  0.00    +0.000 C 
BRANCH  17  18
ATOM     18  C   UNL     1       4.500   6.142  18.058  0.00  0.00    +0.000 A 
ATOM     19  C   UNL     1       5.167   5.406  19.050  0.00  0.00    +0.000 A 
ATOM     20  C   UNL     1       6.562   5.364  19.098  0.00  0.00    +0.000 A 
ATOM     21  C   UNL     1       7.315   6.070  18.165  0.00  0.00    +0.000 A 
ATOM     22  C   UNL     1       6.674   6.772  17.150  0.00  0.00    +0.000 A 
ATOM     23  C   UNL     1       5.278   6.784  17.079  0.00  0.00    +0.000 A 
ENDBRANCH  17  18
BRANCH  17  24
ATOM     24  C   UNL     1       2.165   5.210  18.642  0.00  0.00    +0.000 A 
ATOM     25  C   UNL     1       1.792   5.184  20.000  0.00  0.00    +0.000 A 
ATOM     26  C   UNL     1       1.161   4.062  20.546  0.00  0.00    +0.000 A 
ATOM     27  C   UNL     1       0.881   2.959  19.744  0.00  0.00    +0.000 A 
ATOM     28  C   UNL     1       1.221   2.978  18.393  0.00  0.00    +0.000 A 
ATOM     29  C   UNL     1       1.858   4.093  17.848  0.00  0.00    +0.000 A 
ENDBRANCH  17  24
ENDBRANCH   1  17
TORSDOF 7
ENDMDL
MODEL 2
REMARK VINA RESULT:      -8.6      0.820      1.145
REMARK  Name = 
REMARK  9 active torsions:
REMARK  status: ('A' for Active; 'I' for Inactive)
REMARK    1  A    between atoms: C_1  and  O_2
REMARK    2  A    between atoms: O_2  and  C_3
REMARK    3  A    between atoms: C_6  and  C_7
REMARK    4  A    between atoms: C_9  and  N_10
REMARK    5  A    between atoms: C_11  and  C_13
REMARK    6  A    between atoms: C_13  and  N_14
REMARK    7  A    between atoms: N_14  and  C_15
REMARK    8  A    between atoms: C_15  and  C_16
REMARK    9  A    between atoms: C_15  and  C_22
REMARK                            x       y       z     vdW  Elec       q    Type
REMARK                         _______ _______ _______ _____ _____    ______ ____
ROOT
ATOM      1  N   UNL     1       3.000   7.377  18.631  0.00  0.00    +0.000 NA
ATOM      2  H   UNL     1       2.390   7.190  19.429  0.00  0.00    +0.000 HD
ENDROOT
BRANCH   1   3
ATOM      3  C   UNL     1       2.422   8.516  17.890  0.00  0.00    +0.000 C 
BRANCH   3   5
ATOM      4  N   UNL     1       0.607  10.158  18.004  0.00  0.00    +0.000 N 
ATOM      5  C   UNL     1       1.366   9.245  18.726  0.00  0.00    +0.000 C 
ATOM      6  O   UNL     1       1.207   8.930  19.905  0.00  0.00    +0.000 OA
ATOM      7  H   UNL     1       0.803  10.264  17.013  0.00  0.00    +0.000 HD
BRANCH   4  14
ATOM      8  C   UNL     1      -1.790  10.601  17.868  0.00  0.00    +0.000 A 
ATOM      9  C   UNL     1      -2.936  11.245  18.358  0.00  0.00    +0.000 A 
ATOM     10  C   UNL     1      -2.840  12.187  19.381  0.00  0.00    +0.000 A 
ATOM     11  C   UNL     1      -1.600  12.490  19.942  0.00  0.00    +0.000 A 
ATOM     12  C   UNL     1      -1.455  13.524  21.015  0.00  0.00    +0.000 C 
ATOM     13  C   UNL     1      -0.462  11.813  19.483  0.00  0.00    +0.000 A 
ATOM     14  C   UNL     1      -0.535  10.865  18.461  0.00  0.00    +0.000 A 
BRANCH   8  16
ATOM     15  C   UNL     1      -2.704  10.018  15.753  0.00  0.00    +0.000 C 
ATOM     16  O   UNL     1      -1.819   9.698  16.829  0.00  0.00    +0.000 OA
ENDBRANCH   8  16
ENDBRANCH   4  14
ENDBRANCH   3   5
ENDBRANCH   1   3
BRANCH   1  17
ATOM     17  C   UNL     1       3.084   6.124  17.847  0.00  0.00    +0.000 C 
BRANCH  17  18
ATOM     18  C   UNL     1       4.530   5.727  17.561  0.00  0.00    +0.000 A 
ATOM     19  C   UNL     1       4.959   5.353  16.278  0.00  0.00    +0.000 A 
ATOM     20  C   UNL     1       6.229   4.809  16.075  0.00  0.00    +0.000 A 
ATOM     21  C   UNL     1       7.087   4.614  17.153  0.00  0.00    +0.000 A 
ATOM     22  C   UNL     1       6.698   5.016  18.427  0.00  0.00    +0.000 A 
ATOM     23  C   UNL     1       5.441   5.595  18.625  0.00  0.00    +0.000 A 
ENDBRANCH  17  18
BRANCH  17  24
ATOM     24  C   UNL     1       2.233   5.047  18.521  0.00  0.00    +0.000 A 
ATOM     25  C   UNL     1       1.882   5.181  19.878  0.00  0.00    +0.000 A 
ATOM     26  C   UNL     1       1.229   4.145  20.552  0.00  0.00    +0.000 A 
ATOM     27  C   UNL     1       0.903   2.970  19.880  0.00  0.00    +0.000 A 
ATOM     28  C   UNL     1       1.221   2.832  18.531  0.00  0.00    +0.000 A 
ATOM     29  C   UNL     1       1.880   3.861  17.858  0.00  0.00    +0.000 A 
ENDBRANCH  17  24
ENDBRANCH   1  17
TORSDOF 7
ENDMDL
MODEL 3
REMARK VINA RESULT:      -8.5      1.166      1.254
REMARK  Name = 
REMARK  9 active torsions:
REMARK  status: ('A' for Active; 'I' for Inactive)
REMARK    1  A    between atoms: C_1  and  O_2
REMARK    2  A    between atoms: O_2  and  C_3
REMARK    3  A    between atoms: C_6  and  C_7
REMARK    4  A    between atoms: C_9  and  N_10
REMARK    5  A    between atoms: C_11  and  C_13
REMARK    6  A    between atoms: C_13  and  N_14
REMARK    7  A    between atoms: N_14  and  C_15
REMARK    8  A    between atoms: C_15  and  C_16
REMARK    9  A    between atoms: C_15  and  C_22
REMARK                            x       y       z     vdW  Elec       q    Type
REMARK                         _______ _______ _______ _____ _____    ______ ____
ROOT
ATOM      1  N   UNL     1       3.277   7.160  18.418  0.00  0.00    +0.000 NA
ATOM      2  H   UNL     1       2.839   7.054  19.336  0.00  0.00    +0.000 HD
ENDROOT
BRANCH   1   3
ATOM      3  C   UNL     1       2.520   8.194  17.684  0.00  0.00    +0.000 C 
BRANCH   3   5
ATOM      4  N   UNL     1       0.969  10.062  18.013  0.00  0.00    +0.000 N 
ATOM      5  C   UNL     1       1.624   9.002  18.628  0.00  0.00    +0.000 C 
ATOM      6  O   UNL     1       1.481   8.627  19.792  0.00  0.00    +0.000 OA
ATOM      7  H   UNL     1       1.128  10.211  17.021  0.00  0.00    +0.000 HD
BRANCH   4  14
ATOM      8  C   UNL     1      -1.367  10.764  18.128  0.00  0.00    +0.000 A 
ATOM      9  C   UNL     1      -2.377  11.527  18.732  0.00  0.00    +0.000 A 
ATOM     10  C   UNL     1      -2.072  12.450  19.732  0.00  0.00    +0.000 A 
ATOM     11  C   UNL     1      -0.753  12.614  20.156  0.00  0.00    +0.000 A 
ATOM     12  C   UNL     1      -0.384  13.621  21.199  0.00  0.00    +0.000 C 
ATOM     13  C   UNL     1       0.249  11.819  19.584  0.00  0.00    +0.000 A 
ATOM     14  C   UNL     1      -0.035  10.887  18.584  0.00  0.00    +0.000 A 
BRANCH   8  16
ATOM     15  C   UNL     1      -2.947   9.830  16.619  0.00  0.00    +0.000 C 
ATOM     16  O   UNL     1      -1.604   9.873  17.105  0.00  0.00    +0.000 OA
ENDBRANCH   8  16
ENDBRANCH   4  14
ENDBRANCH   3   5
ENDBRANCH   1   3
BRANCH   1  17
ATOM     17  C   UNL     1       3.262   5.827  17.774  0.00  0.00    +0.000 C 
BRANCH  17  18
ATOM     18  C   UNL     1       4.672   5.277  17.571  0.00  0.00    +0.000 A 
ATOM     19  C   UNL     1       5.696   5.496  18.506  0.00  0.00    +0.000 A 
ATOM     20  C   UNL     1       7.019   5.155  18.215  0.00  0.00    +0.000 A 
ATOM     21  C   UNL     1       7.344   4.603  16.980  0.00  0.00    +0.000 A 
ATOM     22  C   UNL     1       6.338   4.340  16.055  0.00  0.00    +0.000 A 
ATOM     23  C   UNL     1       5.009   4.647  16.360  0.00  0.00    +0.000 A 
ENDBRANCH  17  18
BRANCH  17  24
ATOM     24  C   UNL     1       2.306   4.907  18.536  0.00  0.00    +0.000 A 
ATOM     25  C   UNL     1       2.065   5.129  19.905  0.00  0.00    +0.000 A 
ATOM     26  C   UNL     1       1.311   4.221  20.653  0.00  0.00    +0.000 A 
ATOM     27  C   UNL     1       0.775   3.089  20.044  0.00  0.00    +0.000 A 
ATOM     28  C   UNL     1       0.983   2.868  18.685  0.00  0.00    +0.000 A 
ATOM     29  C   UNL     1       1.743   3.769  17.938  0.00  0.00    +0.000 A 
ENDBRANCH  17  24
ENDBRANCH   1  17
TORSDOF 7
ENDMDL
MODEL 4
REMARK VINA RESULT:      -8.5      1.446      2.552
REMARK  Name = 
REMARK  9 active torsions:
REMARK  status: ('A' for Active; 'I' for Inactive)
REMARK    1  A    between atoms: C_1  and  O_2
REMARK    2  A    between atoms: O_2  and  C_3
REMARK    3  A    between atoms: C_6  and  C_7
REMARK    4  A    between atoms: C_9  and  N_10
REMARK    5  A    between atoms: C_11  and  C_13
REMARK    6  A    between atoms: C_13  and  N_14
REMARK    7  A    between atoms: N_14  and  C_15
REMARK    8  A    between atoms: C_15  and  C_16
REMARK    9  A    between atoms: C_15  and  C_22
REMARK                            x       y       z     vdW  Elec       q    Type
REMARK                         _______ _______ _______ _____ _____    ______ ____
ROOT
ATOM      1  N   UNL     1       3.075   7.076  18.650  0.00  0.00    +0.000 NA
ATOM      2  H   UNL     1       2.376   6.904  19.375  0.00  0.00    +0.000 HD
ENDROOT
BRANCH   1   3
ATOM      3  C   UNL     1       2.644   8.268  17.894  0.00  0.00    +0.000 C 
BRANCH   3   5
ATOM      4  N   UNL     1       0.801   9.880  17.820  0.00  0.00    +0.000 N 
ATOM      5  C   UNL     1       1.534   9.024  18.631  0.00  0.00    +0.000 C 
ATOM      6  O   UNL     1       1.318   8.771  19.817  0.00  0.00    +0.000 OA
ATOM      7  H   UNL     1       1.046   9.934  16.836  0.00  0.00    +0.000 HD
BRANCH   4  14
ATOM      8  C   UNL     1      -0.259  11.772  18.942  0.00  0.00    +0.000 A 
ATOM      9  C   UNL     1      -1.408  12.517  19.244  0.00  0.00    +0.000 A 
ATOM     10  C   UNL     1      -2.669  12.071  18.850  0.00  0.00    +0.000 A 
ATOM     11  C   UNL     1      -2.801  10.880  18.136  0.00  0.00    +0.000 A 
ATOM     12  C   UNL     1      -4.141  10.352  17.731  0.00  0.00    +0.000 C 
ATOM     13  C   UNL     1      -1.648  10.160  17.796  0.00  0.00    +0.000 A 
ATOM     14  C   UNL     1      -0.375  10.590  18.177  0.00  0.00    +0.000 A 
BRANCH   8  16
ATOM     15  C   UNL     1       1.448  13.425  18.904  0.00  0.00    +0.000 C 
ATOM     16  O   UNL     1       1.005  12.141  19.345  0.00  0.00    +0.000 OA
ENDBRANCH   8  16
ENDBRANCH   4  14
ENDBRANCH   3   5
ENDBRANCH   1   3
BRANCH   1  17
ATOM     17  C   UNL     1       3.168   5.843  17.836  0.00  0.00    +0.000 C 
BRANCH  17  18
ATOM     18  C   UNL     1       4.610   5.528  17.441  0.00  0.00    +0.000 A 
ATOM     19  C   UNL     1       4.987   5.329  16.104  0.00  0.00    +0.000 A 
ATOM     20  C   UNL     1       6.260   4.854  15.780  0.00  0.00    +0.000 A 
ATOM     21  C   UNL     1       7.172   4.555  16.787  0.00  0.00    +0.000 A 
ATOM     22  C   UNL     1       6.832   4.784  18.116  0.00  0.00    +0.000 A 
ATOM     23  C   UNL     1       5.572   5.295  18.440  0.00  0.00    +0.000 A 
ENDBRANCH  17  18
BRANCH  17  24
ATOM     24  C   UNL     1       2.425   4.710  18.547  0.00  0.00    +0.000 A 
ATOM     25  C   UNL     1       2.196   3.494  17.875  0.00  0.00    +0.000 A 
ATOM     26  C   UNL     1       1.399   2.500  18.449  0.00  0.00    +0.000 A 
ATOM     27  C   UNL     1       0.832   2.699  19.706  0.00  0.00    +0.000 A 
ATOM     28  C   UNL     1       1.070   3.885  20.395  0.00  0.00    +0.000 A 
ATOM     29  C   UNL     1       1.859   4.882  19.820  0.00  0.00    +0.000 A 
ENDBRANCH  17  24
ENDBRANCH   1  17
TORSDOF 7
ENDMDL
MODEL 5
REMARK VINA RESULT:      -8.4      1.352      2.160
REMARK  Name = 
REMARK  9 active torsions:
REMARK  status: ('A' for Active; 'I' for Inactive)
REMARK    1  A    between atoms: C_1  and  O_2
REMARK    2  A    between atoms: O_2  and  C_3
REMARK    3  A    between atoms: C_6  and  C_7
REMARK    4  A    between atoms: C_9  and  N_10
REMARK    5  A    between atoms: C_11  and  C_13
REMARK    6  A    between atoms: C_13  and  N_14
REMARK    7  A    between atoms: N_14  and  C_15
REMARK    8  A    between atoms: C_15  and  C_16
REMARK    9  A    between atoms: C_15  and  C_22
REMARK                            x       y       z     vdW  Elec       q    Type
REMARK                         _______ _______ _______ _____ _____    ______ ____
ROOT
ATOM      1  N   UNL     1       2.817   7.029  18.695  0.00  0.00    +0.000 NA
ATOM      2  H   UNL     1       1.925   6.657  19.029  0.00  0.00    +0.000 HD
ENDROOT
BRANCH   1   3
ATOM      3  C   UNL     1       2.532   8.294  17.989  0.00  0.00    +0.000 C 
BRANCH   3   5
ATOM      4  N   UNL     1       0.689   9.902  17.855  0.00  0.00    +0.000 N 
ATOM      5  C   UNL     1       1.439   9.095  18.701  0.00  0.00    +0.000 C 
ATOM      6  O   UNL     1       1.247   8.915  19.904  0.00  0.00    +0.000 OA
ATOM      7  H   UNL     1       0.915   9.895  16.864  0.00  0.00    +0.000 HD
BRANCH   4  14
ATOM      8  C   UNL     1      -0.346  11.851  18.899  0.00  0.00    +0.000 A 
ATOM      9  C   UNL     1      -1.487  12.616  19.179  0.00  0.00    +0.000 A 
ATOM     10  C   UNL     1      -2.755  12.160  18.822  0.00  0.00    +0.000 A 
ATOM     11  C   UNL     1      -2.902  10.938  18.165  0.00  0.00    +0.000 A 
ATOM     12  C   UNL     1      -4.250  10.399  17.802  0.00  0.00    +0.000 C 
ATOM     13  C   UNL     1      -1.757  10.195  17.846  0.00  0.00    +0.000 A 
ATOM     14  C   UNL     1      -0.478  10.635  18.192  0.00  0.00    +0.000 A 
BRANCH   8  16
ATOM     15  C   UNL     1       1.354  13.509  18.799  0.00  0.00    +0.000 C 
ATOM     16  O   UNL     1       0.925  12.230  19.270  0.00  0.00    +0.000 OA
ENDBRANCH   8  16
ENDBRANCH   4  14
ENDBRANCH   3   5
ENDBRANCH   1   3
BRANCH   1  17
ATOM     17  C   UNL     1       3.429   5.984  17.843  0.00  0.00    +0.000 C 
BRANCH  17  18
ATOM     18  C   UNL     1       4.947   5.935  18.004  0.00  0.00    +0.000 A 
ATOM     19  C   UNL     1       5.558   5.344  19.121  0.00  0.00    +0.000 A 
ATOM     20  C   UNL     1       6.929   5.479  19.346  0.00  0.00    +0.000 A 
ATOM     21  C   UNL     1       7.712   6.221  18.467  0.00  0.00    +0.000 A 
ATOM     22  C   UNL     1       7.135   6.781  17.332  0.00  0.00    +0.000 A 
ATOM     23  C   UNL     1       5.769   6.615  17.086  0.00  0.00    +0.000 A 
ENDBRANCH  17  18
BRANCH  17  24
ATOM     24  C   UNL     1       2.707   4.655  18.073  0.00  0.00    +0.000 A 
ATOM     25  C   UNL     1       1.779   4.536  19.126  0.00  0.00    +0.000 A 
ATOM     26  C   UNL     1       1.215   3.298  19.444  0.00  0.00    +0.000 A 
ATOM     27  C   UNL     1       1.556   2.165  18.709  0.00  0.00    +0.000 A 
ATOM     28  C   UNL     1       2.452   2.270  17.648  0.00  0.00    +0.000 A 
ATOM     29  C   UNL     1       3.023   3.504  17.334  0.00  0.00    +0.000 A 
ENDBRANCH  17  24
ENDBRANCH   1  17
TORSDOF 7
ENDMDL
MODEL 6
REMARK VINA RESULT:      -8.4      1.539      2.633
REMARK  Name = 
REMARK  9 active torsions:
REMARK  status: ('A' for Active; 'I' for Inactive)
REMARK    1  A    between atoms: C_1  and  O_2
REMARK    2  A    between atoms: O_2  and  C_3
REMARK    3  A    between atoms: C_6  and  C_7
REMARK    4  A    between atoms: C_9  and  N_10
REMARK    5  A    between atoms: C_11  and  C_13
REMARK    6  A    between atoms: C_13  and  N_14
REMARK    7  A    between atoms: N_14  and  C_15
REMARK    8  A    between atoms: C_15  and  C_16
REMARK    9  A    between atoms: C_15  and  C_22
REMARK                            x       y       z     vdW  Elec       q    Type
REMARK                         _______ _______ _______ _____ _____    ______ ____
ROOT
ATOM      1  N   UNL     1       3.356   6.935  18.591  0.00  0.00    +0.000 NA
ATOM      2  H   UNL     1       2.801   6.872  19.447  0.00  0.00    +0.000 HD
ENDROOT
BRANCH   1   3
ATOM      3  C   UNL     1       2.824   8.063  17.801  0.00  0.00    +0.000 C 
BRANCH   3   5
ATOM      4  N   UNL     1       1.055   9.757  17.804  0.00  0.00    +0.000 N 
ATOM      5  C   UNL     1       1.725   8.807  18.565  0.00  0.00    +0.000 C 
ATOM      6  O   UNL     1       1.460   8.473  19.720  0.00  0.00    +0.000 OA
ATOM      7  H   UNL     1       1.333   9.877  16.835  0.00  0.00    +0.000 HD
BRANCH   4  14
ATOM      8  C   UNL     1       0.049  11.641  18.988  0.00  0.00    +0.000 A 
ATOM      9  C   UNL     1      -1.078  12.409  19.313  0.00  0.00    +0.000 A 
ATOM     10  C   UNL     1      -2.351  12.014  18.903  0.00  0.00    +0.000 A 
ATOM     11  C   UNL     1      -2.516  10.854  18.147  0.00  0.00    +0.000 A 
ATOM     12  C   UNL     1      -3.870  10.380  17.722  0.00  0.00    +0.000 C 
ATOM     13  C   UNL     1      -1.384  10.111  17.785  0.00  0.00    +0.000 A 
ATOM     14  C   UNL     1      -0.101  10.489  18.183  0.00  0.00    +0.000 A 
BRANCH   8  16
ATOM     15  C   UNL     1       1.812  13.235  18.995  0.00  0.00    +0.000 C 
ATOM     16  O   UNL     1       1.323  11.957  19.407  0.00  0.00    +0.000 OA
ENDBRANCH   8  16
ENDBRANCH   4  14
ENDBRANCH   3   5
ENDBRANCH   1   3
BRANCH   1  17
ATOM     17  C   UNL     1       3.260   5.622  17.914  0.00  0.00    +0.000 C 
BRANCH  17  18
ATOM     18  C   UNL     1       4.607   5.172  17.350  0.00  0.00    +0.000 A 
ATOM     19  C   UNL     1       5.802   5.840  17.659  0.00  0.00    +0.000 A 
ATOM     20  C   UNL     1       6.988   5.538  16.986  0.00  0.00    +0.000 A 
ATOM     21  C   UNL     1       6.997   4.574  15.982  0.00  0.00    +0.000 A 
ATOM     22  C   UNL     1       5.832   3.872  15.689  0.00  0.00    +0.000 A 
ATOM     23  C   UNL     1       4.653   4.148  16.387  0.00  0.00    +0.000 A 
ENDBRANCH  17  18
BRANCH  17  24
ATOM     24  C   UNL     1       2.577   4.620  18.847  0.00  0.00    +0.000 A 
ATOM     25  C   UNL     1       1.628   3.718  18.330  0.00  0.00    +0.000 A 
ATOM     26  C   UNL     1       0.890   2.893  19.182  0.00  0.00    +0.000 A 
ATOM     27  C   UNL     1       1.096   2.946  20.558  0.00  0.00    +0.000 A 
ATOM     28  C   UNL     1       2.049   3.815  21.083  0.00  0.00    +0.000 A 
ATOM     29  C   UNL     1       2.782   4.645  20.235  0.00  0.00    +0.000 A 
ENDBRANCH  17  24
ENDBRANCH   1  17
TORSDOF 7
ENDMDL
MODEL 7
REMARK VINA RESULT:      -8.4      1.547      4.165
REMARK  Name = 
REMARK  9 active torsions:
REMARK  status: ('A' for Active; 'I' for Inactive)
REMARK    1  A    between atoms: C_1  and  O_2
REMARK    2  A    between atoms: O_2  and  C_3
REMARK    3  A    between atoms: C_6  and  C_7
REMARK    4  A    between atoms: C_9  and  N_10
REMARK    5  A    between atoms: C_11  and  C_13
REMARK    6  A    between atoms: C_13  and  N_14
REMARK    7  A    between atoms: N_14  and  C_15
REMARK    8  A    between atoms: C_15  and  C_16
REMARK    9  A    between atoms: C_15  and  C_22
REMARK                            x       y       z     vdW  Elec       q    Type
REMARK                         _______ _______ _______ _____ _____    ______ ____
ROOT
ATOM      1  N   UNL     1       2.637   6.699  17.793  0.00  0.00    +0.000 NA
ATOM      2  H   UNL     1       2.937   6.393  16.865  0.00  0.00    +0.000 HD
ENDROOT
BRANCH   1   3
ATOM      3  C   UNL     1       2.883   8.152  17.880  0.00  0.00    +0.000 C 
BRANCH   3   5
ATOM      4  N   UNL     1       1.065   9.793  17.846  0.00  0.00    +0.000 N 
ATOM      5  C   UNL     1       1.749   8.865  18.622  0.00  0.00    +0.000 C 
ATOM      6  O   UNL     1       1.473   8.525  19.772  0.00  0.00    +0.000 OA
ATOM      7  H   UNL     1       1.358   9.919  16.882  0.00  0.00    +0.000 HD
BRANCH   4  14
ATOM      8  C   UNL     1      -0.019  11.636  19.026  0.00  0.00    +0.000 A 
ATOM      9  C   UNL     1      -1.174  12.371  19.328  0.00  0.00    +0.000 A 
ATOM     10  C   UNL     1      -2.425  11.951  18.877  0.00  0.00    +0.000 A 
ATOM     11  C   UNL     1      -2.540  10.797  18.103  0.00  0.00    +0.000 A 
ATOM     12  C   UNL     1      -3.870  10.296  17.634  0.00  0.00    +0.000 C 
ATOM     13  C   UNL     1      -1.380  10.087  17.763  0.00  0.00    +0.000 A 
ATOM     14  C   UNL     1      -0.118  10.492  18.202  0.00  0.00    +0.000 A 
BRANCH   8  16
ATOM     15  C   UNL     1       1.265  12.854  20.612  0.00  0.00    +0.000 C 
ATOM     16  O   UNL     1       1.234  11.977  19.483  0.00  0.00    +0.000 OA
ENDBRANCH   8  16
ENDBRANCH   4  14
ENDBRANCH   3   5
ENDBRANCH   1   3
BRANCH   1  17
ATOM     17  C   UNL     1       3.394   5.896  18.780  0.00  0.00    +0.000 C 
BRANCH  17  18
ATOM     18  C   UNL     1       2.509   4.858  19.468  0.00  0.00    +0.000 A 
ATOM     19  C   UNL     1       2.582   4.617  20.849  0.00  0.00    +0.000 A 
ATOM     20  C   UNL     1       1.910   3.538  21.426  0.00  0.00    +0.000 A 
ATOM     21  C   UNL     1       1.167   2.670  20.632  0.00  0.00    +0.000 A 
ATOM     22  C   UNL     1       1.048   2.915  19.267  0.00  0.00    +0.000 A 
ATOM     23  C   UNL     1       1.690   4.016  18.694  0.00  0.00    +0.000 A 
ENDBRANCH  17  18
BRANCH  17  24
ATOM     24  C   UNL     1       4.657   5.340  18.120  0.00  0.00    +0.000 A 
ATOM     25  C   UNL     1       5.876   5.349  18.824  0.00  0.00    +0.000 A 
ATOM     26  C   UNL     1       7.067   4.980  18.193  0.00  0.00    +0.000 A 
ATOM     27  C   UNL     1       7.057   4.585  16.858  0.00  0.00    +0.000 A 
ATOM     28  C   UNL     1       5.856   4.546  16.155  0.00  0.00    +0.000 A 
ATOM     29  C   UNL     1       4.667   4.922  16.780  0.00  0.00    +0.000 A 
ENDBRANCH  17  24
ENDBRANCH   1  17
TORSDOF 7
ENDMDL
MODEL 8
REMARK VINA RESULT:      -8.4      1.442      2.602
REMARK  Name = 
REMARK  9 active torsions:
REMARK  status: ('A' for Active; 'I' for Inactive)
REMARK    1  A    between atoms: C_1  and  O_2
REMARK    2  A    between atoms: O_2  and  C_3
REMARK    3  A    between atoms: C_6  and  C_7
REMARK    4  A    between atoms: C_9  and  N_10
REMARK    5  A    between atoms: C_11  and  C_13
REMARK    6  A    between atoms: C_13  and  N_14
REMARK    7  A    between atoms: N_14  and  C_15
REMARK    8  A    between atoms: C_15  and  C_16
REMARK    9  A    between atoms: C_15  and  C_22
REMARK                            x       y       z     vdW  Elec       q    Type
REMARK                         _______ _______ _______ _____ _____    ______ ____
ROOT
ATOM      1  N   UNL     1       2.571   7.225  18.537  0.00  0.00    +0.000 NA
ATOM      2  H   UNL     1       1.560   7.296  18.668  0.00  0.00    +0.000 HD
ENDROOT
BRANCH   1   3
ATOM      3  C   UNL     1       2.994   8.385  17.728  0.00  0.00    +0.000 C 
BRANCH   3   5
ATOM      4  N   UNL     1       0.816   9.210  18.486  0.00  0.00    +0.000 N 
ATOM      5  C   UNL     1       2.016   9.554  17.877  0.00  0.00    +0.000 C 
ATOM      6  O   UNL     1       2.372  10.685  17.544  0.00  0.00    +0.000 OA
ATOM      7  H   UNL     1       0.687   8.245  18.777  0.00  0.00    +0.000 HD
BRANCH   4  14
ATOM      8  C   UNL     1      -0.123  10.716  20.163  0.00  0.00    +0.000 A 
ATOM      9  C   UNL     1      -1.100  11.644  20.550  0.00  0.00    +0.000 A 
ATOM     10  C   UNL     1      -2.193  11.913  19.727  0.00  0.00    +0.000 A 
ATOM     11  C   UNL     1      -2.318  11.271  18.495  0.00  0.00    +0.000 A 
ATOM     12  C   UNL     1      -3.496  11.507  17.603  0.00  0.00    +0.000 C 
ATOM     13  C   UNL     1      -1.317  10.378  18.088  0.00  0.00    +0.000 A 
ATOM     14  C   UNL     1      -0.214  10.096  18.896  0.00  0.00    +0.000 A 
BRANCH   8  16
ATOM     15  C   UNL     1       0.645   9.601  22.116  0.00  0.00    +0.000 C 
ATOM     16  O   UNL     1       0.951  10.377  20.955  0.00  0.00    +0.000 OA
ENDBRANCH   8  16
ENDBRANCH   4  14
ENDBRANCH   3   5
ENDBRANCH   1   3
BRANCH   1  17
ATOM     17  C   UNL     1       2.836   5.914  17.903  0.00  0.00    +0.000 C 
BRANCH  17  18
ATOM     18  C   UNL     1       4.332   5.656  17.733  0.00  0.00    +0.000 A 
ATOM     19  C   UNL     1       4.900   5.375  16.480  0.00  0.00    +0.000 A 
ATOM     20  C   UNL     1       6.227   4.952  16.372  0.00  0.00    +0.000 A 
ATOM     21  C   UNL     1       7.004   4.787  17.514  0.00  0.00    +0.000 A 
ATOM     22  C   UNL     1       6.473   5.100  18.761  0.00  0.00    +0.000 A 
ATOM     23  C   UNL     1       5.157   5.559  18.868  0.00  0.00    +0.000 A 
ENDBRANCH  17  18
BRANCH  17  24
ATOM     24  C   UNL     1       2.068   4.824  18.652  0.00  0.00    +0.000 A 
ATOM     25  C   UNL     1       1.820   4.965  20.031  0.00  0.00    +0.000 A 
ATOM     26  C   UNL     1       1.247   3.922  20.763  0.00  0.00    +0.000 A 
ATOM     27  C   UNL     1       0.900   2.731  20.129  0.00  0.00    +0.000 A 
ATOM     28  C   UNL     1       1.115   2.585  18.761  0.00  0.00    +0.000 A 
ATOM     29  C   UNL     1       1.695   3.622  18.029  0.00  0.00    +0.000 A 
ENDBRANCH  17  24
ENDBRANCH   1  17
TORSDOF 7
ENDMDL
MODEL 9
REMARK VINA RESULT:      -8.3      0.943      1.347
REMARK  Name = 
REMARK  9 active torsions:
REMARK  status: ('A' for Active; 'I' for Inactive)
REMARK    1  A    between atoms: C_1  and  O_2
REMARK    2  A    between atoms: O_2  and  C_3
REMARK    3  A    between atoms: C_6  and  C_7
REMARK    4  A    between atoms: C_9  and  N_10
REMARK    5  A    between atoms: C_11  and  C_13
REMARK    6  A    between atoms: C_13  and  N_14
REMARK    7  A    between atoms: N_14  and  C_15
REMARK    8  A    between atoms: C_15  and  C_16
REMARK    9  A    between atoms: C_15  and  C_22
REMARK                            x       y       z     vdW  Elec       q    Type
REMARK                         _______ _______ _______ _____ _____    ______ ____
ROOT
ATOM      1  N   UNL     1       2.795   7.301  18.604  0.00  0.00    +0.000 NA
ATOM      2  H   UNL     1       2.220   7.172  19.440  0.00  0.00    +0.000 HD
ENDROOT
BRANCH   1   3
ATOM      3  C   UNL     1       2.180   8.381  17.807  0.00  0.00    +0.000 C 
BRANCH   3   5
ATOM      4  N   UNL     1       0.379  10.037  17.911  0.00  0.00    +0.000 N 
ATOM      5  C   UNL     1       1.223   9.223  18.655  0.00  0.00    +0.000 C 
ATOM      6  O   UNL     1       1.205   9.068  19.877  0.00  0.00    +0.000 OA
ATOM      7  H   UNL     1       0.457  10.009  16.899  0.00  0.00    +0.000 HD
BRANCH   4  14
ATOM      8  C   UNL     1      -1.991  10.622  17.838  0.00  0.00    +0.000 A 
ATOM      9  C   UNL     1      -3.083  11.330  18.359  0.00  0.00    +0.000 A 
ATOM     10  C   UNL     1      -2.906  12.260  19.383  0.00  0.00    +0.000 A 
ATOM     11  C   UNL     1      -1.636  12.486  19.914  0.00  0.00    +0.000 A 
ATOM     12  C   UNL     1      -1.404  13.504  20.986  0.00  0.00    +0.000 C 
ATOM     13  C   UNL     1      -0.552  11.746  19.423  0.00  0.00    +0.000 A 
ATOM     14  C   UNL     1      -0.708  10.808  18.401  0.00  0.00    +0.000 A 
BRANCH   8  16
ATOM     15  C   UNL     1      -2.677  10.241  15.595  0.00  0.00    +0.000 C 
ATOM     16  O   UNL     1      -2.099   9.728  16.797  0.00  0.00    +0.000 OA
ENDBRANCH   8  16
ENDBRANCH   4  14
ENDBRANCH   3   5
ENDBRANCH   1   3
BRANCH   1  17
ATOM     17  C   UNL     1       2.852   5.993  17.912  0.00  0.00    +0.000 C 
BRANCH  17  18
ATOM     18  C   UNL     1       4.224   5.738  17.290  0.00  0.00    +0.000 A 
ATOM     19  C   UNL     1       4.581   4.486  16.766  0.00  0.00    +0.000 A 
ATOM     20  C   UNL     1       5.896   4.217  16.380  0.00  0.00    +0.000 A 
ATOM     21  C   UNL     1       6.880   5.189  16.526  0.00  0.00    +0.000 A 
ATOM     22  C   UNL     1       6.539   6.450  17.004  0.00  0.00    +0.000 A 
ATOM     23  C   UNL     1       5.216   6.733  17.356  0.00  0.00    +0.000 A 
ENDBRANCH  17  18
BRANCH  17  24
ATOM     24  C   UNL     1       2.351   4.898  18.855  0.00  0.00    +0.000 A 
ATOM     25  C   UNL     1       1.456   3.921  18.379  0.00  0.00    +0.000 A 
ATOM     26  C   UNL     1       0.875   2.999  19.254  0.00  0.00    +0.000 A 
ATOM     27  C   UNL     1       1.189   3.029  20.610  0.00  0.00    +0.000 A 
ATOM     28  C   UNL     1       2.091   3.973  21.093  0.00  0.00    +0.000 A 
ATOM     29  C   UNL     1       2.666   4.900  20.223  0.00  0.00    +0.000 A 
ENDBRANCH  17  24
ENDBRANCH   1  17
TORSDOF 7
ENDMDL
