MODEL 1
REMARK VINA RESULT:      -8.1      0.000      0.000
REMARK  Name = 
REMARK  5 active torsions:
REMARK  status: ('A' for Active; 'I' for Inactive)
REMARK    1  A    between atoms: C_1  and  C_2
REMARK    2  A    between atoms: C_8  and  N_9
REMARK    3  A    between atoms: N_9  and  C_10
REMARK    4  A    between atoms: C_13  and  C_14
REMARK    5  A    between atoms: C_29  and  C_30
REMARK                            x       y       z     vdW  Elec       q    Type
REMARK                         _______ _______ _______ _____ _____    ______ ____
ROOT
ATOM      1  C   UNL     1      -3.369  11.700  17.975  0.00  0.00    +0.000 A 
ATOM      2  N   UNL     1      -2.814  11.827  19.196  0.00  0.00    +0.000 NA
ATOM      3  C   UNL     1      -1.599  11.255  19.435  0.00  0.00    +0.000 A 
ATOM      4  C   UNL     1      -0.934  11.385  20.674  0.00  0.00    +0.000 A 
ATOM      5  C   UNL     1       0.335  10.813  20.870  0.00  0.00    +0.000 A 
ATOM      6  C   UNL     1       0.953  10.102  19.852  0.00  0.00    +0.000 A 
ATOM      7  C   UNL     1       0.295   9.956  18.636  0.00  0.00    +0.000 A 
ATOM      8  C   UNL     1      -0.957  10.510  18.414  0.00  0.00    +0.000 A 
ATOM      9  N   UNL     1      -1.532  10.320  17.217  0.00  0.00    +0.000 NA
ATOM     10  C   UNL     1      -2.741  10.900  17.007  0.00  0.00    +0.000 A 
ATOM     11  C   UNL     1      -3.353  10.672  15.658  0.00  0.00    +0.000 C 
ENDROOT
BRANCH   4  12
ATOM     12  C   UNL     1      -1.544  12.116  21.797  0.00  0.00    +0.000 A 
ATOM     13  C   UNL     1      -2.741  11.911  22.469  0.00  0.00    +0.000 A 
ATOM     14  C   UNL     1      -2.842  12.878  23.498  0.00  0.00    +0.000 A 
ATOM     15  C   UNL     1      -1.721  13.677  23.402  0.00  0.00    +0.000 A 
ATOM     16  N   UNL     1      -0.932  13.203  22.394  0.00  0.00    +0.000 N 
ATOM     17  C   UNL     1      -1.409  14.811  24.306  0.00  0.00    +0.000 C 
ATOM     18  C   UNL     1      -2.692  15.213  25.068  0.00  0.00    +0.000 C 
ATOM     19  N   UNL     1      -3.578  14.102  25.409  0.00  0.00    +0.000 N 
ATOM     20  C   UNL     1      -3.844  13.065  24.533  0.00  0.00    +0.000 C 
ATOM     21  O   UNL     1      -4.835  12.357  24.660  0.00  0.00    +0.000 OA
ATOM     22  H   UNL     1      -0.011  13.537  22.133  0.00  0.00    +0.000 HD
ATOM     23  H   UNL     1      -4.332  14.260  26.065  0.00  0.00    +0.000 HD
ENDBRANCH   4  12
BRANCH   1  24
ATOM     24  N   UNL     1      -4.603  12.315  17.708  0.00  0.00    +0.000 N 
ATOM     25  H   UNL     1      -4.665  13.212  18.183  0.00  0.00    +0.000 HD
BRANCH  24  33
ATOM     26  C   UNL     1      -7.058  15.111  16.387  0.00  0.00    +0.000 C 
ATOM     27  C   UNL     1      -7.052  14.890  17.876  0.00  0.00    +0.000 C 
ATOM     28  O   UNL     1      -6.952  15.852  18.638  0.00  0.00    +0.000 OA
ATOM     29  N   UNL     1      -7.189  13.588  18.330  0.00  0.00    +0.000 N 
ATOM     30  C   UNL     1      -7.355  13.348  19.762  0.00  0.00    +0.000 C 
ATOM     31  C   UNL     1      -6.200  12.521  20.314  0.00  0.00    +0.000 C 
ATOM     32  C   UNL     1      -5.998  11.242  19.492  0.00  0.00    +0.000 C 
ATOM     33  C   UNL     1      -5.825  11.532  17.984  0.00  0.00    +0.000 C 
ATOM     34  C   UNL     1      -7.044  12.373  17.508  0.00  0.00    +0.000 C 
ENDBRANCH  24  33
ENDBRANCH   1  24
TORSDOF 3
ENDMDL
MODEL 2
REMARK VINA RESULT:      -8.1      1.192      1.504
REMARK  Name = 
REMARK  5 active torsions:
REMARK  status: ('A' for Active; 'I' for Inactive)
REMARK    1  A    between atoms: C_1  and  C_2
REMARK    2  A    between atoms: C_8  and  N_9
REMARK    3  A    between atoms: N_9  and  C_10
REMARK    4  A    between atoms: C_13  and  C_14
REMARK    5  A    between atoms: C_29  and  C_30
REMARK                            x       y       z     vdW  Elec       q    Type
REMARK                         _______ _______ _______ _____ _____    ______ ____
ROOT
ATOM      1  C   UNL     1      -3.420  11.612  17.872  0.00  0.00    +0.000 A 
ATOM      2  N   UNL     1      -2.737  11.798  19.018  0.00  0.00    +0.000 NA
ATOM      3  C   UNL     1      -1.524  11.191  19.173  0.00  0.00    +0.000 A 
ATOM      4  C   UNL     1      -0.730  11.377  20.326  0.00  0.00    +0.000 A 
ATOM      5  C   UNL     1       0.531  10.764  20.433  0.00  0.00    +0.000 A 
ATOM      6  C   UNL     1       1.013   9.958  19.412  0.00  0.00    +0.000 A 
ATOM      7  C   UNL     1       0.226   9.758  18.283  0.00  0.00    +0.000 A 
ATOM      8  C   UNL     1      -1.021  10.350  18.150  0.00  0.00    +0.000 A 
ATOM      9  N   UNL     1      -1.724  10.104  17.034  0.00  0.00    +0.000 NA
ATOM     10  C   UNL     1      -2.926  10.720  16.906  0.00  0.00    +0.000 A 
ATOM     11  C   UNL     1      -3.684  10.428  15.646  0.00  0.00    +0.000 C 
ENDROOT
BRANCH   4  12
ATOM     12  C   UNL     1      -1.192  12.209  21.448  0.00  0.00    +0.000 A 
ATOM     13  C   UNL     1      -0.522  13.156  22.211  0.00  0.00    +0.000 A 
ATOM     14  C   UNL     1      -1.435  13.695  23.148  0.00  0.00    +0.000 A 
ATOM     15  C   UNL     1      -2.632  13.034  22.961  0.00  0.00    +0.000 A 
ATOM     16  N   UNL     1      -2.489  12.159  21.925  0.00  0.00    +0.000 N 
ATOM     17  C   UNL     1      -3.876  13.304  23.723  0.00  0.00    +0.000 C 
ATOM     18  C   UNL     1      -3.522  14.100  24.998  0.00  0.00    +0.000 C 
ATOM     19  N   UNL     1      -2.425  15.052  24.843  0.00  0.00    +0.000 N 
ATOM     20  C   UNL     1      -1.279  14.759  24.125  0.00  0.00    +0.000 C 
ATOM     21  O   UNL     1      -0.238  15.381  24.296  0.00  0.00    +0.000 OA
ATOM     22  H   UNL     1      -3.214  11.585  21.507  0.00  0.00    +0.000 HD
ATOM     23  H   UNL     1      -2.263  15.738  25.569  0.00  0.00    +0.000 HD
ENDBRANCH   4  12
BRANCH   1  24
ATOM     24  N   UNL     1      -4.652  12.260  17.688  0.00  0.00    +0.000 N 
ATOM     25  H   UNL     1      -4.621  13.201  18.073  0.00  0.00    +0.000 HD
BRANCH  24  33
ATOM     26  C   UNL     1      -7.146  14.963  16.250  0.00  0.00    +0.000 C 
ATOM     27  C   UNL     1      -6.996  14.936  17.748  0.00  0.00    +0.000 C 
ATOM     28  O   UNL     1      -6.793  15.983  18.364  0.00  0.00    +0.000 OA
ATOM     29  N   UNL     1      -7.124  13.710  18.381  0.00  0.00    +0.000 N 
ATOM     30  C   UNL     1      -7.153  13.664  19.842  0.00  0.00    +0.000 C 
ATOM     31  C   UNL     1      -5.971  12.867  20.385  0.00  0.00    +0.000 C 
ATOM     32  C   UNL     1      -5.890  11.486  19.724  0.00  0.00    +0.000 C 
ATOM     33  C   UNL     1      -5.862  11.572  18.181  0.00  0.00    +0.000 C 
ATOM     34  C   UNL     1      -7.098  12.394  17.717  0.00  0.00    +0.000 C 
ENDBRANCH  24  33
ENDBRANCH   1  24
TORSDOF 3
ENDMDL
MODEL 3
REMARK VINA RESULT:      -8.0      2.219      5.705
REMARK  Name = 
REMARK  5 active torsions:
REMARK  status: ('A' for Active; 'I' for Inactive)
REMARK    1  A    between atoms: C_1  and  C_2
REMARK    2  A    between atoms: C_8  and  N_9
REMARK    3  A    between atoms: N_9  and  C_10
REMARK    4  A    between atoms: C_13  and  C_14
REMARK    5  A    between atoms: C_29  and  C_30
REMARK                            x       y       z     vdW  Elec       q    Type
REMARK                         _______ _______ _______ _____ _____    ______ ____
ROOT
ATOM      1  C   UNL     1      -2.868  11.426  18.131  0.00  0.00    +0.000 A 
ATOM      2  N   UNL     1      -3.589  12.055  19.079  0.00  0.00    +0.000 NA
ATOM      3  C   UNL     1      -4.898  12.350  18.830  0.00  0.00    +0.000 A 
ATOM      4  C   UNL     1      -5.729  12.965  19.792  0.00  0.00    +0.000 A 
ATOM      5  C   UNL     1      -7.083  13.218  19.511  0.00  0.00    +0.000 A 
ATOM      6  C   UNL     1      -7.624  12.878  18.281  0.00  0.00    +0.000 A 
ATOM      7  C   UNL     1      -6.806  12.288  17.324  0.00  0.00    +0.000 A 
ATOM      8  C   UNL     1      -5.467  12.025  17.573  0.00  0.00    +0.000 A 
ATOM      9  N   UNL     1      -4.738  11.461  16.598  0.00  0.00    +0.000 NA
ATOM     10  C   UNL     1      -3.440  11.179  16.873  0.00  0.00    +0.000 A 
ATOM     11  C   UNL     1      -2.656  10.545  15.764  0.00  0.00    +0.000 C 
ENDROOT
BRANCH   4  12
ATOM     12  C   UNL     1      -5.209  13.362  21.111  0.00  0.00    +0.000 A 
ATOM     13  C   UNL     1      -5.200  12.685  22.323  0.00  0.00    +0.000 A 
ATOM     14  C   UNL     1      -4.548  13.500  23.279  0.00  0.00    +0.000 A 
ATOM     15  C   UNL     1      -4.211  14.674  22.635  0.00  0.00    +0.000 A 
ATOM     16  N   UNL     1      -4.589  14.579  21.328  0.00  0.00    +0.000 N 
ATOM     17  C   UNL     1      -3.487  15.807  23.264  0.00  0.00    +0.000 C 
ATOM     18  C   UNL     1      -3.552  15.654  24.800  0.00  0.00    +0.000 C 
ATOM     19  N   UNL     1      -3.510  14.275  25.282  0.00  0.00    +0.000 N 
ATOM     20  C   UNL     1      -4.202  13.248  24.667  0.00  0.00    +0.000 C 
ATOM     21  O   UNL     1      -4.464  12.208  25.258  0.00  0.00    +0.000 OA
ATOM     22  H   UNL     1      -4.410  15.252  20.591  0.00  0.00    +0.000 HD
ATOM     23  H   UNL     1      -3.357  14.105  26.268  0.00  0.00    +0.000 HD
ENDBRANCH   4  12
BRANCH   1  24
ATOM     24  N   UNL     1      -1.530  11.087  18.391  0.00  0.00    +0.000 N 
ATOM     25  H   UNL     1      -1.479  10.305  19.038  0.00  0.00    +0.000 HD
BRANCH  24  33
ATOM     26  C   UNL     1       1.773   8.988  17.864  0.00  0.00    +0.000 C 
ATOM     27  C   UNL     1       1.372   9.236  19.294  0.00  0.00    +0.000 C 
ATOM     28  O   UNL     1       1.339   8.300  20.093  0.00  0.00    +0.000 OA
ATOM     29  N   UNL     1       1.076  10.540  19.658  0.00  0.00    +0.000 N 
ATOM     30  C   UNL     1       0.845  10.850  21.067  0.00  0.00    +0.000 C 
ATOM     31  C   UNL     1      -0.573  11.364  21.287  0.00  0.00    +0.000 C 
ATOM     32  C   UNL     1      -0.889  12.527  20.339  0.00  0.00    +0.000 C 
ATOM     33  C   UNL     1      -0.635  12.165  18.858  0.00  0.00    +0.000 C 
ATOM     34  C   UNL     1       0.829  11.656  18.726  0.00  0.00    +0.000 C 
ENDBRANCH  24  33
ENDBRANCH   1  24
TORSDOF 3
ENDMDL
MODEL 4
REMARK VINA RESULT:      -7.9      6.436     10.346
REMARK  Name = 
REMARK  5 active torsions:
REMARK  status: ('A' for Active; 'I' for Inactive)
REMARK    1  A    between atoms: C_1  and  C_2
REMARK    2  A    between atoms: C_8  and  N_9
REMARK    3  A    between atoms: N_9  and  C_10
REMARK    4  A    between atoms: C_13  and  C_14
REMARK    5  A    between atoms: C_29  and  C_30
REMARK                            x       y       z     vdW  Elec       q    Type
REMARK                         _______ _______ _______ _____ _____    ______ ____
ROOT
ATOM      1  C   UNL     1       1.981   7.920  19.799  0.00  0.00    +0.000 A 
ATOM      2  N   UNL     1       2.694   6.947  19.199  0.00  0.00    +0.000 NA
ATOM      3  C   UNL     1       2.443   5.645  19.522  0.00  0.00    +0.000 A 
ATOM      4  C   UNL     1       3.117   4.571  18.902  0.00  0.00    +0.000 A 
ATOM      5  C   UNL     1       2.803   3.241  19.235  0.00  0.00    +0.000 A 
ATOM      6  C   UNL     1       1.834   2.962  20.187  0.00  0.00    +0.000 A 
ATOM      7  C   UNL     1       1.180   4.017  20.813  0.00  0.00    +0.000 A 
ATOM      8  C   UNL     1       1.468   5.338  20.504  0.00  0.00    +0.000 A 
ATOM      9  N   UNL     1       0.801   6.303  21.156  0.00  0.00    +0.000 NA
ATOM     10  C   UNL     1       1.071   7.588  20.815  0.00  0.00    +0.000 A 
ATOM     11  C   UNL     1       0.305   8.640  21.559  0.00  0.00    +0.000 C 
ENDROOT
BRANCH   4  12
ATOM     12  C   UNL     1       4.165   4.803  17.895  0.00  0.00    +0.000 A 
ATOM     13  C   UNL     1       5.192   5.736  17.854  0.00  0.00    +0.000 A 
ATOM     14  C   UNL     1       5.946   5.511  16.677  0.00  0.00    +0.000 A 
ATOM     15  C   UNL     1       5.334   4.471  16.007  0.00  0.00    +0.000 A 
ATOM     16  N   UNL     1       4.279   4.033  16.752  0.00  0.00    +0.000 N 
ATOM     17  C   UNL     1       5.811   3.892  14.727  0.00  0.00    +0.000 C 
ATOM     18  C   UNL     1       6.803   4.877  14.068  0.00  0.00    +0.000 C 
ATOM     19  N   UNL     1       7.644   5.619  15.004  0.00  0.00    +0.000 N 
ATOM     20  C   UNL     1       7.158   6.145  16.188  0.00  0.00    +0.000 C 
ATOM     21  O   UNL     1       7.737   7.052  16.772  0.00  0.00    +0.000 OA
ATOM     22  H   UNL     1       3.684   3.236  16.555  0.00  0.00    +0.000 HD
ATOM     23  H   UNL     1       8.438   6.134  14.648  0.00  0.00    +0.000 HD
ENDBRANCH   4  12
BRANCH   1  24
ATOM     24  N   UNL     1       2.208   9.261  19.447  0.00  0.00    +0.000 N 
ATOM     25  H   UNL     1       1.729   9.885  20.092  0.00  0.00    +0.000 HD
BRANCH  24  33
ATOM     26  C   UNL     1       2.564  13.128  20.162  0.00  0.00    +0.000 C 
ATOM     27  C   UNL     1       1.164  12.630  19.917  0.00  0.00    +0.000 C 
ATOM     28  O   UNL     1       0.258  12.941  20.690  0.00  0.00    +0.000 OA
ATOM     29  N   UNL     1       0.951  11.847  18.794  0.00  0.00    +0.000 N 
ATOM     30  C   UNL     1      -0.416  11.483  18.429  0.00  0.00    +0.000 C 
ATOM     31  C   UNL     1      -0.609   9.971  18.477  0.00  0.00    +0.000 C 
ATOM     32  C   UNL     1       0.463   9.254  17.649  0.00  0.00    +0.000 C 
ATOM     33  C   UNL     1       1.896   9.661  18.060  0.00  0.00    +0.000 C 
ATOM     34  C   UNL     1       2.003  11.211  17.979  0.00  0.00    +0.000 C 
ENDBRANCH  24  33
ENDBRANCH   1  24
TORSDOF 3
ENDMDL
MODEL 5
REMARK VINA RESULT:      -7.9      2.383      5.867
REMARK  Name = 
REMARK  5 active torsions:
REMARK  status: ('A' for Active; 'I' for Inactive)
REMARK    1  A    between atoms: C_1  and  C_2
REMARK    2  A    between atoms: C_8  and  N_9
REMARK    3  A    between atoms: N_9  and  C_10
REMARK    4  A    between atoms: C_13  and  C_14
REMARK    5  A    between atoms: C_29  and  C_30
REMARK                            x       y       z     vdW  Elec       q    Type
REMARK                         _______ _______ _______ _____ _____    ______ ____
ROOT
ATOM      1  C   UNL     1      -2.864  11.306  18.255  0.00  0.00    +0.000 A 
ATOM      2  N   UNL     1      -3.600  11.993  19.151  0.00  0.00    +0.000 NA
ATOM      3  C   UNL     1      -4.899  12.288  18.854  0.00  0.00    +0.000 A 
ATOM      4  C   UNL     1      -5.745  12.963  19.762  0.00  0.00    +0.000 A 
ATOM      5  C   UNL     1      -7.089  13.216  19.435  0.00  0.00    +0.000 A 
ATOM      6  C   UNL     1      -7.605  12.816  18.212  0.00  0.00    +0.000 A 
ATOM      7  C   UNL     1      -6.771  12.166  17.308  0.00  0.00    +0.000 A 
ATOM      8  C   UNL     1      -5.442  11.903  17.603  0.00  0.00    +0.000 A 
ATOM      9  N   UNL     1      -4.697  11.279  16.678  0.00  0.00    +0.000 NA
ATOM     10  C   UNL     1      -3.409  10.998  16.999  0.00  0.00    +0.000 A 
ATOM     11  C   UNL     1      -2.608  10.297  15.945  0.00  0.00    +0.000 C 
ENDROOT
BRANCH   4  12
ATOM     12  C   UNL     1      -5.252  13.425  21.070  0.00  0.00    +0.000 A 
ATOM     13  C   UNL     1      -5.000  14.705  21.543  0.00  0.00    +0.000 A 
ATOM     14  C   UNL     1      -4.569  14.603  22.887  0.00  0.00    +0.000 A 
ATOM     15  C   UNL     1      -4.529  13.256  23.189  0.00  0.00    +0.000 A 
ATOM     16  N   UNL     1      -4.962  12.553  22.103  0.00  0.00    +0.000 N 
ATOM     17  C   UNL     1      -4.149  12.695  24.509  0.00  0.00    +0.000 C 
ATOM     18  C   UNL     1      -3.417  13.784  25.325  0.00  0.00    +0.000 C 
ATOM     19  N   UNL     1      -3.908  15.144  25.115  0.00  0.00    +0.000 N 
ATOM     20  C   UNL     1      -4.249  15.628  23.865  0.00  0.00    +0.000 C 
ATOM     21  O   UNL     1      -4.300  16.830  23.635  0.00  0.00    +0.000 OA
ATOM     22  H   UNL     1      -5.112  11.552  22.046  0.00  0.00    +0.000 HD
ATOM     23  H   UNL     1      -3.611  15.876  25.747  0.00  0.00    +0.000 HD
ENDBRANCH   4  12
BRANCH   1  24
ATOM     24  N   UNL     1      -1.537  10.967  18.566  0.00  0.00    +0.000 N 
ATOM     25  H   UNL     1      -1.510  10.169  19.195  0.00  0.00    +0.000 HD
BRANCH  24  33
ATOM     26  C   UNL     1       1.824   9.044  17.792  0.00  0.00    +0.000 C 
ATOM     27  C   UNL     1       1.452   9.160  19.246  0.00  0.00    +0.000 C 
ATOM     28  O   UNL     1       1.474   8.163  19.967  0.00  0.00    +0.000 OA
ATOM     29  N   UNL     1       1.119  10.418  19.722  0.00  0.00    +0.000 N 
ATOM     30  C   UNL     1       0.915  10.605  21.157  0.00  0.00    +0.000 C 
ATOM     31  C   UNL     1      -0.515  11.045  21.452  0.00  0.00    +0.000 C 
ATOM     32  C   UNL     1      -0.897  12.268  20.609  0.00  0.00    +0.000 C 
ATOM     33  C   UNL     1      -0.670  12.037  19.098  0.00  0.00    +0.000 C 
ATOM     34  C   UNL     1       0.808  11.596  18.891  0.00  0.00    +0.000 C 
ENDBRANCH  24  33
ENDBRANCH   1  24
TORSDOF 3
ENDMDL
MODEL 6
REMARK VINA RESULT:      -7.9      2.367      5.203
REMARK  Name = 
REMARK  5 active torsions:
REMARK  status: ('A' for Active; 'I' for Inactive)
REMARK    1  A    between atoms: C_1  and  C_2
REMARK    2  A    between atoms: C_8  and  N_9
REMARK    3  A    between atoms: N_9  and  C_10
REMARK    4  A    between atoms: C_13  and  C_14
REMARK    5  A    between atoms: C_29  and  C_30
REMARK                            x       y       z     vdW  Elec       q    Type
REMARK                         _______ _______ _______ _____ _____    ______ ____
ROOT
ATOM      1  C   UNL     1      -2.502  11.544  17.984  0.00  0.00    +0.000 A 
ATOM      2  N   UNL     1      -3.129  12.084  19.047  0.00  0.00    +0.000 NA
ATOM      3  C   UNL     1      -4.489  12.008  19.124  0.00  0.00    +0.000 A 
ATOM      4  C   UNL     1      -5.211  12.508  20.230  0.00  0.00    +0.000 A 
ATOM      5  C   UNL     1      -6.610  12.377  20.289  0.00  0.00    +0.000 A 
ATOM      6  C   UNL     1      -7.306  11.764  19.258  0.00  0.00    +0.000 A 
ATOM      7  C   UNL     1      -6.601  11.286  18.159  0.00  0.00    +0.000 A 
ATOM      8  C   UNL     1      -5.222  11.400  18.074  0.00  0.00    +0.000 A 
ATOM      9  N   UNL     1      -4.612  10.922  16.978  0.00  0.00    +0.000 NA
ATOM     10  C   UNL     1      -3.259  11.010  16.929  0.00  0.00    +0.000 A 
ATOM     11  C   UNL     1      -2.609  10.462  15.694  0.00  0.00    +0.000 C 
ENDROOT
BRANCH   4  12
ATOM     12  C   UNL     1      -4.531  13.180  21.348  0.00  0.00    +0.000 A 
ATOM     13  C   UNL     1      -4.955  14.205  22.183  0.00  0.00    +0.000 A 
ATOM     14  C   UNL     1      -3.929  14.463  23.123  0.00  0.00    +0.000 A 
ATOM     15  C   UNL     1      -2.885  13.616  22.811  0.00  0.00    +0.000 A 
ATOM     16  N   UNL     1      -3.258  12.831  21.760  0.00  0.00    +0.000 N 
ATOM     17  C   UNL     1      -1.606  13.537  23.560  0.00  0.00    +0.000 C 
ATOM     18  C   UNL     1      -1.459  14.800  24.438  0.00  0.00    +0.000 C 
ATOM     19  N   UNL     1      -2.711  15.314  24.990  0.00  0.00    +0.000 N 
ATOM     20  C   UNL     1      -3.881  15.372  24.254  0.00  0.00    +0.000 C 
ATOM     21  O   UNL     1      -4.801  16.116  24.571  0.00  0.00    +0.000 OA
ATOM     22  H   UNL     1      -2.731  12.066  21.353  0.00  0.00    +0.000 HD
ATOM     23  H   UNL     1      -2.675  16.014  25.719  0.00  0.00    +0.000 HD
ENDBRANCH   4  12
BRANCH   1  24
ATOM     24  N   UNL     1      -1.100  11.586  17.913  0.00  0.00    +0.000 N 
ATOM     25  H   UNL     1      -0.774  11.178  17.040  0.00  0.00    +0.000 HD
BRANCH  24  33
ATOM     26  C   UNL     1      -0.906  14.965  19.947  0.00  0.00    +0.000 C 
ATOM     27  C   UNL     1       0.386  14.486  19.342  0.00  0.00    +0.000 C 
ATOM     28  O   UNL     1       1.084  15.263  18.690  0.00  0.00    +0.000 OA
ATOM     29  N   UNL     1       0.752  13.170  19.574  0.00  0.00    +0.000 N 
ATOM     30  C   UNL     1       2.073  12.713  19.148  0.00  0.00    +0.000 C 
ATOM     31  C   UNL     1       1.957  11.608  18.103  0.00  0.00    +0.000 C 
ATOM     32  C   UNL     1       1.042  10.480  18.596  0.00  0.00    +0.000 C 
ATOM     33  C   UNL     1      -0.345  10.998  19.038  0.00  0.00    +0.000 C 
ATOM     34  C   UNL     1      -0.132  12.113  20.101  0.00  0.00    +0.000 C 
ENDBRANCH  24  33
ENDBRANCH   1  24
TORSDOF 3
ENDMDL
MODEL 7
REMARK VINA RESULT:      -7.8      2.226      5.600
REMARK  Name = 
REMARK  5 active torsions:
REMARK  status: ('A' for Active; 'I' for Inactive)
REMARK    1  A    between atoms: C_1  and  C_2
REMARK    2  A    between atoms: C_8  and  N_9
REMARK    3  A    between atoms: N_9  and  C_10
REMARK    4  A    between atoms: C_13  and  C_14
REMARK    5  A    between atoms: C_29  and  C_30
REMARK                            x       y       z     vdW  Elec       q    Type
REMARK                         _______ _______ _______ _____ _____    ______ ____
ROOT
ATOM      1  C   UNL     1      -2.858  11.210  18.309  0.00  0.00    +0.000 A 
ATOM      2  N   UNL     1      -3.566  11.942  19.191  0.00  0.00    +0.000 NA
ATOM      3  C   UNL     1      -4.821  12.356  18.851  0.00  0.00    +0.000 A 
ATOM      4  C   UNL     1      -5.641  13.086  19.741  0.00  0.00    +0.000 A 
ATOM      5  C   UNL     1      -6.944  13.463  19.368  0.00  0.00    +0.000 A 
ATOM      6  C   UNL     1      -7.443  13.133  18.117  0.00  0.00    +0.000 A 
ATOM      7  C   UNL     1      -6.633  12.430  17.232  0.00  0.00    +0.000 A 
ATOM      8  C   UNL     1      -5.345  12.045  17.572  0.00  0.00    +0.000 A 
ATOM      9  N   UNL     1      -4.621  11.375  16.662  0.00  0.00    +0.000 NA
ATOM     10  C   UNL     1      -3.377  10.976  17.026  0.00  0.00    +0.000 A 
ATOM     11  C   UNL     1      -2.598  10.226  15.988  0.00  0.00    +0.000 C 
ENDROOT
BRANCH   4  12
ATOM     12  C   UNL     1      -5.163  13.478  21.076  0.00  0.00    +0.000 A 
ATOM     13  C   UNL     1      -5.118  12.767  22.268  0.00  0.00    +0.000 A 
ATOM     14  C   UNL     1      -4.532  13.595  23.255  0.00  0.00    +0.000 A 
ATOM     15  C   UNL     1      -4.271  14.807  22.651  0.00  0.00    +0.000 A 
ATOM     16  N   UNL     1      -4.629  14.727  21.337  0.00  0.00    +0.000 N 
ATOM     17  C   UNL     1      -3.633  15.968  23.321  0.00  0.00    +0.000 C 
ATOM     18  C   UNL     1      -3.702  15.764  24.851  0.00  0.00    +0.000 C 
ATOM     19  N   UNL     1      -3.570  14.378  25.293  0.00  0.00    +0.000 N 
ATOM     20  C   UNL     1      -4.184  13.325  24.639  0.00  0.00    +0.000 C 
ATOM     21  O   UNL     1      -4.380  12.251  25.195  0.00  0.00    +0.000 OA
ATOM     22  H   UNL     1      -4.490  15.433  20.622  0.00  0.00    +0.000 HD
ATOM     23  H   UNL     1      -3.415  14.188  26.274  0.00  0.00    +0.000 HD
ENDBRANCH   4  12
BRANCH   1  24
ATOM     24  N   UNL     1      -1.579  10.749  18.662  0.00  0.00    +0.000 N 
ATOM     25  H   UNL     1      -1.515  10.609  19.667  0.00  0.00    +0.000 HD
BRANCH  24  33
ATOM     26  C   UNL     1       1.043   8.723  20.810  0.00  0.00    +0.000 C 
ATOM     27  C   UNL     1       0.757  10.127  21.273  0.00  0.00    +0.000 C 
ATOM     28  O   UNL     1       0.501  10.343  22.457  0.00  0.00    +0.000 OA
ATOM     29  N   UNL     1       0.823  11.138  20.327  0.00  0.00    +0.000 N 
ATOM     30  C   UNL     1       0.718  12.529  20.764  0.00  0.00    +0.000 C 
ATOM     31  C   UNL     1      -0.509  13.199  20.157  0.00  0.00    +0.000 C 
ATOM     32  C   UNL     1      -0.534  13.026  18.634  0.00  0.00    +0.000 C 
ATOM     33  C   UNL     1      -0.421  11.545  18.207  0.00  0.00    +0.000 C 
ATOM     34  C   UNL     1       0.854  10.945  18.865  0.00  0.00    +0.000 C 
ENDBRANCH  24  33
ENDBRANCH   1  24
TORSDOF 3
ENDMDL
MODEL 8
REMARK VINA RESULT:      -7.8      2.104      5.410
REMARK  Name = 
REMARK  5 active torsions:
REMARK  status: ('A' for Active; 'I' for Inactive)
REMARK    1  A    between atoms: C_1  and  C_2
REMARK    2  A    between atoms: C_8  and  N_9
REMARK    3  A    between atoms: N_9  and  C_10
REMARK    4  A    between atoms: C_13  and  C_14
REMARK    5  A    between atoms: C_29  and  C_30
REMARK                            x       y       z     vdW  Elec       q    Type
REMARK                         _______ _______ _______ _____ _____    ______ ____
ROOT
ATOM      1  C   UNL     1      -2.834  11.657  18.075  0.00  0.00    +0.000 A 
ATOM      2  N   UNL     1      -3.551  12.206  19.076  0.00  0.00    +0.000 NA
ATOM      3  C   UNL     1      -4.896  12.372  18.914  0.00  0.00    +0.000 A 
ATOM      4  C   UNL     1      -5.719  12.895  19.935  0.00  0.00    +0.000 A 
ATOM      5  C   UNL     1      -7.108  13.016  19.744  0.00  0.00    +0.000 A 
ATOM      6  C   UNL     1      -7.691  12.633  18.546  0.00  0.00    +0.000 A 
ATOM      7  C   UNL     1      -6.881  12.133  17.531  0.00  0.00    +0.000 A 
ATOM      8  C   UNL     1      -5.510  12.002  17.692  0.00  0.00    +0.000 A 
ATOM      9  N   UNL     1      -4.794  11.518  16.665  0.00  0.00    +0.000 NA
ATOM     10  C   UNL     1      -3.460  11.364  16.853  0.00  0.00    +0.000 A 
ATOM     11  C   UNL     1      -2.691  10.818  15.688  0.00  0.00    +0.000 C 
ENDROOT
BRANCH   4  12
ATOM     12  C   UNL     1      -5.158  13.332  21.223  0.00  0.00    +0.000 A 
ATOM     13  C   UNL     1      -5.150  12.714  22.466  0.00  0.00    +0.000 A 
ATOM     14  C   UNL     1      -4.447  13.545  23.370  0.00  0.00    +0.000 A 
ATOM     15  C   UNL     1      -4.076  14.672  22.664  0.00  0.00    +0.000 A 
ATOM     16  N   UNL     1      -4.485  14.531  21.370  0.00  0.00    +0.000 N 
ATOM     17  C   UNL     1      -3.295  15.803  23.224  0.00  0.00    +0.000 C 
ATOM     18  C   UNL     1      -3.335  15.725  24.767  0.00  0.00    +0.000 C 
ATOM     19  N   UNL     1      -3.338  14.370  25.314  0.00  0.00    +0.000 N 
ATOM     20  C   UNL     1      -4.083  13.345  24.761  0.00  0.00    +0.000 C 
ATOM     21  O   UNL     1      -4.375  12.345  25.406  0.00  0.00    +0.000 OA
ATOM     22  H   UNL     1      -4.294  15.161  20.599  0.00  0.00    +0.000 HD
ATOM     23  H   UNL     1      -3.172  14.240  26.303  0.00  0.00    +0.000 HD
ENDBRANCH   4  12
BRANCH   1  24
ATOM     24  N   UNL     1      -1.456  11.450  18.246  0.00  0.00    +0.000 N 
ATOM     25  H   UNL     1      -0.948  11.728  17.410  0.00  0.00    +0.000 HD
BRANCH  24  33
ATOM     26  C   UNL     1      -1.228  12.364  22.080  0.00  0.00    +0.000 C 
ATOM     27  C   UNL     1       0.085  12.148  21.376  0.00  0.00    +0.000 C 
ATOM     28  O   UNL     1       0.990  12.973  21.500  0.00  0.00    +0.000 OA
ATOM     29  N   UNL     1       0.225  10.993  20.624  0.00  0.00    +0.000 N 
ATOM     30  C   UNL     1       1.533  10.663  20.063  0.00  0.00    +0.000 C 
ATOM     31  C   UNL     1       1.482  10.635  18.540  0.00  0.00    +0.000 C 
ATOM     32  C   UNL     1       0.351   9.726  18.045  0.00  0.00    +0.000 C 
ATOM     33  C   UNL     1      -1.018  10.101  18.657  0.00  0.00    +0.000 C 
ATOM     34  C   UNL     1      -0.874  10.102  20.206  0.00  0.00    +0.000 C 
ENDBRANCH  24  33
ENDBRANCH   1  24
TORSDOF 3
ENDMDL
MODEL 9
REMARK VINA RESULT:      -7.8      2.163      5.751
REMARK  Name = 
REMARK  5 active torsions:
REMARK  status: ('A' for Active; 'I' for Inactive)
REMARK    1  A    between atoms: C_1  and  C_2
REMARK    2  A    between atoms: C_8  and  N_9
REMARK    3  A    between atoms: N_9  and  C_10
REMARK    4  A    between atoms: C_13  and  C_14
REMARK    5  A    between atoms: C_29  and  C_30
REMARK                            x       y       z     vdW  Elec       q    Type
REMARK                         _______ _______ _______ _____ _____    ______ ____
ROOT
ATOM      1  C   UNL     1      -2.908  11.164  18.360  0.00  0.00    +0.000 A 
ATOM      2  N   UNL     1      -3.630  11.920  19.209  0.00  0.00    +0.000 NA
ATOM      3  C   UNL     1      -4.890  12.302  18.851  0.00  0.00    +0.000 A 
ATOM      4  C   UNL     1      -5.723  13.054  19.708  0.00  0.00    +0.000 A 
ATOM      5  C   UNL     1      -7.031  13.396  19.317  0.00  0.00    +0.000 A 
ATOM      6  C   UNL     1      -7.521  13.009  18.079  0.00  0.00    +0.000 A 
ATOM      7  C   UNL     1      -6.698  12.284  17.224  0.00  0.00    +0.000 A 
ATOM      8  C   UNL     1      -5.405  11.932  17.583  0.00  0.00    +0.000 A 
ATOM      9  N   UNL     1      -4.669  11.237  16.702  0.00  0.00    +0.000 NA
ATOM     10  C   UNL     1      -3.420  10.871  17.085  0.00  0.00    +0.000 A 
ATOM     11  C   UNL     1      -2.626  10.093  16.080  0.00  0.00    +0.000 C 
ENDROOT
BRANCH   4  12
ATOM     12  C   UNL     1      -5.256  13.505  21.029  0.00  0.00    +0.000 A 
ATOM     13  C   UNL     1      -5.072  14.784  21.537  0.00  0.00    +0.000 A 
ATOM     14  C   UNL     1      -4.636  14.667  22.879  0.00  0.00    +0.000 A 
ATOM     15  C   UNL     1      -4.524  13.317  23.143  0.00  0.00    +0.000 A 
ATOM     16  N   UNL     1      -4.919  12.622  22.038  0.00  0.00    +0.000 N 
ATOM     17  C   UNL     1      -4.114  12.741  24.447  0.00  0.00    +0.000 C 
ATOM     18  C   UNL     1      -3.441  13.844  25.294  0.00  0.00    +0.000 C 
ATOM     19  N   UNL     1      -4.003  15.181  25.121  0.00  0.00    +0.000 N 
ATOM     20  C   UNL     1      -4.371  15.681  23.884  0.00  0.00    +0.000 C 
ATOM     21  O   UNL     1      -4.486  16.885  23.688  0.00  0.00    +0.000 OA
ATOM     22  H   UNL     1      -5.015  11.616  21.953  0.00  0.00    +0.000 HD
ATOM     23  H   UNL     1      -3.747  15.911  25.773  0.00  0.00    +0.000 HD
ENDBRANCH   4  12
BRANCH   1  24
ATOM     24  N   UNL     1      -1.624  10.737  18.734  0.00  0.00    +0.000 N 
ATOM     25  H   UNL     1      -1.562  10.638  19.744  0.00  0.00    +0.000 HD
BRANCH  24  33
ATOM     26  C   UNL     1       1.054   8.669  20.770  0.00  0.00    +0.000 C 
ATOM     27  C   UNL     1       0.793  10.069  21.259  0.00  0.00    +0.000 C 
ATOM     28  O   UNL     1       0.577  10.271  22.454  0.00  0.00    +0.000 OA
ATOM     29  N   UNL     1       0.834  11.090  20.324  0.00  0.00    +0.000 N 
ATOM     30  C   UNL     1       0.753  12.476  20.780  0.00  0.00    +0.000 C 
ATOM     31  C   UNL     1      -0.490  13.162  20.223  0.00  0.00    +0.000 C 
ATOM     32  C   UNL     1      -0.565  13.008  18.699  0.00  0.00    +0.000 C 
ATOM     33  C   UNL     1      -0.476  11.531  18.251  0.00  0.00    +0.000 C 
ATOM     34  C   UNL     1       0.816  10.915  18.859  0.00  0.00    +0.000 C 
ENDBRANCH  24  33
ENDBRANCH   1  24
TORSDOF 3
ENDMDL
