MODEL 1
REMARK VINA RESULT:      -6.0      0.000      0.000
REMARK  Name = 
REMARK  9 active torsions:
REMARK  status: ('A' for Active; 'I' for Inactive)
REMARK    1  A    between atoms: C_1  and  C_2
REMARK    2  A    between atoms: C_2  and  N_3
REMARK    3  A    between atoms: N_3  and  C_4
REMARK    4  A    between atoms: N_3  and  C_6
REMARK    5  A    between atoms: C_4  and  C_5
REMARK    6  A    between atoms: C_6  and  C_7
REMARK    7  A    between atoms: C_6  and  C_8
REMARK    8  A    between atoms: C_8  and  C_9
REMARK    9  A    between atoms: N_11  and  C_12
REMARK                            x       y       z     vdW  Elec       q    Type
REMARK                         _______ _______ _______ _____ _____    ______ ____
ROOT
ATOM      1  C   UNL     1       3.822   4.082  17.252  0.00  0.00    +0.000 C 
ATOM      2  O   UNL     1       4.601   3.461  16.533  0.00  0.00    +0.000 OA
ATOM      3  N   UNL     1       4.139   5.194  18.017  0.00  0.00    +0.000 N 
ATOM      4  H   UNL     1       3.396   5.632  18.547  0.00  0.00    +0.000 HD
ENDROOT
BRANCH   3   5
ATOM      5  C   UNL     1       5.422   5.780  18.153  0.00  0.00    +0.000 A 
ATOM      6  C   UNL     1       5.907   6.786  17.305  0.00  0.00    +0.000 A 
ATOM      7  C   UNL     1       7.203   7.286  17.446  0.00  0.00    +0.000 A 
ATOM      8  C   UNL     1       8.036   6.795  18.442  0.00  0.00    +0.000 A 
ATOM      9  C   UNL     1       7.563   5.819  19.318  0.00  0.00    +0.000 A 
ATOM     10  C   UNL     1       6.260   5.319  19.176  0.00  0.00    +0.000 A 
ENDBRANCH   3   5
BRANCH   1  11
ATOM     11  C   UNL     1       2.369   3.630  17.359  0.00  0.00    +0.000 C 
BRANCH  11  12
ATOM     12  C   UNL     1       2.051   2.810  18.641  0.00  0.00    +0.000 C 
ATOM     13  C   UNL     1       0.528   2.571  18.745  0.00  0.00    +0.000 C 
BRANCH  12  14
ATOM     14  N   UNL     1       2.561   3.475  19.890  0.00  0.00    +0.000 NA
BRANCH  14  16
ATOM     15  C   UNL     1       1.740   5.772  20.644  0.00  0.00    +0.000 C 
ATOM     16  C   UNL     1       1.515   4.263  20.579  0.00  0.00    +0.000 C 
ENDBRANCH  14  16
BRANCH  14  17
ATOM     17  C   UNL     1       3.294   2.585  20.806  0.00  0.00    +0.000 C 
ATOM     18  C   UNL     1       4.624   2.048  20.286  0.00  0.00    +0.000 C 
ENDBRANCH  14  17
ENDBRANCH  12  14
ENDBRANCH  11  12
ENDBRANCH   1  11
TORSDOF 6
ENDMDL
MODEL 2
REMARK VINA RESULT:      -5.9      0.576      1.458
REMARK  Name = 
REMARK  9 active torsions:
REMARK  status: ('A' for Active; 'I' for Inactive)
REMARK    1  A    between atoms: C_1  and  C_2
REMARK    2  A    between atoms: C_2  and  N_3
REMARK    3  A    between atoms: N_3  and  C_4
REMARK    4  A    between atoms: N_3  and  C_6
REMARK    5  A    between atoms: C_4  and  C_5
REMARK    6  A    between atoms: C_6  and  C_7
REMARK    7  A    between atoms: C_6  and  C_8
REMARK    8  A    between atoms: C_8  and  C_9
REMARK    9  A    between atoms: N_11  and  C_12
REMARK                            x       y       z     vdW  Elec       q    Type
REMARK                         _______ _______ _______ _____ _____    ______ ____
ROOT
ATOM      1  C   UNL     1       3.909   4.144  17.208  0.00  0.00    +0.000 C 
ATOM      2  O   UNL     1       4.650   3.556  16.423  0.00  0.00    +0.000 OA
ATOM      3  N   UNL     1       4.273   5.206  18.021  0.00  0.00    +0.000 N 
ATOM      4  H   UNL     1       3.558   5.621  18.605  0.00  0.00    +0.000 HD
ENDROOT
BRANCH   3   5
ATOM      5  C   UNL     1       5.568   5.769  18.137  0.00  0.00    +0.000 A 
ATOM      6  C   UNL     1       6.508   5.353  19.090  0.00  0.00    +0.000 A 
ATOM      7  C   UNL     1       7.750   5.983  19.201  0.00  0.00    +0.000 A 
ATOM      8  C   UNL     1       8.075   7.038  18.360  0.00  0.00    +0.000 A 
ATOM      9  C   UNL     1       7.167   7.446  17.384  0.00  0.00    +0.000 A 
ATOM     10  C   UNL     1       5.922   6.811  17.271  0.00  0.00    +0.000 A 
ENDBRANCH   3   5
BRANCH   1  11
ATOM     11  C   UNL     1       2.456   3.702  17.349  0.00  0.00    +0.000 C 
BRANCH  11  12
ATOM     12  C   UNL     1       2.167   2.864  18.626  0.00  0.00    +0.000 C 
ATOM     13  C   UNL     1       0.703   2.371  18.609  0.00  0.00    +0.000 C 
BRANCH  12  14
ATOM     14  N   UNL     1       2.445   3.628  19.891  0.00  0.00    +0.000 NA
BRANCH  14  16
ATOM     15  C   UNL     1       1.848   6.027  20.530  0.00  0.00    +0.000 C 
ATOM     16  C   UNL     1       1.382   4.609  20.205  0.00  0.00    +0.000 C 
ENDBRANCH  14  16
BRANCH  14  17
ATOM     17  C   UNL     1       2.804   2.793  21.049  0.00  0.00    +0.000 C 
ATOM     18  C   UNL     1       1.665   2.472  22.014  0.00  0.00    +0.000 C 
ENDBRANCH  14  17
ENDBRANCH  12  14
ENDBRANCH  11  12
ENDBRANCH   1  11
TORSDOF 6
ENDMDL
MODEL 3
REMARK VINA RESULT:      -5.9      2.036      5.581
REMARK  Name = 
REMARK  9 active torsions:
REMARK  status: ('A' for Active; 'I' for Inactive)
REMARK    1  A    between atoms: C_1  and  C_2
REMARK    2  A    between atoms: C_2  and  N_3
REMARK    3  A    between atoms: N_3  and  C_4
REMARK    4  A    between atoms: N_3  and  C_6
REMARK    5  A    between atoms: C_4  and  C_5
REMARK    6  A    between atoms: C_6  and  C_7
REMARK    7  A    between atoms: C_6  and  C_8
REMARK    8  A    between atoms: C_8  and  C_9
REMARK    9  A    between atoms: N_11  and  C_12
REMARK                            x       y       z     vdW  Elec       q    Type
REMARK                         _______ _______ _______ _____ _____    ______ ____
ROOT
ATOM      1  C   UNL     1       5.807   4.541  18.872  0.00  0.00    +0.000 C 
ATOM      2  O   UNL     1       5.792   5.328  19.815  0.00  0.00    +0.000 OA
ATOM      3  N   UNL     1       4.802   3.641  18.553  0.00  0.00    +0.000 N 
ATOM      4  H   UNL     1       4.926   3.065  17.730  0.00  0.00    +0.000 HD
ENDROOT
BRANCH   3   5
ATOM      5  C   UNL     1       3.608   3.423  19.284  0.00  0.00    +0.000 A 
ATOM      6  C   UNL     1       2.348   3.860  18.852  0.00  0.00    +0.000 A 
ATOM      7  C   UNL     1       1.210   3.673  19.641  0.00  0.00    +0.000 A 
ATOM      8  C   UNL     1       1.311   3.041  20.873  0.00  0.00    +0.000 A 
ATOM      9  C   UNL     1       2.549   2.569  21.306  0.00  0.00    +0.000 A 
ATOM     10  C   UNL     1       3.690   2.756  20.513  0.00  0.00    +0.000 A 
ENDBRANCH   3   5
BRANCH   1  11
ATOM     11  C   UNL     1       7.015   4.502  17.942  0.00  0.00    +0.000 C 
BRANCH  11  12
ATOM     12  C   UNL     1       6.932   5.495  16.748  0.00  0.00    +0.000 C 
ATOM     13  C   UNL     1       7.450   6.884  17.186  0.00  0.00    +0.000 C 
BRANCH  12  14
ATOM     14  N   UNL     1       5.539   5.610  16.192  0.00  0.00    +0.000 NA
BRANCH  14  16
ATOM     15  C   UNL     1       3.819   7.087  17.366  0.00  0.00    +0.000 C 
ATOM     16  C   UNL     1       4.969   6.964  16.369  0.00  0.00    +0.000 C 
ENDBRANCH  14  16
BRANCH  14  17
ATOM     17  C   UNL     1       5.382   5.105  14.818  0.00  0.00    +0.000 C 
ATOM     18  C   UNL     1       6.441   4.113  14.349  0.00  0.00    +0.000 C 
ENDBRANCH  14  17
ENDBRANCH  12  14
ENDBRANCH  11  12
ENDBRANCH   1  11
TORSDOF 6
ENDMDL
MODEL 4
REMARK VINA RESULT:      -5.9      2.067      5.690
REMARK  Name = 
REMARK  9 active torsions:
REMARK  status: ('A' for Active; 'I' for Inactive)
REMARK    1  A    between atoms: C_1  and  C_2
REMARK    2  A    between atoms: C_2  and  N_3
REMARK    3  A    between atoms: N_3  and  C_4
REMARK    4  A    between atoms: N_3  and  C_6
REMARK    5  A    between atoms: C_4  and  C_5
REMARK    6  A    between atoms: C_6  and  C_7
REMARK    7  A    between atoms: C_6  and  C_8
REMARK    8  A    between atoms: C_8  and  C_9
REMARK    9  A    between atoms: N_11  and  C_12
REMARK                            x       y       z     vdW  Elec       q    Type
REMARK                         _______ _______ _______ _____ _____    ______ ____
ROOT
ATOM      1  C   UNL     1       6.063   4.540  18.925  0.00  0.00    +0.000 C 
ATOM      2  O   UNL     1       6.194   5.210  19.947  0.00  0.00    +0.000 OA
ATOM      3  N   UNL     1       4.952   3.778  18.596  0.00  0.00    +0.000 N 
ATOM      4  H   UNL     1       4.958   3.293  17.708  0.00  0.00    +0.000 HD
ENDROOT
BRANCH   3   5
ATOM      5  C   UNL     1       3.799   3.586  19.396  0.00  0.00    +0.000 A 
ATOM      6  C   UNL     1       3.753   2.710  20.490  0.00  0.00    +0.000 A 
ATOM      7  C   UNL     1       2.572   2.513  21.209  0.00  0.00    +0.000 A 
ATOM      8  C   UNL     1       1.416   3.192  20.850  0.00  0.00    +0.000 A 
ATOM      9  C   UNL     1       1.447   4.094  19.787  0.00  0.00    +0.000 A 
ATOM     10  C   UNL     1       2.635   4.293  19.068  0.00  0.00    +0.000 A 
ENDBRANCH   3   5
BRANCH   1  11
ATOM     11  C   UNL     1       7.190   4.499  17.899  0.00  0.00    +0.000 C 
BRANCH  11  12
ATOM     12  C   UNL     1       7.016   5.503  16.724  0.00  0.00    +0.000 C 
ATOM     13  C   UNL     1       7.431   6.920  17.181  0.00  0.00    +0.000 C 
BRANCH  12  14
ATOM     14  N   UNL     1       5.612   5.520  16.184  0.00  0.00    +0.000 NA
BRANCH  14  16
ATOM     15  C   UNL     1       3.959   7.106  17.311  0.00  0.00    +0.000 C 
ATOM     16  C   UNL     1       5.006   6.870  16.225  0.00  0.00    +0.000 C 
ENDBRANCH  14  16
BRANCH  14  17
ATOM     17  C   UNL     1       5.448   4.866  14.876  0.00  0.00    +0.000 C 
ATOM     18  C   UNL     1       6.736   4.588  14.106  0.00  0.00    +0.000 C 
ENDBRANCH  14  17
ENDBRANCH  12  14
ENDBRANCH  11  12
ENDBRANCH   1  11
TORSDOF 6
ENDMDL
MODEL 5
REMARK VINA RESULT:      -5.9      1.733      5.737
REMARK  Name = 
REMARK  9 active torsions:
REMARK  status: ('A' for Active; 'I' for Inactive)
REMARK    1  A    between atoms: C_1  and  C_2
REMARK    2  A    between atoms: C_2  and  N_3
REMARK    3  A    between atoms: N_3  and  C_4
REMARK    4  A    between atoms: N_3  and  C_6
REMARK    5  A    between atoms: C_4  and  C_5
REMARK    6  A    between atoms: C_6  and  C_7
REMARK    7  A    between atoms: C_6  and  C_8
REMARK    8  A    between atoms: C_8  and  C_9
REMARK    9  A    between atoms: N_11  and  C_12
REMARK                            x       y       z     vdW  Elec       q    Type
REMARK                         _______ _______ _______ _____ _____    ______ ____
ROOT
ATOM      1  C   UNL     1       5.564   4.705  19.304  0.00  0.00    +0.000 C 
ATOM      2  O   UNL     1       5.772   3.508  19.125  0.00  0.00    +0.000 OA
ATOM      3  N   UNL     1       4.327   5.283  19.547  0.00  0.00    +0.000 N 
ATOM      4  H   UNL     1       4.295   6.283  19.706  0.00  0.00    +0.000 HD
ENDROOT
BRANCH   3   5
ATOM      5  C   UNL     1       3.079   4.614  19.576  0.00  0.00    +0.000 A 
ATOM      6  C   UNL     1       2.396   4.304  20.761  0.00  0.00    +0.000 A 
ATOM      7  C   UNL     1       1.196   3.587  20.736  0.00  0.00    +0.000 A 
ATOM      8  C   UNL     1       0.657   3.173  19.526  0.00  0.00    +0.000 A 
ATOM      9  C   UNL     1       1.302   3.500  18.334  0.00  0.00    +0.000 A 
ATOM     10  C   UNL     1       2.505   4.221  18.361  0.00  0.00    +0.000 A 
ENDBRANCH   3   5
BRANCH   1  11
ATOM     11  C   UNL     1       6.728   5.689  19.258  0.00  0.00    +0.000 C 
BRANCH  11  12
ATOM     12  C   UNL     1       7.286   5.946  17.830  0.00  0.00    +0.000 C 
ATOM     13  C   UNL     1       7.674   7.435  17.679  0.00  0.00    +0.000 C 
BRANCH  12  14
ATOM     14  N   UNL     1       6.315   5.549  16.752  0.00  0.00    +0.000 NA
BRANCH  14  16
ATOM     15  C   UNL     1       4.213   6.997  16.734  0.00  0.00    +0.000 C 
ATOM     16  C   UNL     1       5.605   6.711  16.174  0.00  0.00    +0.000 C 
ENDBRANCH  14  16
BRANCH  14  17
ATOM     17  C   UNL     1       6.871   4.656  15.721  0.00  0.00    +0.000 C 
ATOM     18  C   UNL     1       5.848   3.925  14.856  0.00  0.00    +0.000 C 
ENDBRANCH  14  17
ENDBRANCH  12  14
ENDBRANCH  11  12
ENDBRANCH   1  11
TORSDOF 6
ENDMDL
MODEL 6
REMARK VINA RESULT:      -5.8      1.444      1.564
REMARK  Name = 
REMARK  9 active torsions:
REMARK  status: ('A' for Active; 'I' for Inactive)
REMARK    1  A    between atoms: C_1  and  C_2
REMARK    2  A    between atoms: C_2  and  N_3
REMARK    3  A    between atoms: N_3  and  C_4
REMARK    4  A    between atoms: N_3  and  C_6
REMARK    5  A    between atoms: C_4  and  C_5
REMARK    6  A    between atoms: C_6  and  C_7
REMARK    7  A    between atoms: C_6  and  C_8
REMARK    8  A    between atoms: C_8  and  C_9
REMARK    9  A    between atoms: N_11  and  C_12
REMARK                            x       y       z     vdW  Elec       q    Type
REMARK                         _______ _______ _______ _____ _____    ______ ____
ROOT
ATOM      1  C   UNL     1       3.025   5.419  18.325  0.00  0.00    +0.000 C 
ATOM      2  O   UNL     1       2.826   6.358  19.091  0.00  0.00    +0.000 OA
ATOM      3  N   UNL     1       4.255   5.047  17.805  0.00  0.00    +0.000 N 
ATOM      4  H   UNL     1       4.288   4.233  17.203  0.00  0.00    +0.000 HD
ENDROOT
BRANCH   3   5
ATOM      5  C   UNL     1       5.490   5.710  18.014  0.00  0.00    +0.000 A 
ATOM      6  C   UNL     1       5.932   6.785  17.230  0.00  0.00    +0.000 A 
ATOM      7  C   UNL     1       7.186   7.363  17.440  0.00  0.00    +0.000 A 
ATOM      8  C   UNL     1       8.017   6.881  18.441  0.00  0.00    +0.000 A 
ATOM      9  C   UNL     1       7.584   5.835  19.254  0.00  0.00    +0.000 A 
ATOM     10  C   UNL     1       6.324   5.256  19.044  0.00  0.00    +0.000 A 
ENDBRANCH   3   5
BRANCH   1  11
ATOM     11  C   UNL     1       1.853   4.558  17.865  0.00  0.00    +0.000 C 
BRANCH  11  12
ATOM     12  C   UNL     1       1.902   3.091  18.377  0.00  0.00    +0.000 C 
ATOM     13  C   UNL     1       0.481   2.624  18.767  0.00  0.00    +0.000 C 
BRANCH  12  14
ATOM     14  N   UNL     1       2.843   2.918  19.537  0.00  0.00    +0.000 NA
BRANCH  14  16
ATOM     15  C   UNL     1       2.260   3.861  21.836  0.00  0.00    +0.000 C 
ATOM     16  C   UNL     1       2.132   2.728  20.820  0.00  0.00    +0.000 C 
ENDBRANCH  14  16
BRANCH  14  17
ATOM     17  C   UNL     1       3.904   1.918  19.325  0.00  0.00    +0.000 C 
ATOM     18  C   UNL     1       3.936   1.266  17.946  0.00  0.00    +0.000 C 
ENDBRANCH  14  17
ENDBRANCH  12  14
ENDBRANCH  11  12
ENDBRANCH   1  11
TORSDOF 6
ENDMDL
MODEL 7
REMARK VINA RESULT:      -5.7      1.880      5.728
REMARK  Name = 
REMARK  9 active torsions:
REMARK  status: ('A' for Active; 'I' for Inactive)
REMARK    1  A    between atoms: C_1  and  C_2
REMARK    2  A    between atoms: C_2  and  N_3
REMARK    3  A    between atoms: N_3  and  C_4
REMARK    4  A    between atoms: N_3  and  C_6
REMARK    5  A    between atoms: C_4  and  C_5
REMARK    6  A    between atoms: C_6  and  C_7
REMARK    7  A    between atoms: C_6  and  C_8
REMARK    8  A    between atoms: C_8  and  C_9
REMARK    9  A    between atoms: N_11  and  C_12
REMARK                            x       y       z     vdW  Elec       q    Type
REMARK                         _______ _______ _______ _____ _____    ______ ____
ROOT
ATOM      1  C   UNL     1       3.612   6.387  17.740  0.00  0.00    +0.000 C 
ATOM      2  O   UNL     1       2.681   7.139  18.018  0.00  0.00    +0.000 OA
ATOM      3  N   UNL     1       3.711   5.054  18.108  0.00  0.00    +0.000 N 
ATOM      4  H   UNL     1       4.520   4.535  17.791  0.00  0.00    +0.000 HD
ENDROOT
BRANCH   3   5
ATOM      5  C   UNL     1       2.794   4.335  18.913  0.00  0.00    +0.000 A 
ATOM      6  C   UNL     1       1.792   3.505  18.390  0.00  0.00    +0.000 A 
ATOM      7  C   UNL     1       0.874   2.865  19.227  0.00  0.00    +0.000 A 
ATOM      8  C   UNL     1       0.944   3.041  20.602  0.00  0.00    +0.000 A 
ATOM      9  C   UNL     1       1.952   3.836  21.146  0.00  0.00    +0.000 A 
ATOM     10  C   UNL     1       2.875   4.475  20.304  0.00  0.00    +0.000 A 
ENDBRANCH   3   5
BRANCH   1  11
ATOM     11  C   UNL     1       4.792   6.914  16.931  0.00  0.00    +0.000 C 
BRANCH  11  12
ATOM     12  C   UNL     1       6.181   6.596  17.552  0.00  0.00    +0.000 C 
ATOM     13  C   UNL     1       7.221   7.633  17.069  0.00  0.00    +0.000 C 
BRANCH  12  14
ATOM     14  N   UNL     1       6.649   5.202  17.234  0.00  0.00    +0.000 NA
BRANCH  14  16
ATOM     15  C   UNL     1       6.077   3.984  15.064  0.00  0.00    +0.000 C 
ATOM     16  C   UNL     1       6.934   5.016  15.794  0.00  0.00    +0.000 C 
ENDBRANCH  14  16
BRANCH  14  17
ATOM     17  C   UNL     1       7.735   4.706  18.094  0.00  0.00    +0.000 C 
ATOM     18  C   UNL     1       7.922   5.441  19.418  0.00  0.00    +0.000 C 
ENDBRANCH  14  17
ENDBRANCH  12  14
ENDBRANCH  11  12
ENDBRANCH   1  11
TORSDOF 6
ENDMDL
MODEL 8
REMARK VINA RESULT:      -5.7      1.910      5.805
REMARK  Name = 
REMARK  9 active torsions:
REMARK  status: ('A' for Active; 'I' for Inactive)
REMARK    1  A    between atoms: C_1  and  C_2
REMARK    2  A    between atoms: C_2  and  N_3
REMARK    3  A    between atoms: N_3  and  C_4
REMARK    4  A    between atoms: N_3  and  C_6
REMARK    5  A    between atoms: C_4  and  C_5
REMARK    6  A    between atoms: C_6  and  C_7
REMARK    7  A    between atoms: C_6  and  C_8
REMARK    8  A    between atoms: C_8  and  C_9
REMARK    9  A    between atoms: N_11  and  C_12
REMARK                            x       y       z     vdW  Elec       q    Type
REMARK                         _______ _______ _______ _____ _____    ______ ____
ROOT
ATOM      1  C   UNL     1       3.612   6.504  17.769  0.00  0.00    +0.000 C 
ATOM      2  O   UNL     1       2.673   7.263  17.996  0.00  0.00    +0.000 OA
ATOM      3  N   UNL     1       3.705   5.185  18.186  0.00  0.00    +0.000 N 
ATOM      4  H   UNL     1       4.523   4.658  17.908  0.00  0.00    +0.000 HD
ENDROOT
BRANCH   3   5
ATOM      5  C   UNL     1       2.769   4.492  18.993  0.00  0.00    +0.000 A 
ATOM      6  C   UNL     1       2.726   4.597  20.390  0.00  0.00    +0.000 A 
ATOM      7  C   UNL     1       1.821   3.844  21.143  0.00  0.00    +0.000 A 
ATOM      8  C   UNL     1       0.941   2.977  20.511  0.00  0.00    +0.000 A 
ATOM      9  C   UNL     1       0.944   2.882  19.120  0.00  0.00    +0.000 A 
ATOM     10  C   UNL     1       1.851   3.640  18.366  0.00  0.00    +0.000 A 
ENDBRANCH   3   5
BRANCH   1  11
ATOM     11  C   UNL     1       4.812   7.006  16.971  0.00  0.00    +0.000 C 
BRANCH  11  12
ATOM     12  C   UNL     1       6.188   6.632  17.590  0.00  0.00    +0.000 C 
ATOM     13  C   UNL     1       7.249   7.679  17.180  0.00  0.00    +0.000 C 
BRANCH  12  14
ATOM     14  N   UNL     1       6.639   5.252  17.200  0.00  0.00    +0.000 NA
BRANCH  14  16
ATOM     15  C   UNL     1       6.186   3.992  15.026  0.00  0.00    +0.000 C 
ATOM     16  C   UNL     1       6.901   5.132  15.748  0.00  0.00    +0.000 C 
ENDBRANCH  14  16
BRANCH  14  17
ATOM     17  C   UNL     1       7.735   4.708  18.019  0.00  0.00    +0.000 C 
ATOM     18  C   UNL     1       7.921   5.350  19.390  0.00  0.00    +0.000 C 
ENDBRANCH  14  17
ENDBRANCH  12  14
ENDBRANCH  11  12
ENDBRANCH   1  11
TORSDOF 6
ENDMDL
MODEL 9
REMARK VINA RESULT:      -5.6      1.966      6.085
REMARK  Name = 
REMARK  9 active torsions:
REMARK  status: ('A' for Active; 'I' for Inactive)
REMARK    1  A    between atoms: C_1  and  C_2
REMARK    2  A    between atoms: C_2  and  N_3
REMARK    3  A    between atoms: N_3  and  C_4
REMARK    4  A    between atoms: N_3  and  C_6
REMARK    5  A    between atoms: C_4  and  C_5
REMARK    6  A    between atoms: C_6  and  C_7
REMARK    7  A    between atoms: C_6  and  C_8
REMARK    8  A    between atoms: C_8  and  C_9
REMARK    9  A    between atoms: N_11  and  C_12
REMARK                            x       y       z     vdW  Elec       q    Type
REMARK                         _______ _______ _______ _____ _____    ______ ____
ROOT
ATOM      1  C   UNL     1       4.440   5.942  18.417  0.00  0.00    +0.000 C 
ATOM      2  O   UNL     1       5.051   5.420  19.346  0.00  0.00    +0.000 OA
ATOM      3  N   UNL     1       3.122   5.685  18.071  0.00  0.00    +0.000 N 
ATOM      4  H   UNL     1       2.726   6.205  17.298  0.00  0.00    +0.000 HD
ENDROOT
BRANCH   3   5
ATOM      5  C   UNL     1       2.263   4.739  18.682  0.00  0.00    +0.000 A 
ATOM      6  C   UNL     1       1.756   4.882  19.982  0.00  0.00    +0.000 A 
ATOM      7  C   UNL     1       0.961   3.889  20.560  0.00  0.00    +0.000 A 
ATOM      8  C   UNL     1       0.654   2.739  19.847  0.00  0.00    +0.000 A 
ATOM      9  C   UNL     1       1.119   2.591  18.542  0.00  0.00    +0.000 A 
ATOM     10  C   UNL     1       1.915   3.590  17.961  0.00  0.00    +0.000 A 
ENDBRANCH   3   5
BRANCH   1  11
ATOM     11  C   UNL     1       5.144   6.963  17.529  0.00  0.00    +0.000 C 
BRANCH  11  12
ATOM     12  C   UNL     1       6.670   6.716  17.365  0.00  0.00    +0.000 C 
ATOM     13  C   UNL     1       7.417   8.068  17.313  0.00  0.00    +0.000 C 
BRANCH  12  14
ATOM     14  N   UNL     1       6.993   5.896  16.146  0.00  0.00    +0.000 NA
BRANCH  14  16
ATOM     15  C   UNL     1       7.980   4.385  17.952  0.00  0.00    +0.000 C 
ATOM     16  C   UNL     1       7.600   4.590  16.488  0.00  0.00    +0.000 C 
ENDBRANCH  14  16
BRANCH  14  17
ATOM     17  C   UNL     1       5.890   5.771  15.178  0.00  0.00    +0.000 C 
ATOM     18  C   UNL     1       5.482   4.346  14.817  0.00  0.00    +0.000 C 
ENDBRANCH  14  17
ENDBRANCH  12  14
ENDBRANCH  11  12
ENDBRANCH   1  11
TORSDOF 6
ENDMDL
