MODEL 1
REMARK VINA RESULT:      -8.9      0.000      0.000
REMARK  Name = 
REMARK  4 active torsions:
REMARK  status: ('A' for Active; 'I' for Inactive)
REMARK    1  A    between atoms: C_1  and  O_2
REMARK    2  A    between atoms: O_2  and  C_3
REMARK    3  A    between atoms: C_5  and  C_6
REMARK    4  A    between atoms: C_21  and  C_22
REMARK                            x       y       z     vdW  Elec       q    Type
REMARK                         _______ _______ _______ _____ _____    ______ ____
ROOT
ATOM      1  C   UNL     1       1.716   9.919  18.109  0.00  0.00    +0.000 C 
ATOM      2  O   UNL     1       2.641  10.590  17.610  0.00  0.00    +0.000 OA
ATOM      3  N   UNL     1       0.540  10.672  18.631  0.00  0.00    +0.000 N 
ATOM      4  C   UNL     1       0.889  12.148  18.717  0.00  0.00    +0.000 C 
ATOM      5  C   UNL     1       0.659  12.741  20.091  0.00  0.00    +0.000 C 
ATOM      6  C   UNL     1      -0.780  13.157  20.111  0.00  0.00    +0.000 C 
ATOM      7  O   UNL     1      -1.178  14.259  19.785  0.00  0.00    +0.000 OA
ATOM      8  N   UNL     1      -1.577  12.045  20.356  0.00  0.00    +0.000 N 
ATOM      9  C   UNL     1      -1.915  11.327  19.179  0.00  0.00    +0.000 A 
ATOM     10  C   UNL     1      -3.282  11.488  18.862  0.00  0.00    +0.000 A 
ATOM     11  C   UNL     1      -3.781  10.944  17.699  0.00  0.00    +0.000 A 
ATOM     12  C   UNL     1      -2.910  10.229  16.869  0.00  0.00    +0.000 A 
ATOM     13  C   UNL     1      -1.519  10.034  17.217  0.00  0.00    +0.000 A 
ATOM     14  C   UNL     1      -0.955  10.571  18.383  0.00  0.00    +0.000 A 
ATOM     15  H   UNL     1      -1.093  11.415  20.981  0.00  0.00    +0.000 HD
ENDROOT
BRANCH   1  18
ATOM     16  C   UNL     1       2.195   6.472  19.878  0.00  0.00    +0.000 A 
ATOM     17  C   UNL     1       1.714   7.732  19.471  0.00  0.00    +0.000 A 
ATOM     18  C   UNL     1       2.213   8.457  18.300  0.00  0.00    +0.000 A 
ATOM     19  C   UNL     1       3.193   7.789  17.557  0.00  0.00    +0.000 A 
ATOM     20  C   UNL     1       3.712   6.499  17.954  0.00  0.00    +0.000 A 
ATOM     21  C   UNL     1       3.199   5.890  19.117  0.00  0.00    +0.000 A 
BRANCH  20  22
ATOM     22  C   UNL     1       4.815   5.797  17.220  0.00  0.00    +0.000 A 
ATOM     23  C   UNL     1       6.101   6.343  17.190  0.00  0.00    +0.000 A 
ATOM     24  C   UNL     1       7.140   5.729  16.472  0.00  0.00    +0.000 A 
ATOM     25  C   UNL     1       6.918   4.536  15.794  0.00  0.00    +0.000 A 
ATOM     26  C   UNL     1       5.665   3.932  15.859  0.00  0.00    +0.000 A 
ATOM     27  C   UNL     1       4.628   4.553  16.563  0.00  0.00    +0.000 A 
ENDBRANCH  20  22
BRANCH  16  29
ATOM     28  C   UNL     1       1.644   4.309  20.883  0.00  0.00    +0.000 C 
ATOM     29  O   UNL     1       1.896   5.699  20.961  0.00  0.00    +0.000 OA
ENDBRANCH  16  29
ENDBRANCH   1  18
TORSDOF 3
ENDMDL
MODEL 2
REMARK VINA RESULT:      -8.6      1.405      3.401
REMARK  Name = 
REMARK  4 active torsions:
REMARK  status: ('A' for Active; 'I' for Inactive)
REMARK    1  A    between atoms: C_1  and  O_2
REMARK    2  A    between atoms: O_2  and  C_3
REMARK    3  A    between atoms: C_5  and  C_6
REMARK    4  A    between atoms: C_21  and  C_22
REMARK                            x       y       z     vdW  Elec       q    Type
REMARK                         _______ _______ _______ _____ _____    ______ ____
ROOT
ATOM      1  C   UNL     1       1.959   9.888  17.979  0.00  0.00    +0.000 C 
ATOM      2  O   UNL     1       2.826  10.659  17.519  0.00  0.00    +0.000 OA
ATOM      3  N   UNL     1       0.724  10.513  18.533  0.00  0.00    +0.000 N 
ATOM      4  C   UNL     1       0.949  12.006  18.696  0.00  0.00    +0.000 C 
ATOM      5  C   UNL     1       0.670  12.507  20.097  0.00  0.00    +0.000 C 
ATOM      6  C   UNL     1      -0.799  12.800  20.132  0.00  0.00    +0.000 C 
ATOM      7  O   UNL     1      -1.287  13.880  19.860  0.00  0.00    +0.000 OA
ATOM      8  N   UNL     1      -1.500  11.614  20.317  0.00  0.00    +0.000 N 
ATOM      9  C   UNL     1      -1.777  10.932  19.103  0.00  0.00    +0.000 A 
ATOM     10  C   UNL     1      -3.152  10.994  18.789  0.00  0.00    +0.000 A 
ATOM     11  C   UNL     1      -3.604  10.471  17.597  0.00  0.00    +0.000 A 
ATOM     12  C   UNL     1      -2.676   9.874  16.735  0.00  0.00    +0.000 A 
ATOM     13  C   UNL     1      -1.273   9.778  17.079  0.00  0.00    +0.000 A 
ATOM     14  C   UNL     1      -0.756  10.300  18.274  0.00  0.00    +0.000 A 
ATOM     15  H   UNL     1      -0.966  10.996  20.911  0.00  0.00    +0.000 HD
ENDROOT
BRANCH   1  18
ATOM     16  C   UNL     1       4.235   6.854  17.055  0.00  0.00    +0.000 A 
ATOM     17  C   UNL     1       3.684   8.143  17.193  0.00  0.00    +0.000 A 
ATOM     18  C   UNL     1       2.577   8.465  18.098  0.00  0.00    +0.000 A 
ATOM     19  C   UNL     1       2.114   7.399  18.877  0.00  0.00    +0.000 A 
ATOM     20  C   UNL     1       2.655   6.064  18.752  0.00  0.00    +0.000 A 
ATOM     21  C   UNL     1       3.695   5.837  17.829  0.00  0.00    +0.000 A 
BRANCH  20  22
ATOM     22  C   UNL     1       2.125   4.889  19.518  0.00  0.00    +0.000 A 
ATOM     23  C   UNL     1       2.397   4.755  20.882  0.00  0.00    +0.000 A 
ATOM     24  C   UNL     1       1.950   3.642  21.611  0.00  0.00    +0.000 A 
ATOM     25  C   UNL     1       1.193   2.653  20.994  0.00  0.00    +0.000 A 
ATOM     26  C   UNL     1       0.849   2.790  19.652  0.00  0.00    +0.000 A 
ATOM     27  C   UNL     1       1.307   3.893  18.924  0.00  0.00    +0.000 A 
ENDBRANCH  20  22
BRANCH  16  29
ATOM     28  C   UNL     1       5.296   5.016  15.835  0.00  0.00    +0.000 C 
ATOM     29  O   UNL     1       5.206   6.372  16.227  0.00  0.00    +0.000 OA
ENDBRANCH  16  29
ENDBRANCH   1  18
TORSDOF 3
ENDMDL
MODEL 3
REMARK VINA RESULT:      -7.9      2.169      2.776
REMARK  Name = 
REMARK  4 active torsions:
REMARK  status: ('A' for Active; 'I' for Inactive)
REMARK    1  A    between atoms: C_1  and  O_2
REMARK    2  A    between atoms: O_2  and  C_3
REMARK    3  A    between atoms: C_5  and  C_6
REMARK    4  A    between atoms: C_21  and  C_22
REMARK                            x       y       z     vdW  Elec       q    Type
REMARK                         _______ _______ _______ _____ _____    ______ ____
ROOT
ATOM      1  C   UNL     1       1.463   8.795  21.092  0.00  0.00    +0.000 C 
ATOM      2  O   UNL     1       1.907   8.673  22.251  0.00  0.00    +0.000 OA
ATOM      3  N   UNL     1       0.608   9.985  20.817  0.00  0.00    +0.000 N 
ATOM      4  C   UNL     1       0.209  10.629  22.134  0.00  0.00    +0.000 C 
ATOM      5  C   UNL     1      -1.288  10.795  22.294  0.00  0.00    +0.000 C 
ATOM      6  C   UNL     1      -1.616  12.103  21.640  0.00  0.00    +0.000 C 
ATOM      7  O   UNL     1      -1.633  13.172  22.221  0.00  0.00    +0.000 OA
ATOM      8  N   UNL     1      -1.689  11.924  20.264  0.00  0.00    +0.000 N 
ATOM      9  C   UNL     1      -0.431  12.042  19.615  0.00  0.00    +0.000 A 
ATOM     10  C   UNL     1      -0.364  13.229  18.853  0.00  0.00    +0.000 A 
ATOM     11  C   UNL     1       0.814  13.569  18.225  0.00  0.00    +0.000 A 
ATOM     12  C   UNL     1       1.912  12.710  18.353  0.00  0.00    +0.000 A 
ATOM     13  C   UNL     1       1.826  11.476  19.104  0.00  0.00    +0.000 A 
ATOM     14  C   UNL     1       0.656  11.083  19.770  0.00  0.00    +0.000 A 
ATOM     15  H   UNL     1      -2.062  11.007  20.063  0.00  0.00    +0.000 HD
ENDROOT
BRANCH   1  18
ATOM     16  C   UNL     1       1.411   4.949  20.424  0.00  0.00    +0.000 A 
ATOM     17  C   UNL     1       1.135   6.247  20.898  0.00  0.00    +0.000 A 
ATOM     18  C   UNL     1       1.714   7.465  20.324  0.00  0.00    +0.000 A 
ATOM     19  C   UNL     1       2.545   7.267  19.216  0.00  0.00    +0.000 A 
ATOM     20  C   UNL     1       2.852   5.947  18.712  0.00  0.00    +0.000 A 
ATOM     21  C   UNL     1       2.280   4.828  19.348  0.00  0.00    +0.000 A 
BRANCH  20  22
ATOM     22  C   UNL     1       3.799   5.703  17.575  0.00  0.00    +0.000 A 
ATOM     23  C   UNL     1       4.416   6.777  16.928  0.00  0.00    +0.000 A 
ATOM     24  C   UNL     1       5.271   6.577  15.833  0.00  0.00    +0.000 A 
ATOM     25  C   UNL     1       5.550   5.292  15.383  0.00  0.00    +0.000 A 
ATOM     26  C   UNL     1       5.004   4.198  16.048  0.00  0.00    +0.000 A 
ATOM     27  C   UNL     1       4.141   4.400  17.129  0.00  0.00    +0.000 A 
ENDBRANCH  20  22
BRANCH  16  29
ATOM     28  C   UNL     1       1.842   2.876  21.651  0.00  0.00    +0.000 C 
ATOM     29  O   UNL     1       1.019   3.723  20.873  0.00  0.00    +0.000 OA
ENDBRANCH  16  29
ENDBRANCH   1  18
TORSDOF 3
ENDMDL
MODEL 4
REMARK VINA RESULT:      -7.7      2.826      8.252
REMARK  Name = 
REMARK  4 active torsions:
REMARK  status: ('A' for Active; 'I' for Inactive)
REMARK    1  A    between atoms: C_1  and  O_2
REMARK    2  A    between atoms: O_2  and  C_3
REMARK    3  A    between atoms: C_5  and  C_6
REMARK    4  A    between atoms: C_21  and  C_22
REMARK                            x       y       z     vdW  Elec       q    Type
REMARK                         _______ _______ _______ _____ _____    ______ ____
ROOT
ATOM      1  C   UNL     1       2.485   7.290  18.710  0.00  0.00    +0.000 C 
ATOM      2  O   UNL     1       3.539   7.760  18.237  0.00  0.00    +0.000 OA
ATOM      3  N   UNL     1       2.333   5.807  18.682  0.00  0.00    +0.000 N 
ATOM      4  C   UNL     1       3.396   5.213  17.774  0.00  0.00    +0.000 C 
ATOM      5  C   UNL     1       2.828   4.325  16.686  0.00  0.00    +0.000 C 
ATOM      6  C   UNL     1       2.704   2.966  17.305  0.00  0.00    +0.000 C 
ATOM      7  O   UNL     1       3.574   2.117  17.272  0.00  0.00    +0.000 OA
ATOM      8  N   UNL     1       1.549   2.916  18.077  0.00  0.00    +0.000 N 
ATOM      9  C   UNL     1       1.741   3.382  19.404  0.00  0.00    +0.000 A 
ATOM     10  C   UNL     1       1.684   2.316  20.328  0.00  0.00    +0.000 A 
ATOM     11  C   UNL     1       1.943   2.554  21.660  0.00  0.00    +0.000 A 
ATOM     12  C   UNL     1       2.242   3.862  22.059  0.00  0.00    +0.000 A 
ATOM     13  C   UNL     1       2.261   4.958  21.114  0.00  0.00    +0.000 A 
ATOM     14  C   UNL     1       2.014   4.773  19.746  0.00  0.00    +0.000 A 
ATOM     15  H   UNL     1       0.831   3.482  17.645  0.00  0.00    +0.000 HD
ENDROOT
BRANCH   1  18
ATOM     16  C   UNL     1       0.568  10.066  20.674  0.00  0.00    +0.000 A 
ATOM     17  C   UNL     1       1.516   9.115  20.250  0.00  0.00    +0.000 A 
ATOM     18  C   UNL     1       1.483   8.459  18.940  0.00  0.00    +0.000 A 
ATOM     19  C   UNL     1       0.454   8.875  18.089  0.00  0.00    +0.000 A 
ATOM     20  C   UNL     1      -0.538   9.844  18.500  0.00  0.00    +0.000 A 
ATOM     21  C   UNL     1      -0.451  10.398  19.793  0.00  0.00    +0.000 A 
BRANCH  20  22
ATOM     22  C   UNL     1      -1.695  10.250  17.637  0.00  0.00    +0.000 A 
ATOM     23  C   UNL     1      -2.594  11.225  18.075  0.00  0.00    +0.000 A 
ATOM     24  C   UNL     1      -3.710  11.590  17.306  0.00  0.00    +0.000 A 
ATOM     25  C   UNL     1      -3.931  11.006  16.064  0.00  0.00    +0.000 A 
ATOM     26  C   UNL     1      -3.018  10.079  15.570  0.00  0.00    +0.000 A 
ATOM     27  C   UNL     1      -1.915   9.706  16.344  0.00  0.00    +0.000 A 
ENDBRANCH  20  22
BRANCH  16  29
ATOM     28  C   UNL     1      -0.447  10.266  22.893  0.00  0.00    +0.000 C 
ATOM     29  O   UNL     1       0.412  10.716  21.864  0.00  0.00    +0.000 OA
ENDBRANCH  16  29
ENDBRANCH   1  18
TORSDOF 3
ENDMDL
MODEL 5
REMARK VINA RESULT:      -7.4      3.195      8.560
REMARK  Name = 
REMARK  4 active torsions:
REMARK  status: ('A' for Active; 'I' for Inactive)
REMARK    1  A    between atoms: C_1  and  O_2
REMARK    2  A    between atoms: O_2  and  C_3
REMARK    3  A    between atoms: C_5  and  C_6
REMARK    4  A    between atoms: C_21  and  C_22
REMARK                            x       y       z     vdW  Elec       q    Type
REMARK                         _______ _______ _______ _____ _____    ______ ____
ROOT
ATOM      1  C   UNL     1       3.006   6.888  18.607  0.00  0.00    +0.000 C 
ATOM      2  O   UNL     1       4.126   7.133  18.115  0.00  0.00    +0.000 OA
ATOM      3  N   UNL     1       2.586   5.458  18.656  0.00  0.00    +0.000 N 
ATOM      4  C   UNL     1       3.519   4.634  17.786  0.00  0.00    +0.000 C 
ATOM      5  C   UNL     1       2.796   3.807  16.743  0.00  0.00    +0.000 C 
ATOM      6  C   UNL     1       2.429   2.528  17.432  0.00  0.00    +0.000 C 
ATOM      7  O   UNL     1       3.130   1.535  17.449  0.00  0.00    +0.000 OA
ATOM      8  N   UNL     1       1.287   2.730  18.198  0.00  0.00    +0.000 N 
ATOM      9  C   UNL     1       1.565   3.222  19.501  0.00  0.00    +0.000 A 
ATOM     10  C   UNL     1       1.318   2.235  20.479  0.00  0.00    +0.000 A 
ATOM     11  C   UNL     1       1.622   2.492  21.798  0.00  0.00    +0.000 A 
ATOM     12  C   UNL     1       2.155   3.743  22.130  0.00  0.00    +0.000 A 
ATOM     13  C   UNL     1       2.369   4.765  21.129  0.00  0.00    +0.000 A 
ATOM     14  C   UNL     1       2.088   4.557  19.771  0.00  0.00    +0.000 A 
ATOM     15  H   UNL     1       0.682   3.393  17.734  0.00  0.00    +0.000 HD
ENDROOT
BRANCH   1  18
ATOM     16  C   UNL     1       2.088  10.625  17.950  0.00  0.00    +0.000 A 
ATOM     17  C   UNL     1       2.567   9.306  17.832  0.00  0.00    +0.000 A 
ATOM     18  C   UNL     1       2.234   8.230  18.769  0.00  0.00    +0.000 A 
ATOM     19  C   UNL     1       1.349   8.582  19.793  0.00  0.00    +0.000 A 
ATOM     20  C   UNL     1       0.846   9.930  19.944  0.00  0.00    +0.000 A 
ATOM     21  C   UNL     1       1.249  10.912  19.018  0.00  0.00    +0.000 A 
BRANCH  20  22
ATOM     22  C   UNL     1      -0.041  10.352  21.077  0.00  0.00    +0.000 A 
ATOM     23  C   UNL     1      -0.868  11.471  20.945  0.00  0.00    +0.000 A 
ATOM     24  C   UNL     1      -1.674  11.913  22.006  0.00  0.00    +0.000 A 
ATOM     25  C   UNL     1      -1.691  11.223  23.213  0.00  0.00    +0.000 A 
ATOM     26  C   UNL     1      -0.928  10.067  23.353  0.00  0.00    +0.000 A 
ATOM     27  C   UNL     1      -0.116   9.637  22.300  0.00  0.00    +0.000 A 
ENDBRANCH  20  22
BRANCH  16  29
ATOM     28  C   UNL     1       2.588  13.016  17.795  0.00  0.00    +0.000 C 
ATOM     29  O   UNL     1       2.346  11.747  17.219  0.00  0.00    +0.000 OA
ENDBRANCH  16  29
ENDBRANCH   1  18
TORSDOF 3
ENDMDL
MODEL 6
REMARK VINA RESULT:      -7.4      2.137      4.032
REMARK  Name = 
REMARK  4 active torsions:
REMARK  status: ('A' for Active; 'I' for Inactive)
REMARK    1  A    between atoms: C_1  and  O_2
REMARK    2  A    between atoms: O_2  and  C_3
REMARK    3  A    between atoms: C_5  and  C_6
REMARK    4  A    between atoms: C_21  and  C_22
REMARK                            x       y       z     vdW  Elec       q    Type
REMARK                         _______ _______ _______ _____ _____    ______ ____
ROOT
ATOM      1  C   UNL     1       1.111   9.339  18.414  0.00  0.00    +0.000 C 
ATOM      2  O   UNL     1       0.565   9.292  17.294  0.00  0.00    +0.000 OA
ATOM      3  N   UNL     1       0.859  10.554  19.240  0.00  0.00    +0.000 N 
ATOM      4  C   UNL     1       0.224  11.625  18.371  0.00  0.00    +0.000 C 
ATOM      5  C   UNL     1       0.972  12.942  18.398  0.00  0.00    +0.000 C 
ATOM      6  C   UNL     1       0.428  13.685  19.581  0.00  0.00    +0.000 C 
ATOM      7  O   UNL     1      -0.517  14.448  19.534  0.00  0.00    +0.000 OA
ATOM      8  N   UNL     1       1.034  13.211  20.739  0.00  0.00    +0.000 N 
ATOM      9  C   UNL     1       0.380  12.078  21.290  0.00  0.00    +0.000 A 
ATOM     10  C   UNL     1      -0.284  12.410  22.492  0.00  0.00    +0.000 A 
ATOM     11  C   UNL     1      -1.057  11.463  23.127  0.00  0.00    +0.000 A 
ATOM     12  C   UNL     1      -1.147  10.185  22.563  0.00  0.00    +0.000 A 
ATOM     13  C   UNL     1      -0.433   9.839  21.353  0.00  0.00    +0.000 A 
ATOM     14  C   UNL     1       0.361  10.763  20.659  0.00  0.00    +0.000 A 
ATOM     15  H   UNL     1       1.991  12.956  20.539  0.00  0.00    +0.000 HD
ENDROOT
BRANCH   1  18
ATOM     16  C   UNL     1       4.195   7.186  17.366  0.00  0.00    +0.000 A 
ATOM     17  C   UNL     1       3.264   8.230  17.534  0.00  0.00    +0.000 A 
ATOM     18  C   UNL     1       2.163   8.194  18.499  0.00  0.00    +0.000 A 
ATOM     19  C   UNL     1       2.111   7.050  19.303  0.00  0.00    +0.000 A 
ATOM     20  C   UNL     1       3.048   5.960  19.150  0.00  0.00    +0.000 A 
ATOM     21  C   UNL     1       4.055   6.063  18.170  0.00  0.00    +0.000 A 
BRANCH  20  22
ATOM     22  C   UNL     1       2.968   4.691  19.945  0.00  0.00    +0.000 A 
ATOM     23  C   UNL     1       2.015   4.553  20.958  0.00  0.00    +0.000 A 
ATOM     24  C   UNL     1       1.949   3.393  21.746  0.00  0.00    +0.000 A 
ATOM     25  C   UNL     1       2.819   2.334  21.515  0.00  0.00    +0.000 A 
ATOM     26  C   UNL     1       3.736   2.414  20.471  0.00  0.00    +0.000 A 
ATOM     27  C   UNL     1       3.809   3.576  19.696  0.00  0.00    +0.000 A 
ENDBRANCH  20  22
BRANCH  16  29
ATOM     28  C   UNL     1       5.410   5.866  15.702  0.00  0.00    +0.000 C 
ATOM     29  O   UNL     1       5.225   7.028  16.486  0.00  0.00    +0.000 OA
ENDBRANCH  16  29
ENDBRANCH   1  18
TORSDOF 3
ENDMDL
MODEL 7
REMARK VINA RESULT:      -7.3      2.109      2.479
REMARK  Name = 
REMARK  4 active torsions:
REMARK  status: ('A' for Active; 'I' for Inactive)
REMARK    1  A    between atoms: C_1  and  O_2
REMARK    2  A    between atoms: O_2  and  C_3
REMARK    3  A    between atoms: C_5  and  C_6
REMARK    4  A    between atoms: C_21  and  C_22
REMARK                            x       y       z     vdW  Elec       q    Type
REMARK                         _______ _______ _______ _____ _____    ______ ____
ROOT
ATOM      1  C   UNL     1       1.550   9.195  18.294  0.00  0.00    +0.000 C 
ATOM      2  O   UNL     1       1.233   9.247  17.089  0.00  0.00    +0.000 OA
ATOM      3  N   UNL     1       1.468  10.466  19.070  0.00  0.00    +0.000 N 
ATOM      4  C   UNL     1       1.310  11.630  18.108  0.00  0.00    +0.000 C 
ATOM      5  C   UNL     1       2.354  12.711  18.296  0.00  0.00    +0.000 C 
ATOM      6  C   UNL     1       1.807  13.613  19.360  0.00  0.00    +0.000 C 
ATOM      7  O   UNL     1       1.118  14.591  19.140  0.00  0.00    +0.000 OA
ATOM      8  N   UNL     1       2.037  13.045  20.608  0.00  0.00    +0.000 N 
ATOM      9  C   UNL     1       1.019  12.139  21.008  0.00  0.00    +0.000 A 
ATOM     10  C   UNL     1       0.249  12.676  22.062  0.00  0.00    +0.000 A 
ATOM     11  C   UNL     1      -0.850  11.985  22.524  0.00  0.00    +0.000 A 
ATOM     12  C   UNL     1      -1.158  10.752  21.937  0.00  0.00    +0.000 A 
ATOM     13  C   UNL     1      -0.342  10.188  20.884  0.00  0.00    +0.000 A 
ATOM     14  C   UNL     1       0.781  10.850  20.368  0.00  0.00    +0.000 A 
ATOM     15  H   UNL     1       2.915  12.545  20.593  0.00  0.00    +0.000 HD
ENDROOT
BRANCH   1  18
ATOM     16  C   UNL     1       2.464   5.946  20.255  0.00  0.00    +0.000 A 
ATOM     17  C   UNL     1       1.825   7.107  19.778  0.00  0.00    +0.000 A 
ATOM     18  C   UNL     1       2.232   7.823  18.567  0.00  0.00    +0.000 A 
ATOM     19  C   UNL     1       3.295   7.248  17.861  0.00  0.00    +0.000 A 
ATOM     20  C   UNL     1       3.975   6.060  18.329  0.00  0.00    +0.000 A 
ATOM     21  C   UNL     1       3.539   5.457  19.526  0.00  0.00    +0.000 A 
BRANCH  20  22
ATOM     22  C   UNL     1       5.164   5.468  17.634  0.00  0.00    +0.000 A 
ATOM     23  C   UNL     1       6.352   5.246  18.335  0.00  0.00    +0.000 A 
ATOM     24  C   UNL     1       7.493   4.735  17.696  0.00  0.00    +0.000 A 
ATOM     25  C   UNL     1       7.456   4.406  16.346  0.00  0.00    +0.000 A 
ATOM     26  C   UNL     1       6.268   4.553  15.636  0.00  0.00    +0.000 A 
ATOM     27  C   UNL     1       5.137   5.076  16.270  0.00  0.00    +0.000 A 
ENDBRANCH  20  22
BRANCH  16  29
ATOM     28  C   UNL     1       1.971   3.819  21.361  0.00  0.00    +0.000 C 
ATOM     29  O   UNL     1       2.262   5.202  21.380  0.00  0.00    +0.000 OA
ENDBRANCH  16  29
ENDBRANCH   1  18
TORSDOF 3
ENDMDL
MODEL 8
REMARK VINA RESULT:      -7.2      2.219      4.239
REMARK  Name = 
REMARK  4 active torsions:
REMARK  status: ('A' for Active; 'I' for Inactive)
REMARK    1  A    between atoms: C_1  and  O_2
REMARK    2  A    between atoms: O_2  and  C_3
REMARK    3  A    between atoms: C_5  and  C_6
REMARK    4  A    between atoms: C_21  and  C_22
REMARK                            x       y       z     vdW  Elec       q    Type
REMARK                         _______ _______ _______ _____ _____    ______ ____
ROOT
ATOM      1  C   UNL     1       0.612   9.839  18.539  0.00  0.00    +0.000 C 
ATOM      2  O   UNL     1       0.013   9.779  17.447  0.00  0.00    +0.000 OA
ATOM      3  N   UNL     1       0.499  11.114  19.304  0.00  0.00    +0.000 N 
ATOM      4  C   UNL     1      -0.085  12.187  18.402  0.00  0.00    +0.000 C 
ATOM      5  C   UNL     1       0.768  13.436  18.322  0.00  0.00    +0.000 C 
ATOM      6  C   UNL     1       0.343  14.284  19.482  0.00  0.00    +0.000 C 
ATOM      7  O   UNL     1      -0.538  15.121  19.430  0.00  0.00    +0.000 OA
ATOM      8  N   UNL     1       0.961  13.824  20.639  0.00  0.00    +0.000 N 
ATOM      9  C   UNL     1       0.242  12.781  21.281  0.00  0.00    +0.000 A 
ATOM     10  C   UNL     1      -0.335  13.232  22.488  0.00  0.00    +0.000 A 
ATOM     11  C   UNL     1      -1.153  12.390  23.209  0.00  0.00    +0.000 A 
ATOM     12  C   UNL     1      -1.374  11.096  22.723  0.00  0.00    +0.000 A 
ATOM     13  C   UNL     1      -0.748  10.625  21.506  0.00  0.00    +0.000 A 
ATOM     14  C   UNL     1       0.086  11.441  20.727  0.00  0.00    +0.000 A 
ATOM     15  H   UNL     1       1.883  13.478  20.414  0.00  0.00    +0.000 HD
ENDROOT
BRANCH   1  18
ATOM     16  C   UNL     1       3.627   7.526  17.642  0.00  0.00    +0.000 A 
ATOM     17  C   UNL     1       2.758   8.625  17.790  0.00  0.00    +0.000 A 
ATOM     18  C   UNL     1       1.569   8.616  18.645  0.00  0.00    +0.000 A 
ATOM     19  C   UNL     1       1.361   7.434  19.366  0.00  0.00    +0.000 A 
ATOM     20  C   UNL     1       2.231   6.287  19.228  0.00  0.00    +0.000 A 
ATOM     21  C   UNL     1       3.332   6.372  18.354  0.00  0.00    +0.000 A 
BRANCH  20  22
ATOM     22  C   UNL     1       1.987   4.984  19.929  0.00  0.00    +0.000 A 
ATOM     23  C   UNL     1       1.273   3.965  19.294  0.00  0.00    +0.000 A 
ATOM     24  C   UNL     1       0.992   2.753  19.945  0.00  0.00    +0.000 A 
ATOM     25  C   UNL     1       1.449   2.526  21.238  0.00  0.00    +0.000 A 
ATOM     26  C   UNL     1       2.220   3.496  21.873  0.00  0.00    +0.000 A 
ATOM     27  C   UNL     1       2.486   4.708  21.228  0.00  0.00    +0.000 A 
ENDBRANCH  20  22
BRANCH  16  29
ATOM     28  C   UNL     1       5.898   6.685  17.284  0.00  0.00    +0.000 C 
ATOM     29  O   UNL     1       4.723   7.343  16.851  0.00  0.00    +0.000 OA
ENDBRANCH  16  29
ENDBRANCH   1  18
TORSDOF 3
ENDMDL
MODEL 9
REMARK VINA RESULT:      -7.1      2.384      4.528
REMARK  Name = 
REMARK  4 active torsions:
REMARK  status: ('A' for Active; 'I' for Inactive)
REMARK    1  A    between atoms: C_1  and  O_2
REMARK    2  A    between atoms: O_2  and  C_3
REMARK    3  A    between atoms: C_5  and  C_6
REMARK    4  A    between atoms: C_21  and  C_22
REMARK                            x       y       z     vdW  Elec       q    Type
REMARK                         _______ _______ _______ _____ _____    ______ ____
ROOT
ATOM      1  C   UNL     1       0.787   9.965  20.903  0.00  0.00    +0.000 C 
ATOM      2  O   UNL     1       0.479   9.640  22.067  0.00  0.00    +0.000 OA
ATOM      3  N   UNL     1       0.214  11.238  20.381  0.00  0.00    +0.000 N 
ATOM      4  C   UNL     1      -0.895  11.703  21.308  0.00  0.00    +0.000 C 
ATOM      5  C   UNL     1      -2.211  11.946  20.598  0.00  0.00    +0.000 C 
ATOM      6  C   UNL     1      -2.140  13.356  20.097  0.00  0.00    +0.000 C 
ATOM      7  O   UNL     1      -2.525  14.324  20.723  0.00  0.00    +0.000 OA
ATOM      8  N   UNL     1      -1.394  13.390  18.924  0.00  0.00    +0.000 N 
ATOM      9  C   UNL     1       0.002  13.518  19.151  0.00  0.00    +0.000 A 
ATOM     10  C   UNL     1       0.462  14.798  18.772  0.00  0.00    +0.000 A 
ATOM     11  C   UNL     1       1.774  15.147  19.006  0.00  0.00    +0.000 A 
ATOM     12  C   UNL     1       2.620  14.205  19.603  0.00  0.00    +0.000 A 
ATOM     13  C   UNL     1       2.153  12.881  19.955  0.00  0.00    +0.000 A 
ATOM     14  C   UNL     1       0.827  12.474  19.748  0.00  0.00    +0.000 A 
ATOM     15  H   UNL     1      -1.551  12.541  18.400  0.00  0.00    +0.000 HD
ENDROOT
BRANCH   1  18
ATOM     16  C   UNL     1       2.662   7.981  18.112  0.00  0.00    +0.000 A 
ATOM     17  C   UNL     1       2.142   8.998  18.936  0.00  0.00    +0.000 A 
ATOM     18  C   UNL     1       1.480   8.750  20.219  0.00  0.00    +0.000 A 
ATOM     19  C   UNL     1       1.433   7.410  20.617  0.00  0.00    +0.000 A 
ATOM     20  C   UNL     1       1.952   6.343  19.790  0.00  0.00    +0.000 A 
ATOM     21  C   UNL     1       2.540   6.670  18.552  0.00  0.00    +0.000 A 
BRANCH  20  22
ATOM     22  C   UNL     1       1.844   4.893  20.157  0.00  0.00    +0.000 A 
ATOM     23  C   UNL     1       1.347   3.968  19.237  0.00  0.00    +0.000 A 
ATOM     24  C   UNL     1       1.194   2.613  19.572  0.00  0.00    +0.000 A 
ATOM     25  C   UNL     1       1.567   2.152  20.829  0.00  0.00    +0.000 A 
ATOM     26  C   UNL     1       2.128   3.037  21.746  0.00  0.00    +0.000 A 
ATOM     27  C   UNL     1       2.266   4.388  21.415  0.00  0.00    +0.000 A 
ENDBRANCH  20  22
BRANCH  16  29
ATOM     28  C   UNL     1       4.327   7.209  16.492  0.00  0.00    +0.000 C 
ATOM     29  O   UNL     1       3.240   8.027  16.877  0.00  0.00    +0.000 OA
ENDBRANCH  16  29
ENDBRANCH   1  18
TORSDOF 3
ENDMDL
