MODEL 1
REMARK VINA RESULT:      -5.6      0.000      0.000
REMARK  Name = 
REMARK  3 active torsions:
REMARK  status: ('A' for Active; 'I' for Inactive)
REMARK    1  A    between atoms: C_6  and  O_7
REMARK    2  A    between atoms: C_8  and  O_9
REMARK    3  A    between atoms: C_10  and  O_11
REMARK                            x       y       z     vdW  Elec       q    Type
REMARK                         _______ _______ _______ _____ _____    ______ ____
ROOT
ATOM      1  O   UNL     1       2.431   3.168  16.642  0.00  0.00    +0.000 OA
ATOM      2  C   UNL     1       3.065   3.615  17.588  0.00  0.00    +0.000 C 
ATOM      3  C   UNL     1       2.588   3.550  19.023  0.00  0.00    +0.000 C 
ATOM      4  S   UNL     1       3.786   4.498  19.987  0.00  0.00    +0.000 S 
ATOM      5  C   UNL     1       5.060   4.303  18.717  0.00  0.00    +0.000 C 
ATOM      6  C   UNL     1       6.111   5.419  18.668  0.00  0.00    +0.000 C 
ATOM      7  C   UNL     1       7.055   5.136  17.482  0.00  0.00    +0.000 C 
ATOM      8  C   UNL     1       6.292   5.029  16.147  0.00  0.00    +0.000 C 
ATOM      9  C   UNL     1       5.061   4.108  16.216  0.00  0.00    +0.000 C 
ATOM     10  N   UNL     1       4.329   4.200  17.472  0.00  0.00    +0.000 N 
ENDROOT
BRANCH   6  11
ATOM     11  O   UNL     1       6.890   5.462  19.871  0.00  0.00    +0.000 OA
ATOM     12  H   UNL     1       7.409   6.292  19.834  0.00  0.00    +0.000 HD
ENDBRANCH   6  11
BRANCH   7  13
ATOM     13  O   UNL     1       7.810   3.950  17.795  0.00  0.00    +0.000 OA
ATOM     14  H   UNL     1       7.812   3.344  17.034  0.00  0.00    +0.000 HD
ENDBRANCH   7  13
BRANCH   8  15
ATOM     15  O   UNL     1       5.913   6.338  15.706  0.00  0.00    +0.000 OA
ATOM     16  H   UNL     1       4.954   6.448  15.826  0.00  0.00    +0.000 HD
ENDBRANCH   8  15
TORSDOF 3
ENDMDL
MODEL 2
REMARK VINA RESULT:      -5.6      2.500      4.496
REMARK  Name = 
REMARK  3 active torsions:
REMARK  status: ('A' for Active; 'I' for Inactive)
REMARK    1  A    between atoms: C_6  and  O_7
REMARK    2  A    between atoms: C_8  and  O_9
REMARK    3  A    between atoms: C_10  and  O_11
REMARK                            x       y       z     vdW  Elec       q    Type
REMARK                         _______ _______ _______ _____ _____    ______ ____
ROOT
ATOM      1  O   UNL     1       4.645   5.569  16.638  0.00  0.00    +0.000 OA
ATOM      2  C   UNL     1       3.862   5.516  17.577  0.00  0.00    +0.000 C 
ATOM      3  C   UNL     1       3.276   6.738  18.250  0.00  0.00    +0.000 C 
ATOM      4  S   UNL     1       2.343   6.123  19.669  0.00  0.00    +0.000 S 
ATOM      5  C   UNL     1       2.189   4.475  18.936  0.00  0.00    +0.000 C 
ATOM      6  C   UNL     1       2.040   3.324  19.938  0.00  0.00    +0.000 C 
ATOM      7  C   UNL     1       2.012   2.001  19.147  0.00  0.00    +0.000 C 
ATOM      8  C   UNL     1       3.269   1.821  18.274  0.00  0.00    +0.000 C 
ATOM      9  C   UNL     1       3.612   3.062  17.429  0.00  0.00    +0.000 C 
ATOM     10  N   UNL     1       3.373   4.324  18.117  0.00  0.00    +0.000 N 
ENDROOT
BRANCH   6  11
ATOM     11  O   UNL     1       0.823   3.434  20.689  0.00  0.00    +0.000 OA
ATOM     12  H   UNL     1       0.956   2.912  21.507  0.00  0.00    +0.000 HD
ENDBRANCH   6  11
BRANCH   7  13
ATOM     13  O   UNL     1       0.789   1.970  18.387  0.00  0.00    +0.000 OA
ATOM     14  H   UNL     1       0.152   2.609  18.751  0.00  0.00    +0.000 HD
ENDBRANCH   7  13
BRANCH   8  15
ATOM     15  O   UNL     1       4.379   1.458  19.102  0.00  0.00    +0.000 OA
ATOM     16  H   UNL     1       4.097   0.765  19.725  0.00  0.00    +0.000 HD
ENDBRANCH   8  15
TORSDOF 3
ENDMDL
MODEL 3
REMARK VINA RESULT:      -5.5      2.067      4.772
REMARK  Name = 
REMARK  3 active torsions:
REMARK  status: ('A' for Active; 'I' for Inactive)
REMARK    1  A    between atoms: C_6  and  O_7
REMARK    2  A    between atoms: C_8  and  O_9
REMARK    3  A    between atoms: C_10  and  O_11
REMARK                            x       y       z     vdW  Elec       q    Type
REMARK                         _______ _______ _______ _____ _____    ______ ____
ROOT
ATOM      1  O   UNL     1       6.681   4.738  19.525  0.00  0.00    +0.000 OA
ATOM      2  C   UNL     1       5.641   4.987  18.930  0.00  0.00    +0.000 C 
ATOM      3  C   UNL     1       5.488   6.134  17.954  0.00  0.00    +0.000 C 
ATOM      4  S   UNL     1       3.739   6.171  17.505  0.00  0.00    +0.000 S 
ATOM      5  C   UNL     1       3.511   4.442  17.986  0.00  0.00    +0.000 C 
ATOM      6  C   UNL     1       2.091   4.067  18.429  0.00  0.00    +0.000 C 
ATOM      7  C   UNL     1       2.104   2.594  18.883  0.00  0.00    +0.000 C 
ATOM      8  C   UNL     1       3.125   2.342  20.009  0.00  0.00    +0.000 C 
ATOM      9  C   UNL     1       4.517   2.932  19.718  0.00  0.00    +0.000 C 
ATOM     10  N   UNL     1       4.478   4.221  19.040  0.00  0.00    +0.000 N 
ENDROOT
BRANCH   6  11
ATOM     11  O   UNL     1       1.150   4.208  17.357  0.00  0.00    +0.000 OA
ATOM     12  H   UNL     1       1.121   5.161  17.139  0.00  0.00    +0.000 HD
ENDBRANCH   6  11
BRANCH   7  13
ATOM     13  O   UNL     1       2.339   1.779  17.718  0.00  0.00    +0.000 OA
ATOM     14  H   UNL     1       1.692   1.992  17.024  0.00  0.00    +0.000 HD
ENDBRANCH   7  13
BRANCH   8  15
ATOM     15  O   UNL     1       2.612   2.857  21.243  0.00  0.00    +0.000 OA
ATOM     16  H   UNL     1       3.059   3.697  21.448  0.00  0.00    +0.000 HD
ENDBRANCH   8  15
TORSDOF 3
ENDMDL
MODEL 4
REMARK VINA RESULT:      -5.4      2.805      4.528
REMARK  Name = 
REMARK  3 active torsions:
REMARK  status: ('A' for Active; 'I' for Inactive)
REMARK    1  A    between atoms: C_6  and  O_7
REMARK    2  A    between atoms: C_8  and  O_9
REMARK    3  A    between atoms: C_10  and  O_11
REMARK                            x       y       z     vdW  Elec       q    Type
REMARK                         _______ _______ _______ _____ _____    ______ ____
ROOT
ATOM      1  O   UNL     1       2.274   6.527  17.970  0.00  0.00    +0.000 OA
ATOM      2  C   UNL     1       3.161   5.737  18.261  0.00  0.00    +0.000 C 
ATOM      3  C   UNL     1       4.633   6.006  18.033  0.00  0.00    +0.000 C 
ATOM      4  S   UNL     1       5.489   4.474  18.459  0.00  0.00    +0.000 S 
ATOM      5  C   UNL     1       4.109   3.912  19.486  0.00  0.00    +0.000 C 
ATOM      6  C   UNL     1       3.970   2.391  19.620  0.00  0.00    +0.000 C 
ATOM      7  C   UNL     1       2.703   2.096  20.448  0.00  0.00    +0.000 C 
ATOM      8  C   UNL     1       1.442   2.718  19.817  0.00  0.00    +0.000 C 
ATOM      9  C   UNL     1       1.617   4.196  19.423  0.00  0.00    +0.000 C 
ATOM     10  N   UNL     1       2.935   4.506  18.884  0.00  0.00    +0.000 N 
ENDROOT
BRANCH   6  11
ATOM     11  O   UNL     1       5.099   1.816  20.293  0.00  0.00    +0.000 OA
ATOM     12  H   UNL     1       4.849   1.741  21.236  0.00  0.00    +0.000 HD
ENDBRANCH   6  11
BRANCH   7  13
ATOM     13  O   UNL     1       2.942   2.551  21.793  0.00  0.00    +0.000 OA
ATOM     14  H   UNL     1       2.775   3.508  21.858  0.00  0.00    +0.000 HD
ENDBRANCH   7  13
BRANCH   8  15
ATOM     15  O   UNL     1       1.043   1.942  18.682  0.00  0.00    +0.000 OA
ATOM     16  H   UNL     1       1.837   1.643  18.206  0.00  0.00    +0.000 HD
ENDBRANCH   8  15
TORSDOF 3
ENDMDL
MODEL 5
REMARK VINA RESULT:      -5.4      2.751      4.300
REMARK  Name = 
REMARK  3 active torsions:
REMARK  status: ('A' for Active; 'I' for Inactive)
REMARK    1  A    between atoms: C_6  and  O_7
REMARK    2  A    between atoms: C_8  and  O_9
REMARK    3  A    between atoms: C_10  and  O_11
REMARK                            x       y       z     vdW  Elec       q    Type
REMARK                         _______ _______ _______ _____ _____    ______ ____
ROOT
ATOM      1  O   UNL     1       1.411   6.011  20.759  0.00  0.00    +0.000 OA
ATOM      2  C   UNL     1       2.205   5.800  19.852  0.00  0.00    +0.000 C 
ATOM      3  C   UNL     1       2.928   6.895  19.099  0.00  0.00    +0.000 C 
ATOM      4  S   UNL     1       3.824   6.070  17.765  0.00  0.00    +0.000 S 
ATOM      5  C   UNL     1       3.791   4.484  18.636  0.00  0.00    +0.000 C 
ATOM      6  C   UNL     1       3.844   3.242  17.738  0.00  0.00    +0.000 C 
ATOM      7  C   UNL     1       3.718   1.995  18.635  0.00  0.00    +0.000 C 
ATOM      8  C   UNL     1       2.430   2.018  19.482  0.00  0.00    +0.000 C 
ATOM      9  C   UNL     1       2.197   3.354  20.210  0.00  0.00    +0.000 C 
ATOM     10  N   UNL     1       2.580   4.523  19.428  0.00  0.00    +0.000 N 
ENDROOT
BRANCH   6  11
ATOM     11  O   UNL     1       5.082   3.164  17.018  0.00  0.00    +0.000 OA
ATOM     12  H   UNL     1       5.419   2.255  17.148  0.00  0.00    +0.000 HD
ENDBRANCH   6  11
BRANCH   7  13
ATOM     13  O   UNL     1       4.914   1.907  19.433  0.00  0.00    +0.000 OA
ATOM     14  H   UNL     1       5.482   1.188  19.107  0.00  0.00    +0.000 HD
ENDBRANCH   7  13
BRANCH   8  15
ATOM     15  O   UNL     1       1.307   1.699  18.652  0.00  0.00    +0.000 OA
ATOM     16  H   UNL     1       0.493   2.012  19.084  0.00  0.00    +0.000 HD
ENDBRANCH   8  15
TORSDOF 3
ENDMDL
MODEL 6
REMARK VINA RESULT:      -5.4      2.294      2.566
REMARK  Name = 
REMARK  3 active torsions:
REMARK  status: ('A' for Active; 'I' for Inactive)
REMARK    1  A    between atoms: C_6  and  O_7
REMARK    2  A    between atoms: C_8  and  O_9
REMARK    3  A    between atoms: C_10  and  O_11
REMARK                            x       y       z     vdW  Elec       q    Type
REMARK                         _______ _______ _______ _____ _____    ______ ____
ROOT
ATOM      1  O   UNL     1       2.994   8.254  17.088  0.00  0.00    +0.000 OA
ATOM      2  C   UNL     1       3.301   7.293  17.780  0.00  0.00    +0.000 C 
ATOM      3  C   UNL     1       2.511   6.845  18.991  0.00  0.00    +0.000 C 
ATOM      4  S   UNL     1       3.474   5.518  19.747  0.00  0.00    +0.000 S 
ATOM      5  C   UNL     1       4.351   5.184  18.200  0.00  0.00    +0.000 C 
ATOM      6  C   UNL     1       5.753   4.581  18.360  0.00  0.00    +0.000 C 
ATOM      7  C   UNL     1       6.379   4.448  16.957  0.00  0.00    +0.000 C 
ATOM      8  C   UNL     1       6.433   5.798  16.216  0.00  0.00    +0.000 C 
ATOM      9  C   UNL     1       5.101   6.570  16.249  0.00  0.00    +0.000 C 
ATOM     10  N   UNL     1       4.390   6.458  17.516  0.00  0.00    +0.000 N 
ENDROOT
BRANCH   6  11
ATOM     11  O   UNL     1       5.702   3.281  18.963  0.00  0.00    +0.000 OA
ATOM     12  H   UNL     1       5.307   3.404  19.850  0.00  0.00    +0.000 HD
ENDBRANCH   6  11
BRANCH   7  13
ATOM     13  O   UNL     1       5.639   3.442  16.240  0.00  0.00    +0.000 OA
ATOM     14  H   UNL     1       6.109   3.199  15.423  0.00  0.00    +0.000 HD
ENDBRANCH   7  13
BRANCH   8  15
ATOM     15  O   UNL     1       7.489   6.600  16.758  0.00  0.00    +0.000 OA
ATOM     16  H   UNL     1       8.164   6.742  16.072  0.00  0.00    +0.000 HD
ENDBRANCH   8  15
TORSDOF 3
ENDMDL
MODEL 7
REMARK VINA RESULT:      -5.3      3.272      4.904
REMARK  Name = 
REMARK  3 active torsions:
REMARK  status: ('A' for Active; 'I' for Inactive)
REMARK    1  A    between atoms: C_6  and  O_7
REMARK    2  A    between atoms: C_8  and  O_9
REMARK    3  A    between atoms: C_10  and  O_11
REMARK                            x       y       z     vdW  Elec       q    Type
REMARK                         _______ _______ _______ _____ _____    ______ ____
ROOT
ATOM      1  O   UNL     1       2.241   7.484  19.430  0.00  0.00    +0.000 OA
ATOM      2  C   UNL     1       2.798   6.501  18.961  0.00  0.00    +0.000 C 
ATOM      3  C   UNL     1       3.828   6.570  17.854  0.00  0.00    +0.000 C 
ATOM      4  S   UNL     1       4.194   4.857  17.412  0.00  0.00    +0.000 S 
ATOM      5  C   UNL     1       3.609   4.250  19.013  0.00  0.00    +0.000 C 
ATOM      6  C   UNL     1       3.078   2.811  19.013  0.00  0.00    +0.000 C 
ATOM      7  C   UNL     1       2.545   2.496  20.425  0.00  0.00    +0.000 C 
ATOM      8  C   UNL     1       1.457   3.493  20.869  0.00  0.00    +0.000 C 
ATOM      9  C   UNL     1       1.845   4.966  20.647  0.00  0.00    +0.000 C 
ATOM     10  N   UNL     1       2.591   5.197  19.417  0.00  0.00    +0.000 N 
ENDROOT
BRANCH   6  11
ATOM     11  O   UNL     1       4.111   1.869  18.693  0.00  0.00    +0.000 OA
ATOM     12  H   UNL     1       3.803   1.000  19.023  0.00  0.00    +0.000 HD
ENDBRANCH   6  11
BRANCH   7  13
ATOM     13  O   UNL     1       3.673   2.459  21.321  0.00  0.00    +0.000 OA
ATOM     14  H   UNL     1       3.722   3.286  21.832  0.00  0.00    +0.000 HD
ENDBRANCH   7  13
BRANCH   8  15
ATOM     15  O   UNL     1       0.230   3.192  20.194  0.00  0.00    +0.000 OA
ATOM     16  H   UNL     1       0.091   2.229  20.201  0.00  0.00    +0.000 HD
ENDBRANCH   8  15
TORSDOF 3
ENDMDL
MODEL 8
REMARK VINA RESULT:      -5.3      2.366      3.452
REMARK  Name = 
REMARK  3 active torsions:
REMARK  status: ('A' for Active; 'I' for Inactive)
REMARK    1  A    between atoms: C_6  and  O_7
REMARK    2  A    between atoms: C_8  and  O_9
REMARK    3  A    between atoms: C_10  and  O_11
REMARK                            x       y       z     vdW  Elec       q    Type
REMARK                         _______ _______ _______ _____ _____    ______ ____
ROOT
ATOM      1  O   UNL     1       1.643   6.253  20.809  0.00  0.00    +0.000 OA
ATOM      2  C   UNL     1       1.860   5.136  20.360  0.00  0.00    +0.000 C 
ATOM      3  C   UNL     1       0.891   3.980  20.483  0.00  0.00    +0.000 C 
ATOM      4  S   UNL     1       1.755   2.536  19.827  0.00  0.00    +0.000 S 
ATOM      5  C   UNL     1       2.894   3.570  18.875  0.00  0.00    +0.000 C 
ATOM      6  C   UNL     1       4.268   2.947  18.597  0.00  0.00    +0.000 C 
ATOM      7  C   UNL     1       5.129   3.992  17.860  0.00  0.00    +0.000 C 
ATOM      8  C   UNL     1       5.262   5.302  18.661  0.00  0.00    +0.000 C 
ATOM      9  C   UNL     1       3.919   5.839  19.188  0.00  0.00    +0.000 C 
ATOM     10  N   UNL     1       3.006   4.796  19.637  0.00  0.00    +0.000 N 
ENDROOT
BRANCH   6  11
ATOM     11  O   UNL     1       4.159   1.779  17.771  0.00  0.00    +0.000 OA
ATOM     12  H   UNL     1       4.833   1.148  18.097  0.00  0.00    +0.000 HD
ENDBRANCH   6  11
BRANCH   7  13
ATOM     13  O   UNL     1       4.557   4.187  16.553  0.00  0.00    +0.000 OA
ATOM     14  H   UNL     1       5.258   4.375  15.905  0.00  0.00    +0.000 HD
ENDBRANCH   7  13
BRANCH   8  15
ATOM     15  O   UNL     1       6.182   5.110  19.741  0.00  0.00    +0.000 OA
ATOM     16  H   UNL     1       6.737   4.333  19.552  0.00  0.00    +0.000 HD
ENDBRANCH   8  15
TORSDOF 3
ENDMDL
MODEL 9
REMARK VINA RESULT:      -5.3      2.345      3.932
REMARK  Name = 
REMARK  3 active torsions:
REMARK  status: ('A' for Active; 'I' for Inactive)
REMARK    1  A    between atoms: C_6  and  O_7
REMARK    2  A    between atoms: C_8  and  O_9
REMARK    3  A    between atoms: C_10  and  O_11
REMARK                            x       y       z     vdW  Elec       q    Type
REMARK                         _______ _______ _______ _____ _____    ______ ____
ROOT
ATOM      1  O   UNL     1       5.587   3.720  15.261  0.00  0.00    +0.000 OA
ATOM      2  C   UNL     1       5.212   4.566  16.062  0.00  0.00    +0.000 C 
ATOM      3  C   UNL     1       5.288   6.056  15.806  0.00  0.00    +0.000 C 
ATOM      4  S   UNL     1       4.788   6.850  17.349  0.00  0.00    +0.000 S 
ATOM      5  C   UNL     1       3.911   5.368  17.904  0.00  0.00    +0.000 C 
ATOM      6  C   UNL     1       3.802   5.202  19.425  0.00  0.00    +0.000 C 
ATOM      7  C   UNL     1       3.110   3.855  19.712  0.00  0.00    +0.000 C 
ATOM      8  C   UNL     1       3.861   2.670  19.074  0.00  0.00    +0.000 C 
ATOM      9  C   UNL     1       4.225   2.898  17.595  0.00  0.00    +0.000 C 
ATOM     10  N   UNL     1       4.625   4.266  17.294  0.00  0.00    +0.000 N 
ENDROOT
BRANCH   6  11
ATOM     11  O   UNL     1       3.022   6.252  20.015  0.00  0.00    +0.000 OA
ATOM     12  H   UNL     1       3.594   7.046  20.026  0.00  0.00    +0.000 HD
ENDBRANCH   6  11
BRANCH   7  13
ATOM     13  O   UNL     1       1.744   3.960  19.268  0.00  0.00    +0.000 OA
ATOM     14  H   UNL     1       1.147   4.034  20.033  0.00  0.00    +0.000 HD
ENDBRANCH   7  13
BRANCH   8  15
ATOM     15  O   UNL     1       5.037   2.382  19.839  0.00  0.00    +0.000 OA
ATOM     16  H   UNL     1       4.786   2.251  20.770  0.00  0.00    +0.000 HD
ENDBRANCH   8  15
TORSDOF 3
ENDMDL
