MODEL 1
REMARK VINA RESULT:      -8.2      0.000      0.000
REMARK  Name = 
REMARK  4 active torsions:
REMARK  status: ('A' for Active; 'I' for Inactive)
REMARK    1  A    between atoms: C_1  and  C_2
REMARK    2  A    between atoms: C_2  and  C_3
REMARK    3  A    between atoms: C_6  and  C_8
REMARK    4  A    between atoms: C_10  and  C_11
REMARK                            x       y       z     vdW  Elec       q    Type
REMARK                         _______ _______ _______ _____ _____    ______ ____
ROOT
ATOM      1  C   UNL     1       7.930   5.855  18.951  0.00  0.00    +0.000 C 
ATOM      2  C   UNL     1       6.996   6.249  17.796  0.00  0.00    +0.000 C 
ATOM      3  C   UNL     1       7.225   7.727  17.454  0.00  0.00    +0.000 C 
ATOM      4  C   UNL     1       5.528   6.020  18.183  0.00  0.00    +0.000 C 
ATOM      5  N   UNL     1       5.148   4.738  17.602  0.00  0.00    +0.000 N 
ATOM      6  C   UNL     1       3.909   4.142  17.757  0.00  0.00    +0.000 C 
ATOM      7  O   UNL     1       3.695   2.959  17.539  0.00  0.00    +0.000 OA
ATOM      8  C   UNL     1       6.269   4.102  16.908  0.00  0.00    +0.000 C 
ATOM      9  C   UNL     1       5.993   3.537  15.513  0.00  0.00    +0.000 C 
ATOM     10  O   UNL     1       6.242   4.581  14.552  0.00  0.00    +0.000 OA
ATOM     11  C   UNL     1       6.594   5.763  15.273  0.00  0.00    +0.000 C 
ATOM     12  C   UNL     1       7.174   5.291  16.603  0.00  0.00    +0.000 C 
ENDROOT
BRANCH   6  13
ATOM     13  C   UNL     1       2.793   5.075  18.105  0.00  0.00    +0.000 C 
ATOM     14  C   UNL     1       1.857   4.710  19.223  0.00  0.00    +0.000 C 
ATOM     15  C   UNL     1       2.754   5.923  19.358  0.00  0.00    +0.000 C 
BRANCH  15  16
ATOM     16  C   UNL     1       2.185   7.325  19.213  0.00  0.00    +0.000 A 
ATOM     17  C   UNL     1       2.289   8.057  18.017  0.00  0.00    +0.000 A 
ATOM     18  C   UNL     1       1.835   9.375  17.916  0.00  0.00    +0.000 A 
ATOM     19  C   UNL     1       1.242   9.990  19.014  0.00  0.00    +0.000 A 
ATOM     20  C   UNL     1       1.105   9.279  20.203  0.00  0.00    +0.000 A 
ATOM     21 CL   UNL     1       0.377  10.036  21.566  0.00  0.00    +0.000 Cl
ATOM     22  C   UNL     1       1.569   7.964  20.303  0.00  0.00    +0.000 A 
ENDBRANCH  15  16
ENDBRANCH   6  13
TORSDOF 2
ENDMDL
MODEL 2
REMARK VINA RESULT:      -8.1      1.024      1.486
REMARK  Name = 
REMARK  4 active torsions:
REMARK  status: ('A' for Active; 'I' for Inactive)
REMARK    1  A    between atoms: C_1  and  C_2
REMARK    2  A    between atoms: C_2  and  C_3
REMARK    3  A    between atoms: C_6  and  C_8
REMARK    4  A    between atoms: C_10  and  C_11
REMARK                            x       y       z     vdW  Elec       q    Type
REMARK                         _______ _______ _______ _____ _____    ______ ____
ROOT
ATOM      1  C   UNL     1       7.952   5.760  18.900  0.00  0.00    +0.000 C 
ATOM      2  C   UNL     1       6.981   6.175  17.784  0.00  0.00    +0.000 C 
ATOM      3  C   UNL     1       7.163   7.672  17.499  0.00  0.00    +0.000 C 
ATOM      4  C   UNL     1       5.529   5.891  18.194  0.00  0.00    +0.000 C 
ATOM      5  N   UNL     1       5.171   4.623  17.569  0.00  0.00    +0.000 N 
ATOM      6  C   UNL     1       3.952   3.988  17.727  0.00  0.00    +0.000 C 
ATOM      7  O   UNL     1       3.763   2.809  17.465  0.00  0.00    +0.000 OA
ATOM      8  C   UNL     1       6.291   4.047  16.824  0.00  0.00    +0.000 C 
ATOM      9  C   UNL     1       5.997   3.533  15.413  0.00  0.00    +0.000 C 
ATOM     10  O   UNL     1       6.195   4.622  14.491  0.00  0.00    +0.000 OA
ATOM     11  C   UNL     1       6.533   5.782  15.252  0.00  0.00    +0.000 C 
ATOM     12  C   UNL     1       7.156   5.273  16.548  0.00  0.00    +0.000 C 
ENDROOT
BRANCH   6  13
ATOM     13  C   UNL     1       2.820   4.875  18.139  0.00  0.00    +0.000 C 
ATOM     14  C   UNL     1       1.625   4.267  18.819  0.00  0.00    +0.000 C 
ATOM     15  C   UNL     1       2.506   5.241  19.573  0.00  0.00    +0.000 C 
BRANCH  15  16
ATOM     16  C   UNL     1       2.043   6.667  19.825  0.00  0.00    +0.000 A 
ATOM     17  C   UNL     1       1.369   7.041  21.003  0.00  0.00    +0.000 A 
ATOM     18  C   UNL     1       0.876   8.334  21.192  0.00  0.00    +0.000 A 
ATOM     19  C   UNL     1       1.063   9.299  20.207  0.00  0.00    +0.000 A 
ATOM     20  C   UNL     1       1.748   8.962  19.044  0.00  0.00    +0.000 A 
ATOM     21 CL   UNL     1       1.980  10.150  17.820  0.00  0.00    +0.000 Cl
ATOM     22  C   UNL     1       2.232   7.664  18.853  0.00  0.00    +0.000 A 
ENDBRANCH  15  16
ENDBRANCH   6  13
TORSDOF 2
ENDMDL
MODEL 3
REMARK VINA RESULT:      -7.7      2.481      4.364
REMARK  Name = 
REMARK  4 active torsions:
REMARK  status: ('A' for Active; 'I' for Inactive)
REMARK    1  A    between atoms: C_1  and  C_2
REMARK    2  A    between atoms: C_2  and  C_3
REMARK    3  A    between atoms: C_6  and  C_8
REMARK    4  A    between atoms: C_10  and  C_11
REMARK                            x       y       z     vdW  Elec       q    Type
REMARK                         _______ _______ _______ _____ _____    ______ ____
ROOT
ATOM      1  C   UNL     1       0.393   2.557  18.937  0.00  0.00    +0.000 C 
ATOM      2  C   UNL     1       1.546   3.157  19.756  0.00  0.00    +0.000 C 
ATOM      3  C   UNL     1       1.183   3.093  21.246  0.00  0.00    +0.000 C 
ATOM      4  C   UNL     1       1.809   4.612  19.341  0.00  0.00    +0.000 C 
ATOM      5  N   UNL     1       2.935   4.574  18.416  0.00  0.00    +0.000 N 
ATOM      6  C   UNL     1       3.460   5.682  17.774  0.00  0.00    +0.000 C 
ATOM      7  O   UNL     1       4.181   5.616  16.790  0.00  0.00    +0.000 OA
ATOM      8  C   UNL     1       3.393   3.206  18.169  0.00  0.00    +0.000 C 
ATOM      9  C   UNL     1       4.900   2.952  18.243  0.00  0.00    +0.000 C 
ATOM     10  O   UNL     1       5.228   2.610  19.603  0.00  0.00    +0.000 OA
ATOM     11  C   UNL     1       4.031   2.697  20.377  0.00  0.00    +0.000 C 
ATOM     12  C   UNL     1       2.879   2.469  19.402  0.00  0.00    +0.000 C 
ENDROOT
BRANCH   6  13
ATOM     13  C   UNL     1       3.182   6.993  18.437  0.00  0.00    +0.000 C 
ATOM     14  C   UNL     1       3.371   8.263  17.654  0.00  0.00    +0.000 C 
ATOM     15  C   UNL     1       1.986   7.867  18.122  0.00  0.00    +0.000 C 
BRANCH  15  16
ATOM     16  C   UNL     1       1.336   8.578  19.298  0.00  0.00    +0.000 A 
ATOM     17  C   UNL     1       1.538   8.168  20.629  0.00  0.00    +0.000 A 
ATOM     18  C   UNL     1       0.873   8.775  21.697  0.00  0.00    +0.000 A 
ATOM     19  C   UNL     1      -0.002   9.831  21.460  0.00  0.00    +0.000 A 
ATOM     20  C   UNL     1      -0.200  10.272  20.155  0.00  0.00    +0.000 A 
ATOM     21 CL   UNL     1      -1.284  11.575  19.854  0.00  0.00    +0.000 Cl
ATOM     22  C   UNL     1       0.459   9.656  19.087  0.00  0.00    +0.000 A 
ENDBRANCH  15  16
ENDBRANCH   6  13
TORSDOF 2
ENDMDL
MODEL 4
REMARK VINA RESULT:      -7.4      2.447      4.657
REMARK  Name = 
REMARK  4 active torsions:
REMARK  status: ('A' for Active; 'I' for Inactive)
REMARK    1  A    between atoms: C_1  and  C_2
REMARK    2  A    between atoms: C_2  and  C_3
REMARK    3  A    between atoms: C_6  and  C_8
REMARK    4  A    between atoms: C_10  and  C_11
REMARK                            x       y       z     vdW  Elec       q    Type
REMARK                         _______ _______ _______ _____ _____    ______ ____
ROOT
ATOM      1  C   UNL     1       1.114   3.900  19.322  0.00  0.00    +0.000 C 
ATOM      2  C   UNL     1       2.253   4.791  19.841  0.00  0.00    +0.000 C 
ATOM      3  C   UNL     1       2.535   4.433  21.307  0.00  0.00    +0.000 C 
ATOM      4  C   UNL     1       1.877   6.275  19.725  0.00  0.00    +0.000 C 
ATOM      5  N   UNL     1       2.509   6.761  18.504  0.00  0.00    +0.000 N 
ATOM      6  C   UNL     1       2.380   8.047  18.012  0.00  0.00    +0.000 C 
ATOM      7  O   UNL     1       2.645   8.362  16.861  0.00  0.00    +0.000 OA
ATOM      8  C   UNL     1       3.227   5.696  17.802  0.00  0.00    +0.000 C 
ATOM      9  C   UNL     1       4.644   6.013  17.319  0.00  0.00    +0.000 C 
ATOM     10  O   UNL     1       5.562   5.671  18.375  0.00  0.00    +0.000 OA
ATOM     11  C   UNL     1       4.794   5.222  19.492  0.00  0.00    +0.000 C 
ATOM     12  C   UNL     1       3.483   4.691  18.920  0.00  0.00    +0.000 C 
ENDROOT
BRANCH   6  13
ATOM     13  C   UNL     1       1.996   9.080  19.023  0.00  0.00    +0.000 C 
ATOM     14  C   UNL     1       1.707  10.482  18.563  0.00  0.00    +0.000 C 
ATOM     15  C   UNL     1       0.600   9.647  19.171  0.00  0.00    +0.000 C 
BRANCH  15  16
ATOM     16  C   UNL     1       0.120   9.913  20.588  0.00  0.00    +0.000 A 
ATOM     17  C   UNL     1       0.406   9.040  21.654  0.00  0.00    +0.000 A 
ATOM     18  C   UNL     1      -0.106   9.249  22.937  0.00  0.00    +0.000 A 
ATOM     19  C   UNL     1      -0.906  10.358  23.193  0.00  0.00    +0.000 A 
ATOM     20  C   UNL     1      -1.184  11.251  22.161  0.00  0.00    +0.000 A 
ATOM     21 CL   UNL     1      -2.176  12.623  22.470  0.00  0.00    +0.000 Cl
ATOM     22  C   UNL     1      -0.678  11.033  20.876  0.00  0.00    +0.000 A 
ENDBRANCH  15  16
ENDBRANCH   6  13
TORSDOF 2
ENDMDL
MODEL 5
REMARK VINA RESULT:      -7.4      2.430      4.266
REMARK  Name = 
REMARK  4 active torsions:
REMARK  status: ('A' for Active; 'I' for Inactive)
REMARK    1  A    between atoms: C_1  and  C_2
REMARK    2  A    between atoms: C_2  and  C_3
REMARK    3  A    between atoms: C_6  and  C_8
REMARK    4  A    between atoms: C_10  and  C_11
REMARK                            x       y       z     vdW  Elec       q    Type
REMARK                         _______ _______ _______ _____ _____    ______ ____
ROOT
ATOM      1  C   UNL     1       0.408   2.529  19.121  0.00  0.00    +0.000 C 
ATOM      2  C   UNL     1       1.552   3.201  19.894  0.00  0.00    +0.000 C 
ATOM      3  C   UNL     1       1.198   3.222  21.387  0.00  0.00    +0.000 C 
ATOM      4  C   UNL     1       1.781   4.633  19.389  0.00  0.00    +0.000 C 
ATOM      5  N   UNL     1       2.903   4.563  18.461  0.00  0.00    +0.000 N 
ATOM      6  C   UNL     1       3.401   5.640  17.749  0.00  0.00    +0.000 C 
ATOM      7  O   UNL     1       4.118   5.528  16.766  0.00  0.00    +0.000 OA
ATOM      8  C   UNL     1       3.388   3.192  18.296  0.00  0.00    +0.000 C 
ATOM      9  C   UNL     1       4.901   2.975  18.375  0.00  0.00    +0.000 C 
ATOM     10  O   UNL     1       5.244   2.724  19.752  0.00  0.00    +0.000 OA
ATOM     11  C   UNL     1       4.048   2.834  20.526  0.00  0.00    +0.000 C 
ATOM     12  C   UNL     1       2.897   2.522  19.575  0.00  0.00    +0.000 C 
ENDROOT
BRANCH   6  13
ATOM     13  C   UNL     1       3.097   6.983  18.331  0.00  0.00    +0.000 C 
ATOM     14  C   UNL     1       3.641   8.212  17.657  0.00  0.00    +0.000 C 
ATOM     15  C   UNL     1       2.145   7.983  17.711  0.00  0.00    +0.000 C 
BRANCH  15  16
ATOM     16  C   UNL     1       1.275   8.779  18.670  0.00  0.00    +0.000 A 
ATOM     17  C   UNL     1       0.352   9.742  18.224  0.00  0.00    +0.000 A 
ATOM     18  C   UNL     1      -0.386  10.526  19.115  0.00  0.00    +0.000 A 
ATOM     19  C   UNL     1      -0.231  10.350  20.487  0.00  0.00    +0.000 A 
ATOM     20  C   UNL     1       0.658   9.386  20.954  0.00  0.00    +0.000 A 
ATOM     21 CL   UNL     1       0.857   9.166  22.649  0.00  0.00    +0.000 Cl
ATOM     22  C   UNL     1       1.401   8.610  20.060  0.00  0.00    +0.000 A 
ENDBRANCH  15  16
ENDBRANCH   6  13
TORSDOF 2
ENDMDL
MODEL 6
REMARK VINA RESULT:      -7.2      3.890      6.600
REMARK  Name = 
REMARK  4 active torsions:
REMARK  status: ('A' for Active; 'I' for Inactive)
REMARK    1  A    between atoms: C_1  and  C_2
REMARK    2  A    between atoms: C_2  and  C_3
REMARK    3  A    between atoms: C_6  and  C_8
REMARK    4  A    between atoms: C_10  and  C_11
REMARK                            x       y       z     vdW  Elec       q    Type
REMARK                         _______ _______ _______ _____ _____    ______ ____
ROOT
ATOM      1  C   UNL     1       4.914   1.890  20.617  0.00  0.00    +0.000 C 
ATOM      2  C   UNL     1       3.834   2.153  19.557  0.00  0.00    +0.000 C 
ATOM      3  C   UNL     1       3.730   0.928  18.638  0.00  0.00    +0.000 C 
ATOM      4  C   UNL     1       4.176   3.402  18.731  0.00  0.00    +0.000 C 
ATOM      5  N   UNL     1       3.400   4.494  19.304  0.00  0.00    +0.000 N 
ATOM      6  C   UNL     1       3.455   5.807  18.872  0.00  0.00    +0.000 C 
ATOM      7  O   UNL     1       3.053   6.755  19.531  0.00  0.00    +0.000 OA
ATOM      8  C   UNL     1       2.616   4.058  20.461  0.00  0.00    +0.000 C 
ATOM      9  C   UNL     1       1.149   4.489  20.511  0.00  0.00    +0.000 C 
ATOM     10  O   UNL     1       0.365   3.480  19.843  0.00  0.00    +0.000 OA
ATOM     11  C   UNL     1       1.264   2.493  19.338  0.00  0.00    +0.000 C 
ATOM     12  C   UNL     1       2.505   2.555  20.224  0.00  0.00    +0.000 C 
ENDROOT
BRANCH   6  13
ATOM     13  C   UNL     1       3.943   5.997  17.471  0.00  0.00    +0.000 C 
ATOM     14  C   UNL     1       4.604   7.294  17.096  0.00  0.00    +0.000 C 
ATOM     15  C   UNL     1       5.404   6.008  17.075  0.00  0.00    +0.000 C 
BRANCH  15  16
ATOM     16  C   UNL     1       5.756   5.339  15.756  0.00  0.00    +0.000 A 
ATOM     17  C   UNL     1       5.042   4.232  15.261  0.00  0.00    +0.000 A 
ATOM     18  C   UNL     1       5.421   3.573  14.090  0.00  0.00    +0.000 A 
ATOM     19  C   UNL     1       6.522   4.021  13.366  0.00  0.00    +0.000 A 
ATOM     20  C   UNL     1       7.231   5.129  13.821  0.00  0.00    +0.000 A 
ATOM     21 CL   UNL     1       8.597   5.686  12.934  0.00  0.00    +0.000 Cl
ATOM     22  C   UNL     1       6.855   5.781  15.000  0.00  0.00    +0.000 A 
ENDBRANCH  15  16
ENDBRANCH   6  13
TORSDOF 2
ENDMDL
MODEL 7
REMARK VINA RESULT:      -7.1      4.487      8.144
REMARK  Name = 
REMARK  4 active torsions:
REMARK  status: ('A' for Active; 'I' for Inactive)
REMARK    1  A    between atoms: C_1  and  C_2
REMARK    2  A    between atoms: C_2  and  C_3
REMARK    3  A    between atoms: C_6  and  C_8
REMARK    4  A    between atoms: C_10  and  C_11
REMARK                            x       y       z     vdW  Elec       q    Type
REMARK                         _______ _______ _______ _____ _____    ______ ____
ROOT
ATOM      1  C   UNL     1      -3.752  10.148  17.937  0.00  0.00    +0.000 C 
ATOM      2  C   UNL     1      -2.427  10.768  17.469  0.00  0.00    +0.000 C 
ATOM      3  C   UNL     1      -2.567  11.189  16.000  0.00  0.00    +0.000 C 
ATOM      4  C   UNL     1      -1.274   9.765  17.620  0.00  0.00    +0.000 C 
ATOM      5  N   UNL     1      -0.600  10.103  18.867  0.00  0.00    +0.000 N 
ATOM      6  C   UNL     1       0.473   9.407  19.393  0.00  0.00    +0.000 C 
ATOM      7  O   UNL     1       0.833   9.495  20.558  0.00  0.00    +0.000 OA
ATOM      8  C   UNL     1      -1.253  11.219  19.554  0.00  0.00    +0.000 C 
ATOM      9  C   UNL     1      -0.351  12.339  20.076  0.00  0.00    +0.000 C 
ATOM     10  O   UNL     1      -0.207  13.320  19.029  0.00  0.00    +0.000 OA
ATOM     11  C   UNL     1      -0.913  12.842  17.884  0.00  0.00    +0.000 C 
ATOM     12  C   UNL     1      -1.996  11.907  18.412  0.00  0.00    +0.000 C 
ENDROOT
BRANCH   6  13
ATOM     13  C   UNL     1       1.259   8.606  18.405  0.00  0.00    +0.000 C 
ATOM     14  C   UNL     1       2.333   9.285  17.601  0.00  0.00    +0.000 C 
ATOM     15  C   UNL     1       2.706   8.205  18.595  0.00  0.00    +0.000 C 
BRANCH  15  16
ATOM     16  C   UNL     1       3.095   6.816  18.116  0.00  0.00    +0.000 A 
ATOM     17  C   UNL     1       4.278   6.574  17.392  0.00  0.00    +0.000 A 
ATOM     18  C   UNL     1       4.588   5.309  16.886  0.00  0.00    +0.000 A 
ATOM     19  C   UNL     1       3.726   4.241  17.111  0.00  0.00    +0.000 A 
ATOM     20  C   UNL     1       2.562   4.448  17.846  0.00  0.00    +0.000 A 
ATOM     21 CL   UNL     1       1.488   3.131  18.124  0.00  0.00    +0.000 Cl
ATOM     22  C   UNL     1       2.249   5.716  18.342  0.00  0.00    +0.000 A 
ENDBRANCH  15  16
ENDBRANCH   6  13
TORSDOF 2
ENDMDL
MODEL 8
REMARK VINA RESULT:      -7.1      4.572      8.202
REMARK  Name = 
REMARK  4 active torsions:
REMARK  status: ('A' for Active; 'I' for Inactive)
REMARK    1  A    between atoms: C_1  and  C_2
REMARK    2  A    between atoms: C_2  and  C_3
REMARK    3  A    between atoms: C_6  and  C_8
REMARK    4  A    between atoms: C_10  and  C_11
REMARK                            x       y       z     vdW  Elec       q    Type
REMARK                         _______ _______ _______ _____ _____    ______ ____
ROOT
ATOM      1  C   UNL     1      -3.652  10.040  17.942  0.00  0.00    +0.000 C 
ATOM      2  C   UNL     1      -2.341  10.677  17.457  0.00  0.00    +0.000 C 
ATOM      3  C   UNL     1      -2.506  11.100  15.991  0.00  0.00    +0.000 C 
ATOM      4  C   UNL     1      -1.175   9.687  17.590  0.00  0.00    +0.000 C 
ATOM      5  N   UNL     1      -0.488  10.031  18.829  0.00  0.00    +0.000 N 
ATOM      6  C   UNL     1       0.600   9.346  19.339  0.00  0.00    +0.000 C 
ATOM      7  O   UNL     1       0.974   9.436  20.499  0.00  0.00    +0.000 OA
ATOM      8  C   UNL     1      -1.145  11.138  19.527  0.00  0.00    +0.000 C 
ATOM      9  C   UNL     1      -0.249  12.267  20.039  0.00  0.00    +0.000 C 
ATOM     10  O   UNL     1      -0.131  13.252  18.994  0.00  0.00    +0.000 OA
ATOM     11  C   UNL     1      -0.847  12.768  17.856  0.00  0.00    +0.000 C 
ATOM     12  C   UNL     1      -1.911  11.819  18.397  0.00  0.00    +0.000 C 
ENDROOT
BRANCH   6  13
ATOM     13  C   UNL     1       1.382   8.557  18.338  0.00  0.00    +0.000 C 
ATOM     14  C   UNL     1       2.583   9.185  17.688  0.00  0.00    +0.000 C 
ATOM     15  C   UNL     1       2.760   7.985  18.596  0.00  0.00    +0.000 C 
BRANCH  15  16
ATOM     16  C   UNL     1       3.046   6.611  18.013  0.00  0.00    +0.000 A 
ATOM     17  C   UNL     1       2.128   5.549  18.108  0.00  0.00    +0.000 A 
ATOM     18  C   UNL     1       2.431   4.267  17.642  0.00  0.00    +0.000 A 
ATOM     19  C   UNL     1       3.663   4.019  17.044  0.00  0.00    +0.000 A 
ATOM     20  C   UNL     1       4.579   5.059  16.915  0.00  0.00    +0.000 A 
ATOM     21 CL   UNL     1       6.106   4.758  16.180  0.00  0.00    +0.000 Cl
ATOM     22  C   UNL     1       4.277   6.338  17.392  0.00  0.00    +0.000 A 
ENDBRANCH  15  16
ENDBRANCH   6  13
TORSDOF 2
ENDMDL
MODEL 9
REMARK VINA RESULT:      -7.0      2.484      4.256
REMARK  Name = 
REMARK  4 active torsions:
REMARK  status: ('A' for Active; 'I' for Inactive)
REMARK    1  A    between atoms: C_1  and  C_2
REMARK    2  A    between atoms: C_2  and  C_3
REMARK    3  A    between atoms: C_6  and  C_8
REMARK    4  A    between atoms: C_10  and  C_11
REMARK                            x       y       z     vdW  Elec       q    Type
REMARK                         _______ _______ _______ _____ _____    ______ ____
ROOT
ATOM      1  C   UNL     1       2.574   2.597  17.059  0.00  0.00    +0.000 C 
ATOM      2  C   UNL     1       2.860   3.347  18.369  0.00  0.00    +0.000 C 
ATOM      3  C   UNL     1       2.297   2.533  19.542  0.00  0.00    +0.000 C 
ATOM      4  C   UNL     1       2.223   4.744  18.346  0.00  0.00    +0.000 C 
ATOM      5  N   UNL     1       3.287   5.671  17.979  0.00  0.00    +0.000 N 
ATOM      6  C   UNL     1       3.115   7.033  17.804  0.00  0.00    +0.000 C 
ATOM      7  O   UNL     1       3.912   7.745  17.211  0.00  0.00    +0.000 OA
ATOM      8  C   UNL     1       4.550   4.977  17.722  0.00  0.00    +0.000 C 
ATOM      9  C   UNL     1       5.808   5.558  18.370  0.00  0.00    +0.000 C 
ATOM     10  O   UNL     1       5.962   4.951  19.668  0.00  0.00    +0.000 OA
ATOM     11  C   UNL     1       4.848   4.083  19.878  0.00  0.00    +0.000 C 
ATOM     12  C   UNL     1       4.361   3.673  18.491  0.00  0.00    +0.000 C 
ENDROOT
BRANCH   6  13
ATOM     13  C   UNL     1       1.927   7.619  18.498  0.00  0.00    +0.000 C 
ATOM     14  C   UNL     1       1.970   7.807  19.989  0.00  0.00    +0.000 C 
ATOM     15  C   UNL     1       1.887   9.016  19.080  0.00  0.00    +0.000 C 
BRANCH  15  16
ATOM     16  C   UNL     1       0.582   9.779  18.927  0.00  0.00    +0.000 A 
ATOM     17  C   UNL     1       0.120  10.681  19.903  0.00  0.00    +0.000 A 
ATOM     18  C   UNL     1      -1.119  11.318  19.792  0.00  0.00    +0.000 A 
ATOM     19  C   UNL     1      -1.924  11.081  18.682  0.00  0.00    +0.000 A 
ATOM     20  C   UNL     1      -1.480  10.212  17.690  0.00  0.00    +0.000 A 
ATOM     21 CL   UNL     1      -2.473   9.912  16.317  0.00  0.00    +0.000 Cl
ATOM     22  C   UNL     1      -0.244   9.569  17.809  0.00  0.00    +0.000 A 
ENDBRANCH  15  16
ENDBRANCH   6  13
TORSDOF 2
ENDMDL
