MODEL 1
REMARK VINA RESULT:      -7.5      0.000      0.000
REMARK  Name = 
REMARK  7 active torsions:
REMARK  status: ('A' for Active; 'I' for Inactive)
REMARK    1  A    between atoms: C_1  and  C_2
REMARK    2  A    between atoms: C_4  and  C_5
REMARK    3  A    between atoms: C_8  and  C_9
REMARK    4  A    between atoms: C_13  and  C_14
REMARK    5  A    between atoms: C_14  and  N_15
REMARK    6  A    between atoms: C_16  and  C_18
REMARK    7  A    between atoms: C_27  and  C_28
REMARK                            x       y       z     vdW  Elec       q    Type
REMARK                         _______ _______ _______ _____ _____    ______ ____
ROOT
ATOM      1  C   UNL     1       0.860  13.064  19.758  0.00  0.00    +0.000 C 
ATOM      2  O   UNL     1       1.836  13.030  19.008  0.00  0.00    +0.000 OA
ATOM      3  N   UNL     1       0.244  14.337  20.044  0.00  0.00    +0.000 N 
ATOM      4  C   UNL     1       0.840  15.612  19.510  0.00  0.00    +0.000 C 
ATOM      5  C   UNL     1       2.057  15.568  18.580  0.00  0.00    +0.000 C 
ATOM      6  C   UNL     1      -0.242  16.462  18.805  0.00  0.00    +0.000 C 
ATOM      7  C   UNL     1      -1.442  16.736  19.695  0.00  0.00    +0.000 C 
ATOM      8  C   UNL     1      -1.975  15.435  20.253  0.00  0.00    +0.000 C 
ATOM      9  C   UNL     1      -0.871  14.661  20.999  0.00  0.00    +0.000 C 
ENDROOT
BRANCH   1  13
ATOM     10  C   UNL     1       1.236   9.334  22.929  0.00  0.00    +0.000 C 
ATOM     11  C   UNL     1       0.558  10.097  21.841  0.00  0.00    +0.000 A 
ATOM     12  N   UNL     1       0.645  11.402  21.684  0.00  0.00    +0.000 NA
ATOM     13  C   UNL     1       0.420  11.754  20.352  0.00  0.00    +0.000 A 
ATOM     14  C   UNL     1      -0.433  10.816  19.757  0.00  0.00    +0.000 A 
ATOM     15  S   UNL     1      -0.311   9.308  20.613  0.00  0.00    +0.000 S 
BRANCH  14  16
ATOM     16  C   UNL     1      -1.355  10.890  18.624  0.00  0.00    +0.000 A 
ATOM     17  C   UNL     1      -2.438  11.772  18.601  0.00  0.00    +0.000 A 
ATOM     18  C   UNL     1      -3.413  11.668  17.602  0.00  0.00    +0.000 A 
ATOM     19  C   UNL     1      -3.267  10.720  16.597  0.00  0.00    +0.000 A 
ATOM     20  F   UNL     1      -4.219  10.591  15.665  0.00  0.00    +0.000 F 
ATOM     21  C   UNL     1      -2.162   9.880  16.560  0.00  0.00    +0.000 A 
ATOM     22  C   UNL     1      -1.214   9.958  17.577  0.00  0.00    +0.000 A 
ENDBRANCH  14  16
ENDBRANCH   1  13
BRANCH   9  23
ATOM     23  C   UNL     1      -1.546  13.533  21.734  0.00  0.00    +0.000 C 
BRANCH  23  24
ATOM     24  N   UNL     1      -2.903  13.734  22.149  0.00  0.00    +0.000 N 
ATOM     25  C   UNL     1      -3.556  12.717  22.794  0.00  0.00    +0.000 C 
ATOM     26  O   UNL     1      -3.017  11.733  23.281  0.00  0.00    +0.000 OA
ATOM     27  H   UNL     1      -3.431  14.461  21.687  0.00  0.00    +0.000 HD
BRANCH  25  28
ATOM     28  C   UNL     1      -4.999  12.908  22.891  0.00  0.00    +0.000 A 
ATOM     29  C   UNL     1      -5.628  13.236  24.105  0.00  0.00    +0.000 A 
ATOM     30  C   UNL     1      -7.018  13.302  24.167  0.00  0.00    +0.000 A 
ATOM     31  C   UNL     1      -7.803  13.053  23.031  0.00  0.00    +0.000 A 
ATOM     32  C   UNL     1      -7.133  12.761  21.844  0.00  0.00    +0.000 A 
ATOM     33  O   UNL     1      -7.709  12.489  20.642  0.00  0.00    +0.000 OA
ATOM     34  C   UNL     1      -6.698  12.245  19.758  0.00  0.00    +0.000 A 
ATOM     35  C   UNL     1      -5.480  12.355  20.382  0.00  0.00    +0.000 A 
ATOM     36  C   UNL     1      -5.753  12.689  21.733  0.00  0.00    +0.000 A 
ENDBRANCH  25  28
ENDBRANCH  23  24
ENDBRANCH   9  23
TORSDOF 5
ENDMDL
MODEL 2
REMARK VINA RESULT:      -7.4      2.578      6.896
REMARK  Name = 
REMARK  7 active torsions:
REMARK  status: ('A' for Active; 'I' for Inactive)
REMARK    1  A    between atoms: C_1  and  C_2
REMARK    2  A    between atoms: C_4  and  C_5
REMARK    3  A    between atoms: C_8  and  C_9
REMARK    4  A    between atoms: C_13  and  C_14
REMARK    5  A    between atoms: C_14  and  N_15
REMARK    6  A    between atoms: C_16  and  C_18
REMARK    7  A    between atoms: C_27  and  C_28
REMARK                            x       y       z     vdW  Elec       q    Type
REMARK                         _______ _______ _______ _____ _____    ______ ____
ROOT
ATOM      1  C   UNL     1      -1.441  11.659  22.680  0.00  0.00    +0.000 C 
ATOM      2  O   UNL     1      -1.622  10.714  23.448  0.00  0.00    +0.000 OA
ATOM      3  N   UNL     1      -0.520  11.500  21.580  0.00  0.00    +0.000 N 
ATOM      4  C   UNL     1       0.276  10.231  21.429  0.00  0.00    +0.000 C 
ATOM      5  C   UNL     1       0.052   9.057  22.388  0.00  0.00    +0.000 C 
ATOM      6  C   UNL     1       0.144   9.677  19.992  0.00  0.00    +0.000 C 
ATOM      7  C   UNL     1       0.518  10.702  18.934  0.00  0.00    +0.000 C 
ATOM      8  C   UNL     1      -0.264  11.978  19.156  0.00  0.00    +0.000 C 
ATOM      9  C   UNL     1      -0.044  12.518  20.583  0.00  0.00    +0.000 C 
ENDROOT
BRANCH   1  13
ATOM     10  C   UNL     1      -2.219  15.765  25.258  0.00  0.00    +0.000 C 
ATOM     11  C   UNL     1      -2.484  14.831  24.126  0.00  0.00    +0.000 A 
ATOM     12  N   UNL     1      -1.577  14.042  23.586  0.00  0.00    +0.000 NA
ATOM     13  C   UNL     1      -2.180  12.932  22.991  0.00  0.00    +0.000 A 
ATOM     14  C   UNL     1      -3.469  13.273  22.562  0.00  0.00    +0.000 A 
ATOM     15  S   UNL     1      -4.049  14.615  23.501  0.00  0.00    +0.000 S 
BRANCH  14  16
ATOM     16  C   UNL     1      -4.343  12.735  21.520  0.00  0.00    +0.000 A 
ATOM     17  C   UNL     1      -3.883  12.465  20.228  0.00  0.00    +0.000 A 
ATOM     18  C   UNL     1      -4.788  12.152  19.207  0.00  0.00    +0.000 A 
ATOM     19  C   UNL     1      -6.142  12.056  19.497  0.00  0.00    +0.000 A 
ATOM     20  F   UNL     1      -7.014  11.799  18.514  0.00  0.00    +0.000 F 
ATOM     21  C   UNL     1      -6.615  12.251  20.788  0.00  0.00    +0.000 A 
ATOM     22  C   UNL     1      -5.717  12.600  21.795  0.00  0.00    +0.000 A 
ENDBRANCH  14  16
ENDBRANCH   1  13
BRANCH   9  23
ATOM     23  C   UNL     1      -0.636  13.903  20.623  0.00  0.00    +0.000 C 
BRANCH  23  24
ATOM     24  N   UNL     1      -0.155  14.854  19.664  0.00  0.00    +0.000 N 
ATOM     25  C   UNL     1      -0.182  16.186  19.982  0.00  0.00    +0.000 C 
ATOM     26  O   UNL     1      -0.341  16.637  21.108  0.00  0.00    +0.000 OA
ATOM     27  H   UNL     1      -0.120  14.566  18.696  0.00  0.00    +0.000 HD
BRANCH  25  28
ATOM     28  C   UNL     1       0.031  17.071  18.842  0.00  0.00    +0.000 A 
ATOM     29  C   UNL     1      -0.994  17.885  18.328  0.00  0.00    +0.000 A 
ATOM     30  C   UNL     1      -0.771  18.630  17.172  0.00  0.00    +0.000 A 
ATOM     31  C   UNL     1       0.468  18.588  16.516  0.00  0.00    +0.000 A 
ATOM     32  C   UNL     1       1.462  17.789  17.080  0.00  0.00    +0.000 A 
ATOM     33  O   UNL     1       2.722  17.614  16.597  0.00  0.00    +0.000 OA
ATOM     34  C   UNL     1       3.358  16.747  17.439  0.00  0.00    +0.000 A 
ATOM     35  C   UNL     1       2.516  16.364  18.454  0.00  0.00    +0.000 A 
ATOM     36  C   UNL     1       1.288  17.034  18.230  0.00  0.00    +0.000 A 
ENDBRANCH  25  28
ENDBRANCH  23  24
ENDBRANCH   9  23
TORSDOF 5
ENDMDL
MODEL 3
REMARK VINA RESULT:      -7.4      3.460      7.999
REMARK  Name = 
REMARK  7 active torsions:
REMARK  status: ('A' for Active; 'I' for Inactive)
REMARK    1  A    between atoms: C_1  and  C_2
REMARK    2  A    between atoms: C_4  and  C_5
REMARK    3  A    between atoms: C_8  and  C_9
REMARK    4  A    between atoms: C_13  and  C_14
REMARK    5  A    between atoms: C_14  and  N_15
REMARK    6  A    between atoms: C_16  and  C_18
REMARK    7  A    between atoms: C_27  and  C_28
REMARK                            x       y       z     vdW  Elec       q    Type
REMARK                         _______ _______ _______ _____ _____    ______ ____
ROOT
ATOM      1  C   UNL     1      -2.266  12.015  22.322  0.00  0.00    +0.000 C 
ATOM      2  O   UNL     1      -2.404  11.447  23.405  0.00  0.00    +0.000 OA
ATOM      3  N   UNL     1      -1.175  11.625  21.462  0.00  0.00    +0.000 N 
ATOM      4  C   UNL     1      -0.169  10.604  21.920  0.00  0.00    +0.000 C 
ATOM      5  C   UNL     1      -0.339   9.899  23.270  0.00  0.00    +0.000 C 
ATOM      6  C   UNL     1       0.011   9.503  20.850  0.00  0.00    +0.000 C 
ATOM      7  C   UNL     1       0.368  10.066  19.485  0.00  0.00    +0.000 C 
ATOM      8  C   UNL     1      -0.637  11.125  19.088  0.00  0.00    +0.000 C 
ATOM      9  C   UNL     1      -0.727  12.229  20.160  0.00  0.00    +0.000 C 
ENDROOT
BRANCH   1  13
ATOM     10  C   UNL     1      -5.782  14.136  19.629  0.00  0.00    +0.000 C 
ATOM     11  C   UNL     1      -4.887  14.042  20.819  0.00  0.00    +0.000 A 
ATOM     12  N   UNL     1      -4.438  12.911  21.323  0.00  0.00    +0.000 NA
ATOM     13  C   UNL     1      -3.241  13.117  22.011  0.00  0.00    +0.000 A 
ATOM     14  C   UNL     1      -3.214  14.422  22.521  0.00  0.00    +0.000 A 
ATOM     15  S   UNL     1      -4.260  15.431  21.570  0.00  0.00    +0.000 S 
BRANCH  14  16
ATOM     16  C   UNL     1      -2.511  15.031  23.650  0.00  0.00    +0.000 A 
ATOM     17  C   UNL     1      -1.365  15.813  23.481  0.00  0.00    +0.000 A 
ATOM     18  C   UNL     1      -0.606  16.203  24.589  0.00  0.00    +0.000 A 
ATOM     19  C   UNL     1      -1.029  15.857  25.866  0.00  0.00    +0.000 A 
ATOM     20  F   UNL     1      -0.281  16.193  26.925  0.00  0.00    +0.000 F 
ATOM     21  C   UNL     1      -2.202  15.141  26.063  0.00  0.00    +0.000 A 
ATOM     22  C   UNL     1      -2.935  14.720  24.956  0.00  0.00    +0.000 A 
ENDBRANCH  14  16
ENDBRANCH   1  13
BRANCH   9  23
ATOM     23  C   UNL     1      -1.537  13.352  19.566  0.00  0.00    +0.000 C 
BRANCH  23  24
ATOM     24  N   UNL     1      -0.831  14.351  18.820  0.00  0.00    +0.000 N 
ATOM     25  C   UNL     1      -0.392  15.475  19.469  0.00  0.00    +0.000 C 
ATOM     26  O   UNL     1      -0.319  15.602  20.683  0.00  0.00    +0.000 OA
ATOM     27  H   UNL     1      -0.957  14.363  17.817  0.00  0.00    +0.000 HD
BRANCH  25  28
ATOM     28  C   UNL     1       0.028  16.549  18.574  0.00  0.00    +0.000 A 
ATOM     29  C   UNL     1      -0.892  17.444  18.000  0.00  0.00    +0.000 A 
ATOM     30  C   UNL     1      -0.453  18.383  17.069  0.00  0.00    +0.000 A 
ATOM     31  C   UNL     1       0.899  18.455  16.701  0.00  0.00    +0.000 A 
ATOM     32  C   UNL     1       1.777  17.566  17.319  0.00  0.00    +0.000 A 
ATOM     33  O   UNL     1       3.116  17.476  17.098  0.00  0.00    +0.000 OA
ATOM     34  C   UNL     1       3.588  16.472  17.894  0.00  0.00    +0.000 A 
ATOM     35  C   UNL     1       2.563  15.916  18.619  0.00  0.00    +0.000 A 
ATOM     36  C   UNL     1       1.387  16.619  18.254  0.00  0.00    +0.000 A 
ENDBRANCH  25  28
ENDBRANCH  23  24
ENDBRANCH   9  23
TORSDOF 5
ENDMDL
MODEL 4
REMARK VINA RESULT:      -7.3      1.057      1.717
REMARK  Name = 
REMARK  7 active torsions:
REMARK  status: ('A' for Active; 'I' for Inactive)
REMARK    1  A    between atoms: C_1  and  C_2
REMARK    2  A    between atoms: C_4  and  C_5
REMARK    3  A    between atoms: C_8  and  C_9
REMARK    4  A    between atoms: C_13  and  C_14
REMARK    5  A    between atoms: C_14  and  N_15
REMARK    6  A    between atoms: C_16  and  C_18
REMARK    7  A    between atoms: C_27  and  C_28
REMARK                            x       y       z     vdW  Elec       q    Type
REMARK                         _______ _______ _______ _____ _____    ______ ____
ROOT
ATOM      1  C   UNL     1       1.167  12.815  19.541  0.00  0.00    +0.000 C 
ATOM      2  O   UNL     1       2.085  12.599  18.749  0.00  0.00    +0.000 OA
ATOM      3  N   UNL     1       0.746  14.177  19.767  0.00  0.00    +0.000 N 
ATOM      4  C   UNL     1       1.477  15.320  19.117  0.00  0.00    +0.000 C 
ATOM      5  C   UNL     1       2.621  15.050  18.134  0.00  0.00    +0.000 C 
ATOM      6  C   UNL     1       0.481  16.266  18.408  0.00  0.00    +0.000 C 
ATOM      7  C   UNL     1      -0.619  16.759  19.334  0.00  0.00    +0.000 C 
ATOM      8  C   UNL     1      -1.289  15.582  20.007  0.00  0.00    +0.000 C 
ATOM      9  C   UNL     1      -0.258  14.711  20.750  0.00  0.00    +0.000 C 
ENDROOT
BRANCH   1  13
ATOM     10  C   UNL     1       1.220   9.273  22.941  0.00  0.00    +0.000 C 
ATOM     11  C   UNL     1       0.589  10.053  21.838  0.00  0.00    +0.000 A 
ATOM     12  N   UNL     1       0.843  11.321  21.586  0.00  0.00    +0.000 NA
ATOM     13  C   UNL     1       0.589  11.619  20.246  0.00  0.00    +0.000 A 
ATOM     14  C   UNL     1      -0.417  10.773  19.761  0.00  0.00    +0.000 A 
ATOM     15  S   UNL     1      -0.451   9.319  20.712  0.00  0.00    +0.000 S 
BRANCH  14  16
ATOM     16  C   UNL     1      -1.385  10.904  18.673  0.00  0.00    +0.000 A 
ATOM     17  C   UNL     1      -2.478  11.772  18.748  0.00  0.00    +0.000 A 
ATOM     18  C   UNL     1      -3.492  11.717  17.785  0.00  0.00    +0.000 A 
ATOM     19  C   UNL     1      -3.377  10.834  16.719  0.00  0.00    +0.000 A 
ATOM     20  F   UNL     1      -4.366  10.751  15.820  0.00  0.00    +0.000 F 
ATOM     21  C   UNL     1      -2.267  10.012  16.585  0.00  0.00    +0.000 A 
ATOM     22  C   UNL     1      -1.278  10.040  17.566  0.00  0.00    +0.000 A 
ENDBRANCH  14  16
ENDBRANCH   1  13
BRANCH   9  23
ATOM     23  C   UNL     1      -1.036  13.735  21.594  0.00  0.00    +0.000 C 
BRANCH  23  24
ATOM     24  N   UNL     1      -2.453  13.923  21.684  0.00  0.00    +0.000 N 
ATOM     25  C   UNL     1      -3.222  12.924  22.219  0.00  0.00    +0.000 C 
ATOM     26  O   UNL     1      -2.794  11.980  22.868  0.00  0.00    +0.000 OA
ATOM     27  H   UNL     1      -2.873  14.613  21.076  0.00  0.00    +0.000 HD
BRANCH  25  28
ATOM     28  C   UNL     1      -4.652  13.084  21.980  0.00  0.00    +0.000 A 
ATOM     29  C   UNL     1      -5.334  12.331  21.008  0.00  0.00    +0.000 A 
ATOM     30  C   UNL     1      -6.676  12.598  20.743  0.00  0.00    +0.000 A 
ATOM     31  C   UNL     1      -7.362  13.604  21.440  0.00  0.00    +0.000 A 
ATOM     32  C   UNL     1      -6.651  14.303  22.414  0.00  0.00    +0.000 A 
ATOM     33  O   UNL     1      -7.132  15.311  23.192  0.00  0.00    +0.000 OA
ATOM     34  C   UNL     1      -6.108  15.723  23.995  0.00  0.00    +0.000 A 
ATOM     35  C   UNL     1      -4.975  14.991  23.737  0.00  0.00    +0.000 A 
ATOM     36  C   UNL     1      -5.318  14.070  22.715  0.00  0.00    +0.000 A 
ENDBRANCH  25  28
ENDBRANCH  23  24
ENDBRANCH   9  23
TORSDOF 5
ENDMDL
MODEL 5
REMARK VINA RESULT:      -7.2      2.612      3.909
REMARK  Name = 
REMARK  7 active torsions:
REMARK  status: ('A' for Active; 'I' for Inactive)
REMARK    1  A    between atoms: C_1  and  C_2
REMARK    2  A    between atoms: C_4  and  C_5
REMARK    3  A    between atoms: C_8  and  C_9
REMARK    4  A    between atoms: C_13  and  C_14
REMARK    5  A    between atoms: C_14  and  N_15
REMARK    6  A    between atoms: C_16  and  C_18
REMARK    7  A    between atoms: C_27  and  C_28
REMARK                            x       y       z     vdW  Elec       q    Type
REMARK                         _______ _______ _______ _____ _____    ______ ____
ROOT
ATOM      1  C   UNL     1       0.689  12.819  19.196  0.00  0.00    +0.000 C 
ATOM      2  O   UNL     1       1.630  13.064  18.441  0.00  0.00    +0.000 OA
ATOM      3  N   UNL     1       0.692  13.385  20.523  0.00  0.00    +0.000 N 
ATOM      4  C   UNL     1       1.871  14.184  21.009  0.00  0.00    +0.000 C 
ATOM      5  C   UNL     1       3.044  14.485  20.070  0.00  0.00    +0.000 C 
ATOM      6  C   UNL     1       1.404  15.533  21.601  0.00  0.00    +0.000 C 
ATOM      7  C   UNL     1       0.356  15.363  22.689  0.00  0.00    +0.000 C 
ATOM      8  C   UNL     1      -0.783  14.510  22.176  0.00  0.00    +0.000 C 
ATOM      9  C   UNL     1      -0.265  13.153  21.658  0.00  0.00    +0.000 C 
ENDROOT
BRANCH   1  13
ATOM     10  C   UNL     1      -3.871  11.785  17.695  0.00  0.00    +0.000 C 
ATOM     11  C   UNL     1      -2.435  11.454  17.922  0.00  0.00    +0.000 A 
ATOM     12  N   UNL     1      -1.456  12.337  17.897  0.00  0.00    +0.000 NA
ATOM     13  C   UNL     1      -0.377  11.899  18.667  0.00  0.00    +0.000 A 
ATOM     14  C   UNL     1      -0.347  10.498  18.676  0.00  0.00    +0.000 A 
ATOM     15  S   UNL     1      -1.943   9.888  18.361  0.00  0.00    +0.000 S 
BRANCH  14  16
ATOM     16  C   UNL     1       0.731   9.530  18.880  0.00  0.00    +0.000 A 
ATOM     17  C   UNL     1       1.532   9.075  17.829  0.00  0.00    +0.000 A 
ATOM     18  C   UNL     1       2.407   8.000  18.022  0.00  0.00    +0.000 A 
ATOM     19  C   UNL     1       2.518   7.424  19.281  0.00  0.00    +0.000 A 
ATOM     20  F   UNL     1       3.324   6.369  19.457  0.00  0.00    +0.000 F 
ATOM     21  C   UNL     1       1.784   7.905  20.357  0.00  0.00    +0.000 A 
ATOM     22  C   UNL     1       0.885   8.949  20.153  0.00  0.00    +0.000 A 
ENDBRANCH  14  16
ENDBRANCH   1  13
BRANCH   9  23
ATOM     23  C   UNL     1      -1.474  12.285  21.422  0.00  0.00    +0.000 C 
BRANCH  23  24
ATOM     24  N   UNL     1      -2.755  12.925  21.411  0.00  0.00    +0.000 N 
ATOM     25  C   UNL     1      -3.677  12.578  22.362  0.00  0.00    +0.000 C 
ATOM     26  O   UNL     1      -3.432  11.954  23.384  0.00  0.00    +0.000 OA
ATOM     27  H   UNL     1      -3.057  13.354  20.546  0.00  0.00    +0.000 HD
BRANCH  25  28
ATOM     28  C   UNL     1      -5.029  13.050  22.076  0.00  0.00    +0.000 A 
ATOM     29  C   UNL     1      -5.838  12.444  21.099  0.00  0.00    +0.000 A 
ATOM     30  C   UNL     1      -7.078  12.998  20.789  0.00  0.00    +0.000 A 
ATOM     31  C   UNL     1      -7.537  14.150  21.445  0.00  0.00    +0.000 A 
ATOM     32  C   UNL     1      -6.711  14.697  22.426  0.00  0.00    +0.000 A 
ATOM     33  O   UNL     1      -6.973  15.807  23.169  0.00  0.00    +0.000 OA
ATOM     34  C   UNL     1      -5.902  15.999  23.994  0.00  0.00    +0.000 A 
ATOM     35  C   UNL     1      -4.957  15.025  23.785  0.00  0.00    +0.000 A 
ATOM     36  C   UNL     1      -5.473  14.179  22.772  0.00  0.00    +0.000 A 
ENDBRANCH  25  28
ENDBRANCH  23  24
ENDBRANCH   9  23
TORSDOF 5
ENDMDL
MODEL 6
REMARK VINA RESULT:      -7.1      4.034      8.254
REMARK  Name = 
REMARK  7 active torsions:
REMARK  status: ('A' for Active; 'I' for Inactive)
REMARK    1  A    between atoms: C_1  and  C_2
REMARK    2  A    between atoms: C_4  and  C_5
REMARK    3  A    between atoms: C_8  and  C_9
REMARK    4  A    between atoms: C_13  and  C_14
REMARK    5  A    between atoms: C_14  and  N_15
REMARK    6  A    between atoms: C_16  and  C_18
REMARK    7  A    between atoms: C_27  and  C_28
REMARK                            x       y       z     vdW  Elec       q    Type
REMARK                         _______ _______ _______ _____ _____    ______ ____
ROOT
ATOM      1  C   UNL     1      -1.976  12.839  19.375  0.00  0.00    +0.000 C 
ATOM      2  O   UNL     1      -2.837  13.655  19.707  0.00  0.00    +0.000 OA
ATOM      3  N   UNL     1      -2.389  11.589  18.785  0.00  0.00    +0.000 N 
ATOM      4  C   UNL     1      -3.850  11.249  18.662  0.00  0.00    +0.000 C 
ATOM      5  C   UNL     1      -4.920  12.263  19.077  0.00  0.00    +0.000 C 
ATOM      6  C   UNL     1      -4.182  10.801  17.219  0.00  0.00    +0.000 C 
ATOM      7  C   UNL     1      -3.298   9.660  16.743  0.00  0.00    +0.000 C 
ATOM      8  C   UNL     1      -1.843  10.022  16.936  0.00  0.00    +0.000 C 
ATOM      9  C   UNL     1      -1.557  10.397  18.403  0.00  0.00    +0.000 C 
ENDROOT
BRANCH   1  13
ATOM     10  C   UNL     1       2.792  13.157  18.247  0.00  0.00    +0.000 C 
ATOM     11  C   UNL     1       1.607  13.415  19.115  0.00  0.00    +0.000 A 
ATOM     12  N   UNL     1       0.374  13.544  18.669  0.00  0.00    +0.000 NA
ATOM     13  C   UNL     1      -0.548  13.212  19.664  0.00  0.00    +0.000 A 
ATOM     14  C   UNL     1       0.004  13.484  20.922  0.00  0.00    +0.000 A 
ATOM     15  S   UNL     1       1.737  13.446  20.809  0.00  0.00    +0.000 S 
BRANCH  14  16
ATOM     16  C   UNL     1      -0.593  13.786  22.223  0.00  0.00    +0.000 A 
ATOM     17  C   UNL     1      -1.484  12.914  22.855  0.00  0.00    +0.000 A 
ATOM     18  C   UNL     1      -2.191  13.327  23.991  0.00  0.00    +0.000 A 
ATOM     19  C   UNL     1      -1.960  14.590  24.520  0.00  0.00    +0.000 A 
ATOM     20  F   UNL     1      -2.666  15.002  25.581  0.00  0.00    +0.000 F 
ATOM     21  C   UNL     1      -1.028  15.447  23.951  0.00  0.00    +0.000 A 
ATOM     22  C   UNL     1      -0.354  15.049  22.798  0.00  0.00    +0.000 A 
ENDBRANCH  14  16
ENDBRANCH   1  13
BRANCH   9  23
ATOM     23  C   UNL     1      -0.060  10.480  18.551  0.00  0.00    +0.000 C 
BRANCH  23  24
ATOM     24  N   UNL     1       0.697   9.292  18.289  0.00  0.00    +0.000 N 
ATOM     25  C   UNL     1       1.442   8.745  19.299  0.00  0.00    +0.000 C 
ATOM     26  O   UNL     1       1.331   9.024  20.485  0.00  0.00    +0.000 OA
ATOM     27  H   UNL     1       0.919   9.082  17.325  0.00  0.00    +0.000 HD
BRANCH  25  28
ATOM     28  C   UNL     1       2.400   7.740  18.850  0.00  0.00    +0.000 A 
ATOM     29  C   UNL     1       3.241   7.954  17.744  0.00  0.00    +0.000 A 
ATOM     30  C   UNL     1       4.061   6.923  17.291  0.00  0.00    +0.000 A 
ATOM     31  C   UNL     1       4.068   5.673  17.929  0.00  0.00    +0.000 A 
ATOM     32  C   UNL     1       3.238   5.520  19.039  0.00  0.00    +0.000 A 
ATOM     33  O   UNL     1       3.100   4.393  19.788  0.00  0.00    +0.000 OA
ATOM     34  C   UNL     1       2.184   4.668  20.762  0.00  0.00    +0.000 A 
ATOM     35  C   UNL     1       1.731   5.959  20.641  0.00  0.00    +0.000 A 
ATOM     36  C   UNL     1       2.409   6.517  19.529  0.00  0.00    +0.000 A 
ENDBRANCH  25  28
ENDBRANCH  23  24
ENDBRANCH   9  23
TORSDOF 5
ENDMDL
MODEL 7
REMARK VINA RESULT:      -7.1      3.237      7.361
REMARK  Name = 
REMARK  7 active torsions:
REMARK  status: ('A' for Active; 'I' for Inactive)
REMARK    1  A    between atoms: C_1  and  C_2
REMARK    2  A    between atoms: C_4  and  C_5
REMARK    3  A    between atoms: C_8  and  C_9
REMARK    4  A    between atoms: C_13  and  C_14
REMARK    5  A    between atoms: C_14  and  N_15
REMARK    6  A    between atoms: C_16  and  C_18
REMARK    7  A    between atoms: C_27  and  C_28
REMARK                            x       y       z     vdW  Elec       q    Type
REMARK                         _______ _______ _______ _____ _____    ______ ____
ROOT
ATOM      1  C   UNL     1      -0.114   9.908  20.763  0.00  0.00    +0.000 C 
ATOM      2  O   UNL     1      -0.564   9.065  21.539  0.00  0.00    +0.000 OA
ATOM      3  N   UNL     1       1.034   9.573  19.955  0.00  0.00    +0.000 N 
ATOM      4  C   UNL     1       1.726   8.248  20.125  0.00  0.00    +0.000 C 
ATOM      5  C   UNL     1       1.168   7.200  21.093  0.00  0.00    +0.000 C 
ATOM      6  C   UNL     1       1.908   7.552  18.756  0.00  0.00    +0.000 C 
ATOM      7  C   UNL     1       2.622   8.432  17.743  0.00  0.00    +0.000 C 
ATOM      8  C   UNL     1       1.926   9.771  17.645  0.00  0.00    +0.000 C 
ATOM      9  C   UNL     1       1.831  10.446  19.027  0.00  0.00    +0.000 C 
ENDROOT
BRANCH   1  13
ATOM     10  C   UNL     1      -1.272  14.243  22.759  0.00  0.00    +0.000 C 
ATOM     11  C   UNL     1      -1.256  13.248  21.648  0.00  0.00    +0.000 A 
ATOM     12  N   UNL     1      -0.304  12.356  21.463  0.00  0.00    +0.000 NA
ATOM     13  C   UNL     1      -0.791  11.252  20.762  0.00  0.00    +0.000 A 
ATOM     14  C   UNL     1      -1.843  11.653  19.929  0.00  0.00    +0.000 A 
ATOM     15  S   UNL     1      -2.561  13.100  20.569  0.00  0.00    +0.000 S 
BRANCH  14  16
ATOM     16  C   UNL     1      -2.394  11.104  18.690  0.00  0.00    +0.000 A 
ATOM     17  C   UNL     1      -1.705  10.162  17.922  0.00  0.00    +0.000 A 
ATOM     18  C   UNL     1      -2.164   9.818  16.645  0.00  0.00    +0.000 A 
ATOM     19  C   UNL     1      -3.343  10.377  16.168  0.00  0.00    +0.000 A 
ATOM     20  F   UNL     1      -3.762  10.083  14.931  0.00  0.00    +0.000 F 
ATOM     21  C   UNL     1      -4.082  11.262  16.942  0.00  0.00    +0.000 A 
ATOM     22  C   UNL     1      -3.602  11.632  18.196  0.00  0.00    +0.000 A 
ENDBRANCH  14  16
ENDBRANCH   1  13
BRANCH   9  23
ATOM     23  C   UNL     1       1.374  11.862  18.792  0.00  0.00    +0.000 C 
BRANCH  23  24
ATOM     24  N   UNL     1       2.073  12.905  19.482  0.00  0.00    +0.000 N 
ATOM     25  C   UNL     1       1.716  14.207  19.252  0.00  0.00    +0.000 C 
ATOM     26  O   UNL     1       0.684  14.566  18.703  0.00  0.00    +0.000 OA
ATOM     27  H   UNL     1       2.989  12.690  19.851  0.00  0.00    +0.000 HD
BRANCH  25  28
ATOM     28  C   UNL     1       2.678  15.183  19.754  0.00  0.00    +0.000 A 
ATOM     29  C   UNL     1       2.359  16.082  20.787  0.00  0.00    +0.000 A 
ATOM     30  C   UNL     1       3.276  17.064  21.156  0.00  0.00    +0.000 A 
ATOM     31  C   UNL     1       4.520  17.164  20.517  0.00  0.00    +0.000 A 
ATOM     32  C   UNL     1       4.802  16.232  19.519  0.00  0.00    +0.000 A 
ATOM     33  O   UNL     1       5.945  16.164  18.784  0.00  0.00    +0.000 OA
ATOM     34  C   UNL     1       5.802  15.120  17.915  0.00  0.00    +0.000 A 
ATOM     35  C   UNL     1       4.577  14.522  18.085  0.00  0.00    +0.000 A 
ATOM     36  C   UNL     1       3.924  15.236  19.121  0.00  0.00    +0.000 A 
ENDBRANCH  25  28
ENDBRANCH  23  24
ENDBRANCH   9  23
TORSDOF 5
ENDMDL
MODEL 8
REMARK VINA RESULT:      -7.1      3.238      7.271
REMARK  Name = 
REMARK  7 active torsions:
REMARK  status: ('A' for Active; 'I' for Inactive)
REMARK    1  A    between atoms: C_1  and  C_2
REMARK    2  A    between atoms: C_4  and  C_5
REMARK    3  A    between atoms: C_8  and  C_9
REMARK    4  A    between atoms: C_13  and  C_14
REMARK    5  A    between atoms: C_14  and  N_15
REMARK    6  A    between atoms: C_16  and  C_18
REMARK    7  A    between atoms: C_27  and  C_28
REMARK                            x       y       z     vdW  Elec       q    Type
REMARK                         _______ _______ _______ _____ _____    ______ ____
ROOT
ATOM      1  C   UNL     1      -0.063   9.968  20.762  0.00  0.00    +0.000 C 
ATOM      2  O   UNL     1      -0.498   9.151  21.574  0.00  0.00    +0.000 OA
ATOM      3  N   UNL     1       1.064   9.603  19.938  0.00  0.00    +0.000 N 
ATOM      4  C   UNL     1       1.755   8.280  20.133  0.00  0.00    +0.000 C 
ATOM      5  C   UNL     1       1.216   7.265  21.146  0.00  0.00    +0.000 C 
ATOM      6  C   UNL     1       1.902   7.542  18.782  0.00  0.00    +0.000 C 
ATOM      7  C   UNL     1       2.595   8.386  17.726  0.00  0.00    +0.000 C 
ATOM      8  C   UNL     1       1.902   9.725  17.603  0.00  0.00    +0.000 C 
ATOM      9  C   UNL     1       1.843  10.443  18.966  0.00  0.00    +0.000 C 
ENDROOT
BRANCH   1  13
ATOM     10  C   UNL     1      -1.166  14.362  22.656  0.00  0.00    +0.000 C 
ATOM     11  C   UNL     1      -1.175  13.336  21.574  0.00  0.00    +0.000 A 
ATOM     12  N   UNL     1      -0.230  12.436  21.396  0.00  0.00    +0.000 NA
ATOM     13  C   UNL     1      -0.734  11.313  20.736  0.00  0.00    +0.000 A 
ATOM     14  C   UNL     1      -1.801  11.695  19.913  0.00  0.00    +0.000 A 
ATOM     15  S   UNL     1      -2.500  13.164  20.524  0.00  0.00    +0.000 S 
BRANCH  14  16
ATOM     16  C   UNL     1      -2.377  11.114  18.700  0.00  0.00    +0.000 A 
ATOM     17  C   UNL     1      -1.668  10.221  17.892  0.00  0.00    +0.000 A 
ATOM     18  C   UNL     1      -2.169   9.851  16.639  0.00  0.00    +0.000 A 
ATOM     19  C   UNL     1      -3.405  10.332  16.226  0.00  0.00    +0.000 A 
ATOM     20  F   UNL     1      -3.866  10.013  15.010  0.00  0.00    +0.000 F 
ATOM     21  C   UNL     1      -4.160  11.164  17.041  0.00  0.00    +0.000 A 
ATOM     22  C   UNL     1      -3.641  11.562  18.271  0.00  0.00    +0.000 A 
ENDBRANCH  14  16
ENDBRANCH   1  13
BRANCH   9  23
ATOM     23  C   UNL     1       1.385  11.853  18.698  0.00  0.00    +0.000 C 
BRANCH  23  24
ATOM     24  N   UNL     1       2.223  12.918  19.164  0.00  0.00    +0.000 N 
ATOM     25  C   UNL     1       1.789  14.210  19.028  0.00  0.00    +0.000 C 
ATOM     26  O   UNL     1       0.639  14.543  18.775  0.00  0.00    +0.000 OA
ATOM     27  H   UNL     1       3.209  12.725  19.274  0.00  0.00    +0.000 HD
BRANCH  25  28
ATOM     28  C   UNL     1       2.830  15.210  19.242  0.00  0.00    +0.000 A 
ATOM     29  C   UNL     1       3.664  15.654  18.200  0.00  0.00    +0.000 A 
ATOM     30  C   UNL     1       4.711  16.529  18.479  0.00  0.00    +0.000 A 
ATOM     31  C   UNL     1       4.943  16.982  19.786  0.00  0.00    +0.000 A 
ATOM     32  C   UNL     1       4.072  16.537  20.780  0.00  0.00    +0.000 A 
ATOM     33  O   UNL     1       4.130  16.858  22.101  0.00  0.00    +0.000 OA
ATOM     34  C   UNL     1       3.106  16.199  22.719  0.00  0.00    +0.000 A 
ATOM     35  C   UNL     1       2.395  15.458  21.807  0.00  0.00    +0.000 A 
ATOM     36  C   UNL     1       3.014  15.671  20.549  0.00  0.00    +0.000 A 
ENDBRANCH  25  28
ENDBRANCH  23  24
ENDBRANCH   9  23
TORSDOF 5
ENDMDL
MODEL 9
REMARK VINA RESULT:      -7.0      2.831      4.839
REMARK  Name = 
REMARK  7 active torsions:
REMARK  status: ('A' for Active; 'I' for Inactive)
REMARK    1  A    between atoms: C_1  and  C_2
REMARK    2  A    between atoms: C_4  and  C_5
REMARK    3  A    between atoms: C_8  and  C_9
REMARK    4  A    between atoms: C_13  and  C_14
REMARK    5  A    between atoms: C_14  and  N_15
REMARK    6  A    between atoms: C_16  and  C_18
REMARK    7  A    between atoms: C_27  and  C_28
REMARK                            x       y       z     vdW  Elec       q    Type
REMARK                         _______ _______ _______ _____ _____    ______ ____
ROOT
ATOM      1  C   UNL     1      -1.489  10.637  18.324  0.00  0.00    +0.000 C 
ATOM      2  O   UNL     1      -1.075   9.999  17.355  0.00  0.00    +0.000 OA
ATOM      3  N   UNL     1      -2.708  11.398  18.190  0.00  0.00    +0.000 N 
ATOM      4  C   UNL     1      -3.412  11.485  16.863  0.00  0.00    +0.000 C 
ATOM      5  C   UNL     1      -2.894  10.694  15.657  0.00  0.00    +0.000 C 
ATOM      6  C   UNL     1      -4.912  11.144  17.022  0.00  0.00    +0.000 C 
ATOM      7  C   UNL     1      -5.597  11.997  18.077  0.00  0.00    +0.000 C 
ATOM      8  C   UNL     1      -4.827  11.924  19.376  0.00  0.00    +0.000 C 
ATOM      9  C   UNL     1      -3.356  12.336  19.170  0.00  0.00    +0.000 C 
ENDROOT
BRANCH   1  13
ATOM     10  C   UNL     1      -0.433   9.106  22.868  0.00  0.00    +0.000 C 
ATOM     11  C   UNL     1      -0.135   9.844  21.607  0.00  0.00    +0.000 A 
ATOM     12  N   UNL     1      -0.582   9.492  20.418  0.00  0.00    +0.000 NA
ATOM     13  C   UNL     1      -0.644  10.597  19.567  0.00  0.00    +0.000 A 
ATOM     14  C   UNL     1       0.333  11.530  19.939  0.00  0.00    +0.000 A 
ATOM     15  S   UNL     1       0.730  11.306  21.616  0.00  0.00    +0.000 S 
BRANCH  14  16
ATOM     16  C   UNL     1       1.037  12.578  19.201  0.00  0.00    +0.000 A 
ATOM     17  C   UNL     1       2.210  12.326  18.483  0.00  0.00    +0.000 A 
ATOM     18  C   UNL     1       2.965  13.386  17.967  0.00  0.00    +0.000 A 
ATOM     19  C   UNL     1       2.511  14.689  18.123  0.00  0.00    +0.000 A 
ATOM     20  F   UNL     1       3.253  15.707  17.667  0.00  0.00    +0.000 F 
ATOM     21  C   UNL     1       1.313  14.959  18.770  0.00  0.00    +0.000 A 
ATOM     22  C   UNL     1       0.584  13.906  19.317  0.00  0.00    +0.000 A 
ENDBRANCH  14  16
ENDBRANCH   1  13
BRANCH   9  23
ATOM     23  C   UNL     1      -2.747  12.487  20.540  0.00  0.00    +0.000 C 
BRANCH  23  24
ATOM     24  N   UNL     1      -3.243  13.544  21.370  0.00  0.00    +0.000 N 
ATOM     25  C   UNL     1      -3.797  13.229  22.582  0.00  0.00    +0.000 C 
ATOM     26  O   UNL     1      -3.684  12.151  23.148  0.00  0.00    +0.000 OA
ATOM     27  H   UNL     1      -3.468  14.423  20.924  0.00  0.00    +0.000 HD
BRANCH  25  28
ATOM     28  C   UNL     1      -4.539  14.326  23.196  0.00  0.00    +0.000 A 
ATOM     29  C   UNL     1      -5.895  14.561  22.907  0.00  0.00    +0.000 A 
ATOM     30  C   UNL     1      -6.529  15.684  23.436  0.00  0.00    +0.000 A 
ATOM     31  C   UNL     1      -5.836  16.581  24.261  0.00  0.00    +0.000 A 
ATOM     32  C   UNL     1      -4.501  16.289  24.542  0.00  0.00    +0.000 A 
ATOM     33  O   UNL     1      -3.662  17.031  25.314  0.00  0.00    +0.000 OA
ATOM     34  C   UNL     1      -2.452  16.399  25.314  0.00  0.00    +0.000 A 
ATOM     35  C   UNL     1      -2.508  15.261  24.547  0.00  0.00    +0.000 A 
ATOM     36  C   UNL     1      -3.831  15.183  24.043  0.00  0.00    +0.000 A 
ENDBRANCH  25  28
ENDBRANCH  23  24
ENDBRANCH   9  23
TORSDOF 5
ENDMDL
