MODEL 1
REMARK VINA RESULT:      -6.0      0.000      0.000
REMARK  Name = 
REMARK  1 active torsions:
REMARK  status: ('A' for Active; 'I' for Inactive)
REMARK    1  A    between atoms: O_1  and  C_2
REMARK                            x       y       z     vdW  Elec       q    Type
REMARK                         _______ _______ _______ _____ _____    ______ ____
ROOT
ATOM      1  C   UNL     1       2.457   2.548  18.882  0.00  0.00    +0.000 A 
ATOM      2  N   UNL     1       1.625   2.219  19.875  0.00  0.00    +0.000 NA
ATOM      3  C   UNL     1       1.155   3.235  20.622  0.00  0.00    +0.000 A 
ATOM      4  N   UNL     1       1.413   4.544  20.500  0.00  0.00    +0.000 NA
ATOM      5  C   UNL     1       2.257   4.805  19.483  0.00  0.00    +0.000 A 
ATOM      6  S   UNL     1       2.747   6.416  19.118  0.00  0.00    +0.000 S 
ATOM      7  C   UNL     1       3.691   5.862  17.853  0.00  0.00    +0.000 A 
ATOM      8  C   UNL     1       3.656   4.505  17.684  0.00  0.00    +0.000 A 
ATOM      9  C   UNL     1       2.823   3.862  18.627  0.00  0.00    +0.000 A 
ATOM     10  C   UNL     1       4.513   4.082  16.549  0.00  0.00    +0.000 C 
ATOM     11  C   UNL     1       5.364   5.365  16.291  0.00  0.00    +0.000 C 
ATOM     12  C   UNL     1       4.560   6.566  16.882  0.00  0.00    +0.000 C 
ENDROOT
BRANCH   1  13
ATOM     13  O   UNL     1       2.916   1.494  18.145  0.00  0.00    +0.000 OA
ATOM     14  H   UNL     1       2.894   0.786  18.815  0.00  0.00    +0.000 HD
ENDBRANCH   1  13
TORSDOF 1
ENDMDL
MODEL 2
REMARK VINA RESULT:      -5.9      2.340      2.721
REMARK  Name = 
REMARK  1 active torsions:
REMARK  status: ('A' for Active; 'I' for Inactive)
REMARK    1  A    between atoms: O_1  and  C_2
REMARK                            x       y       z     vdW  Elec       q    Type
REMARK                         _______ _______ _______ _____ _____    ______ ____
ROOT
ATOM      1  C   UNL     1       4.404   3.464  19.028  0.00  0.00    +0.000 A 
ATOM      2  N   UNL     1       3.147   3.011  18.996  0.00  0.00    +0.000 NA
ATOM      3  C   UNL     1       2.250   3.779  18.351  0.00  0.00    +0.000 A 
ATOM      4  N   UNL     1       2.454   4.950  17.732  0.00  0.00    +0.000 NA
ATOM      5  C   UNL     1       3.739   5.348  17.803  0.00  0.00    +0.000 A 
ATOM      6  S   UNL     1       4.259   6.825  17.083  0.00  0.00    +0.000 S 
ATOM      7  C   UNL     1       5.824   6.550  17.604  0.00  0.00    +0.000 A 
ATOM      8  C   UNL     1       5.982   5.384  18.303  0.00  0.00    +0.000 A 
ATOM      9  C   UNL     1       4.774   4.661  18.433  0.00  0.00    +0.000 A 
ATOM     10  C   UNL     1       7.390   5.203  18.735  0.00  0.00    +0.000 C 
ATOM     11  C   UNL     1       7.985   6.628  18.506  0.00  0.00    +0.000 C 
ATOM     12  C   UNL     1       7.072   7.333  17.454  0.00  0.00    +0.000 C 
ENDROOT
BRANCH   1  13
ATOM     13  O   UNL     1       5.287   2.661  19.690  0.00  0.00    +0.000 OA
ATOM     14  H   UNL     1       4.867   1.791  19.561  0.00  0.00    +0.000 HD
ENDBRANCH   1  13
TORSDOF 1
ENDMDL
MODEL 3
REMARK VINA RESULT:      -5.8      4.052      5.301
REMARK  Name = 
REMARK  1 active torsions:
REMARK  status: ('A' for Active; 'I' for Inactive)
REMARK    1  A    between atoms: O_1  and  C_2
REMARK                            x       y       z     vdW  Elec       q    Type
REMARK                         _______ _______ _______ _____ _____    ______ ____
ROOT
ATOM      1  C   UNL     1       7.471   6.012  19.155  0.00  0.00    +0.000 A 
ATOM      2  N   UNL     1       8.315   7.013  18.888  0.00  0.00    +0.000 NA
ATOM      3  C   UNL     1       8.057   7.734  17.782  0.00  0.00    +0.000 A 
ATOM      4  N   UNL     1       7.055   7.579  16.905  0.00  0.00    +0.000 NA
ATOM      5  C   UNL     1       6.244   6.556  17.234  0.00  0.00    +0.000 A 
ATOM      6  S   UNL     1       4.878   6.150  16.264  0.00  0.00    +0.000 S 
ATOM      7  C   UNL     1       4.491   4.896  17.300  0.00  0.00    +0.000 A 
ATOM      8  C   UNL     1       5.347   4.763  18.359  0.00  0.00    +0.000 A 
ATOM      9  C   UNL     1       6.384   5.724  18.343  0.00  0.00    +0.000 A 
ATOM     10  C   UNL     1       4.947   3.635  19.236  0.00  0.00    +0.000 C 
ATOM     11  C   UNL     1       3.924   2.873  18.336  0.00  0.00    +0.000 C 
ATOM     12  C   UNL     1       3.395   3.900  17.286  0.00  0.00    +0.000 C 
ENDROOT
BRANCH   1  13
ATOM     13  O   UNL     1       7.762   5.301  20.284  0.00  0.00    +0.000 OA
ATOM     14  H   UNL     1       6.930   4.807  20.401  0.00  0.00    +0.000 HD
ENDBRANCH   1  13
TORSDOF 1
ENDMDL
MODEL 4
REMARK VINA RESULT:      -5.8      2.073      2.677
REMARK  Name = 
REMARK  1 active torsions:
REMARK  status: ('A' for Active; 'I' for Inactive)
REMARK    1  A    between atoms: O_1  and  C_2
REMARK                            x       y       z     vdW  Elec       q    Type
REMARK                         _______ _______ _______ _____ _____    ______ ____
ROOT
ATOM      1  C   UNL     1       2.237   5.623  19.943  0.00  0.00    +0.000 A 
ATOM      2  N   UNL     1       1.354   5.038  20.758  0.00  0.00    +0.000 NA
ATOM      3  C   UNL     1       1.108   3.734  20.537  0.00  0.00    +0.000 A 
ATOM      4  N   UNL     1       1.637   2.937  19.598  0.00  0.00    +0.000 NA
ATOM      5  C   UNL     1       2.517   3.588  18.813  0.00  0.00    +0.000 A 
ATOM      6  S   UNL     1       3.335   2.783  17.528  0.00  0.00    +0.000 S 
ATOM      7  C   UNL     1       4.137   4.195  17.129  0.00  0.00    +0.000 A 
ATOM      8  C   UNL     1       3.820   5.262  17.925  0.00  0.00    +0.000 A 
ATOM      9  C   UNL     1       2.871   4.931  18.920  0.00  0.00    +0.000 A 
ATOM     10  C   UNL     1       4.563   6.478  17.517  0.00  0.00    +0.000 C 
ATOM     11  C   UNL     1       5.105   6.071  16.111  0.00  0.00    +0.000 C 
ATOM     12  C   UNL     1       5.126   4.510  16.072  0.00  0.00    +0.000 C 
ENDROOT
BRANCH   1  13
ATOM     13  O   UNL     1       2.463   6.946  20.194  0.00  0.00    +0.000 OA
ATOM     14  H   UNL     1       2.215   6.991  21.136  0.00  0.00    +0.000 HD
ENDBRANCH   1  13
TORSDOF 1
ENDMDL
MODEL 5
REMARK VINA RESULT:      -5.8      1.321      1.321
REMARK  Name = 
REMARK  1 active torsions:
REMARK  status: ('A' for Active; 'I' for Inactive)
REMARK    1  A    between atoms: O_1  and  C_2
REMARK                            x       y       z     vdW  Elec       q    Type
REMARK                         _______ _______ _______ _____ _____    ______ ____
ROOT
ATOM      1  C   UNL     1       3.957   2.891  20.033  0.00  0.00    +0.000 A 
ATOM      2  N   UNL     1       3.191   2.518  21.062  0.00  0.00    +0.000 NA
ATOM      3  C   UNL     1       2.259   3.401  21.466  0.00  0.00    +0.000 A 
ATOM      4  N   UNL     1       1.996   4.616  20.966  0.00  0.00    +0.000 NA
ATOM      5  C   UNL     1       2.802   4.929  19.934  0.00  0.00    +0.000 A 
ATOM      6  S   UNL     1       2.665   6.440  19.118  0.00  0.00    +0.000 S 
ATOM      7  C   UNL     1       3.917   6.022  18.092  0.00  0.00    +0.000 A 
ATOM      8  C   UNL     1       4.444   4.782  18.332  0.00  0.00    +0.000 A 
ATOM      9  C   UNL     1       3.807   4.121  19.407  0.00  0.00    +0.000 A 
ATOM     10  C   UNL     1       5.548   4.475  17.390  0.00  0.00    +0.000 C 
ATOM     11  C   UNL     1       5.853   5.879  16.780  0.00  0.00    +0.000 C 
ATOM     12  C   UNL     1       4.567   6.743  16.973  0.00  0.00    +0.000 C 
ENDROOT
BRANCH   1  13
ATOM     13  O   UNL     1       4.892   1.973  19.649  0.00  0.00    +0.000 OA
ATOM     14  H   UNL     1       4.373   1.151  19.724  0.00  0.00    +0.000 HD
ENDBRANCH   1  13
TORSDOF 1
ENDMDL
MODEL 6
REMARK VINA RESULT:      -5.8      2.927      4.794
REMARK  Name = 
REMARK  1 active torsions:
REMARK  status: ('A' for Active; 'I' for Inactive)
REMARK    1  A    between atoms: O_1  and  C_2
REMARK                            x       y       z     vdW  Elec       q    Type
REMARK                         _______ _______ _______ _____ _____    ______ ____
ROOT
ATOM      1  C   UNL     1       3.775   6.095  17.632  0.00  0.00    +0.000 A 
ATOM      2  N   UNL     1       4.671   6.292  16.661  0.00  0.00    +0.000 NA
ATOM      3  C   UNL     1       5.194   5.189  16.096  0.00  0.00    +0.000 A 
ATOM      4  N   UNL     1       4.931   3.906  16.382  0.00  0.00    +0.000 NA
ATOM      5  C   UNL     1       4.023   3.779  17.368  0.00  0.00    +0.000 A 
ATOM      6  S   UNL     1       3.514   2.229  17.922  0.00  0.00    +0.000 S 
ATOM      7  C   UNL     1       2.490   2.941  19.035  0.00  0.00    +0.000 A 
ATOM      8  C   UNL     1       2.506   4.309  19.013  0.00  0.00    +0.000 A 
ATOM      9  C   UNL     1       3.397   4.825  18.044  0.00  0.00    +0.000 A 
ATOM     10  C   UNL     1       1.578   4.875  20.022  0.00  0.00    +0.000 C 
ATOM     11  C   UNL     1       1.273   3.631  20.914  0.00  0.00    +0.000 C 
ATOM     12  C   UNL     1       1.569   2.369  20.044  0.00  0.00    +0.000 C 
ENDROOT
BRANCH   1  13
ATOM     13  O   UNL     1       3.264   7.235  18.184  0.00  0.00    +0.000 OA
ATOM     14  H   UNL     1       3.333   7.019  19.131  0.00  0.00    +0.000 HD
ENDBRANCH   1  13
TORSDOF 1
ENDMDL
MODEL 7
REMARK VINA RESULT:      -5.8      1.792      1.864
REMARK  Name = 
REMARK  1 active torsions:
REMARK  status: ('A' for Active; 'I' for Inactive)
REMARK    1  A    between atoms: O_1  and  C_2
REMARK                            x       y       z     vdW  Elec       q    Type
REMARK                         _______ _______ _______ _____ _____    ______ ____
ROOT
ATOM      1  C   UNL     1       4.173   3.063  19.652  0.00  0.00    +0.000 A 
ATOM      2  N   UNL     1       3.005   2.655  20.156  0.00  0.00    +0.000 NA
ATOM      3  C   UNL     1       1.955   3.476  19.972  0.00  0.00    +0.000 A 
ATOM      4  N   UNL     1       1.927   4.660  19.345  0.00  0.00    +0.000 NA
ATOM      5  C   UNL     1       3.134   5.011  18.863  0.00  0.00    +0.000 A 
ATOM      6  S   UNL     1       3.363   6.493  18.014  0.00  0.00    +0.000 S 
ATOM      7  C   UNL     1       4.986   6.146  17.808  0.00  0.00    +0.000 A 
ATOM      8  C   UNL     1       5.375   4.952  18.350  0.00  0.00    +0.000 A 
ATOM      9  C   UNL     1       4.307   4.267  18.975  0.00  0.00    +0.000 A 
ATOM     10  C   UNL     1       6.821   4.707  18.132  0.00  0.00    +0.000 C 
ATOM     11  C   UNL     1       7.326   6.118  17.694  0.00  0.00    +0.000 C 
ATOM     12  C   UNL     1       6.083   6.891  17.149  0.00  0.00    +0.000 C 
ENDROOT
BRANCH   1  13
ATOM     13  O   UNL     1       5.217   2.207  19.856  0.00  0.00    +0.000 OA
ATOM     14  H   UNL     1       4.738   1.410  20.149  0.00  0.00    +0.000 HD
ENDBRANCH   1  13
TORSDOF 1
ENDMDL
MODEL 8
REMARK VINA RESULT:      -5.8      2.581      4.190
REMARK  Name = 
REMARK  1 active torsions:
REMARK  status: ('A' for Active; 'I' for Inactive)
REMARK    1  A    between atoms: O_1  and  C_2
REMARK                            x       y       z     vdW  Elec       q    Type
REMARK                         _______ _______ _______ _____ _____    ______ ____
ROOT
ATOM      1  C   UNL     1       5.200   4.383  16.560  0.00  0.00    +0.000 A 
ATOM      2  N   UNL     1       5.938   5.420  16.153  0.00  0.00    +0.000 NA
ATOM      3  C   UNL     1       5.581   6.629  16.621  0.00  0.00    +0.000 A 
ATOM      4  N   UNL     1       4.573   6.934  17.449  0.00  0.00    +0.000 NA
ATOM      5  C   UNL     1       3.871   5.846  17.820  0.00  0.00    +0.000 A 
ATOM      6  S   UNL     1       2.521   5.972  18.884  0.00  0.00    +0.000 S 
ATOM      7  C   UNL     1       2.280   4.319  18.805  0.00  0.00    +0.000 A 
ATOM      8  C   UNL     1       3.178   3.662  18.008  0.00  0.00    +0.000 A 
ATOM      9  C   UNL     1       4.121   4.536  17.419  0.00  0.00    +0.000 A 
ATOM     10  C   UNL     1       2.907   2.204  17.982  0.00  0.00    +0.000 C 
ATOM     11  C   UNL     1       1.474   2.130  18.596  0.00  0.00    +0.000 C 
ATOM     12  C   UNL     1       1.275   3.432  19.434  0.00  0.00    +0.000 C 
ENDROOT
BRANCH   1  13
ATOM     13  O   UNL     1       5.589   3.171  16.067  0.00  0.00    +0.000 OA
ATOM     14  H   UNL     1       6.049   3.450  15.254  0.00  0.00    +0.000 HD
ENDBRANCH   1  13
TORSDOF 1
ENDMDL
MODEL 9
REMARK VINA RESULT:      -5.7      2.618      3.158
REMARK  Name = 
REMARK  1 active torsions:
REMARK  status: ('A' for Active; 'I' for Inactive)
REMARK    1  A    between atoms: O_1  and  C_2
REMARK                            x       y       z     vdW  Elec       q    Type
REMARK                         _______ _______ _______ _____ _____    ______ ____
ROOT
ATOM      1  C   UNL     1       2.972   4.775  19.399  0.00  0.00    +0.000 A 
ATOM      2  N   UNL     1       1.714   4.399  19.148  0.00  0.00    +0.000 NA
ATOM      3  C   UNL     1       1.492   3.809  17.959  0.00  0.00    +0.000 A 
ATOM      4  N   UNL     1       2.375   3.547  16.985  0.00  0.00    +0.000 NA
ATOM      5  C   UNL     1       3.620   3.951  17.302  0.00  0.00    +0.000 A 
ATOM      6  S   UNL     1       4.937   3.727  16.214  0.00  0.00    +0.000 S 
ATOM      7  C   UNL     1       5.983   4.446  17.304  0.00  0.00    +0.000 A 
ATOM      8  C   UNL     1       5.386   4.852  18.466  0.00  0.00    +0.000 A 
ATOM      9  C   UNL     1       4.000   4.573  18.490  0.00  0.00    +0.000 A 
ATOM     10  C   UNL     1       6.368   5.479  19.384  0.00  0.00    +0.000 C 
ATOM     11  C   UNL     1       7.585   5.724  18.439  0.00  0.00    +0.000 C 
ATOM     12  C   UNL     1       7.436   4.728  17.245  0.00  0.00    +0.000 C 
ENDROOT
BRANCH   1  13
ATOM     13  O   UNL     1       3.162   5.370  20.613  0.00  0.00    +0.000 OA
ATOM     14  H   UNL     1       2.638   6.184  20.495  0.00  0.00    +0.000 HD
ENDBRANCH   1  13
TORSDOF 1
ENDMDL
