MODEL 1
REMARK VINA RESULT:      -8.4      0.000      0.000
REMARK  Name = 
REMARK  5 active torsions:
REMARK  status: ('A' for Active; 'I' for Inactive)
REMARK    1  A    between atoms: C_2  and  O_3
REMARK    2  A    between atoms: C_2  and  C_4
REMARK    3  A    between atoms: C_4  and  C_5
REMARK    4  A    between atoms: N_7  and  C_8
REMARK    5  A    between atoms: C_15  and  C_16
REMARK                            x       y       z     vdW  Elec       q    Type
REMARK                         _______ _______ _______ _____ _____    ______ ____
ROOT
ATOM      1  C   UNL     1       6.271   4.492  17.715  0.00  0.00    +0.000 A 
ATOM      2  C   UNL     1       5.302   4.325  18.684  0.00  0.00    +0.000 A 
ATOM      3  N   UNL     1       4.132   3.962  18.061  0.00  0.00    +0.000 N 
ATOM      4  N   UNL     1       4.312   3.848  16.726  0.00  0.00    +0.000 NA
ATOM      5  C   UNL     1       5.580   4.223  16.484  0.00  0.00    +0.000 A 
ENDROOT
BRANCH   3   6
ATOM      6  C   UNL     1       2.872   3.702  18.675  0.00  0.00    +0.000 A 
ATOM      7  C   UNL     1       2.427   4.473  19.762  0.00  0.00    +0.000 A 
ATOM      8  C   UNL     1       1.193   4.205  20.360  0.00  0.00    +0.000 A 
ATOM      9  C   UNL     1       0.395   3.169  19.883  0.00  0.00    +0.000 A 
ATOM     10  C   UNL     1       0.827   2.402  18.801  0.00  0.00    +0.000 A 
ATOM     11  C   UNL     1       2.058   2.666  18.195  0.00  0.00    +0.000 A 
ENDBRANCH   3   6
BRANCH   5  12
ATOM     12  C   UNL     1       6.088   4.284  15.102  0.00  0.00    +0.000 A 
ATOM     13  C   UNL     1       7.179   5.096  14.754  0.00  0.00    +0.000 A 
ATOM     14  C   UNL     1       7.674   5.127  13.447  0.00  0.00    +0.000 A 
ATOM     15  C   UNL     1       7.064   4.371  12.455  0.00  0.00    +0.000 A 
ATOM     16  C   UNL     1       5.956   3.587  12.771  0.00  0.00    +0.000 A 
ATOM     17  C   UNL     1       5.474   3.541  14.084  0.00  0.00    +0.000 A 
ENDBRANCH   5  12
BRANCH   1  18
ATOM     18  C   UNL     1       7.707   4.867  17.909  0.00  0.00    +0.000 C 
BRANCH  18  20
ATOM     19  O   UNL     1       8.150   7.126  18.638  0.00  0.00    +0.000 OA
ATOM     20  C   UNL     1       7.964   5.953  18.929  0.00  0.00    +0.000 C 
BRANCH  20  21
ATOM     21  O   UNL     1       8.014   5.518  20.210  0.00  0.00    +0.000 OA
ATOM     22  H   UNL     1       8.703   4.840  20.361  0.00  0.00    +0.000 HD
ENDBRANCH  20  21
ENDBRANCH  18  20
ENDBRANCH   1  18
TORSDOF 5
ENDMDL
MODEL 2
REMARK VINA RESULT:      -8.4      0.068      1.054
REMARK  Name = 
REMARK  5 active torsions:
REMARK  status: ('A' for Active; 'I' for Inactive)
REMARK    1  A    between atoms: C_2  and  O_3
REMARK    2  A    between atoms: C_2  and  C_4
REMARK    3  A    between atoms: C_4  and  C_5
REMARK    4  A    between atoms: N_7  and  C_8
REMARK    5  A    between atoms: C_15  and  C_16
REMARK                            x       y       z     vdW  Elec       q    Type
REMARK                         _______ _______ _______ _____ _____    ______ ____
ROOT
ATOM      1  C   UNL     1       6.280   4.491  17.735  0.00  0.00    +0.000 A 
ATOM      2  C   UNL     1       5.316   4.315  18.707  0.00  0.00    +0.000 A 
ATOM      3  N   UNL     1       4.148   3.937  18.088  0.00  0.00    +0.000 N 
ATOM      4  N   UNL     1       4.326   3.821  16.753  0.00  0.00    +0.000 NA
ATOM      5  C   UNL     1       5.589   4.212  16.507  0.00  0.00    +0.000 A 
ENDROOT
BRANCH   3   6
ATOM      6  C   UNL     1       2.894   3.663  18.707  0.00  0.00    +0.000 A 
ATOM      7  C   UNL     1       2.017   2.707  18.169  0.00  0.00    +0.000 A 
ATOM      8  C   UNL     1       0.788   2.451  18.782  0.00  0.00    +0.000 A 
ATOM      9  C   UNL     1       0.422   3.145  19.932  0.00  0.00    +0.000 A 
ATOM     10  C   UNL     1       1.288   4.092  20.476  0.00  0.00    +0.000 A 
ATOM     11  C   UNL     1       2.521   4.351  19.871  0.00  0.00    +0.000 A 
ENDBRANCH   3   6
BRANCH   5  12
ATOM     12  C   UNL     1       6.092   4.275  15.123  0.00  0.00    +0.000 A 
ATOM     13  C   UNL     1       7.185   5.084  14.773  0.00  0.00    +0.000 A 
ATOM     14  C   UNL     1       7.675   5.118  13.465  0.00  0.00    +0.000 A 
ATOM     15  C   UNL     1       7.058   4.368  12.473  0.00  0.00    +0.000 A 
ATOM     16  C   UNL     1       5.949   3.587  12.790  0.00  0.00    +0.000 A 
ATOM     17  C   UNL     1       5.471   3.538  14.104  0.00  0.00    +0.000 A 
ENDBRANCH   5  12
BRANCH   1  18
ATOM     18  C   UNL     1       7.713   4.883  17.924  0.00  0.00    +0.000 C 
BRANCH  18  20
ATOM     19  O   UNL     1       8.157   7.137  18.666  0.00  0.00    +0.000 OA
ATOM     20  C   UNL     1       7.961   5.964  18.951  0.00  0.00    +0.000 C 
BRANCH  20  21
ATOM     21  O   UNL     1       7.991   5.525  20.230  0.00  0.00    +0.000 OA
ATOM     22  H   UNL     1       7.743   4.582  20.322  0.00  0.00    +0.000 HD
ENDBRANCH  20  21
ENDBRANCH  18  20
ENDBRANCH   1  18
TORSDOF 5
ENDMDL
MODEL 3
REMARK VINA RESULT:      -8.3      0.625      1.290
REMARK  Name = 
REMARK  5 active torsions:
REMARK  status: ('A' for Active; 'I' for Inactive)
REMARK    1  A    between atoms: C_2  and  O_3
REMARK    2  A    between atoms: C_2  and  C_4
REMARK    3  A    between atoms: C_4  and  C_5
REMARK    4  A    between atoms: N_7  and  C_8
REMARK    5  A    between atoms: C_15  and  C_16
REMARK                            x       y       z     vdW  Elec       q    Type
REMARK                         _______ _______ _______ _____ _____    ______ ____
ROOT
ATOM      1  C   UNL     1       6.216   4.842  17.543  0.00  0.00    +0.000 A 
ATOM      2  C   UNL     1       5.271   4.674  18.535  0.00  0.00    +0.000 A 
ATOM      3  N   UNL     1       4.149   4.118  17.968  0.00  0.00    +0.000 N 
ATOM      4  N   UNL     1       4.342   3.880  16.652  0.00  0.00    +0.000 NA
ATOM      5  C   UNL     1       5.560   4.367  16.357  0.00  0.00    +0.000 A 
ENDROOT
BRANCH   3   6
ATOM      6  C   UNL     1       2.927   3.787  18.622  0.00  0.00    +0.000 A 
ATOM      7  C   UNL     1       2.514   4.478  19.773  0.00  0.00    +0.000 A 
ATOM      8  C   UNL     1       1.316   4.142  20.409  0.00  0.00    +0.000 A 
ATOM      9  C   UNL     1       0.522   3.116  19.904  0.00  0.00    +0.000 A 
ATOM     10  C   UNL     1       0.920   2.428  18.759  0.00  0.00    +0.000 A 
ATOM     11  C   UNL     1       2.116   2.761  18.116  0.00  0.00    +0.000 A 
ENDBRANCH   3   6
BRANCH   5  12
ATOM     12  C   UNL     1       6.060   4.333  14.970  0.00  0.00    +0.000 A 
ATOM     13  C   UNL     1       5.441   3.549  13.984  0.00  0.00    +0.000 A 
ATOM     14  C   UNL     1       5.902   3.544  12.664  0.00  0.00    +0.000 A 
ATOM     15  C   UNL     1       7.014   4.297  12.315  0.00  0.00    +0.000 A 
ATOM     16  C   UNL     1       7.666   5.053  13.286  0.00  0.00    +0.000 A 
ATOM     17  C   UNL     1       7.192   5.073  14.602  0.00  0.00    +0.000 A 
ENDBRANCH   5  12
BRANCH   1  18
ATOM     18  C   UNL     1       7.602   5.393  17.679  0.00  0.00    +0.000 C 
BRANCH  18  20
ATOM     19  O   UNL     1       7.175   7.690  17.073  0.00  0.00    +0.000 OA
ATOM     20  C   UNL     1       7.692   6.893  17.842  0.00  0.00    +0.000 C 
BRANCH  20  21
ATOM     21  O   UNL     1       8.435   7.298  18.898  0.00  0.00    +0.000 OA
ATOM     22  H   UNL     1       8.834   8.182  18.775  0.00  0.00    +0.000 HD
ENDBRANCH  20  21
ENDBRANCH  18  20
ENDBRANCH   1  18
TORSDOF 5
ENDMDL
MODEL 4
REMARK VINA RESULT:      -8.3      0.643      1.666
REMARK  Name = 
REMARK  5 active torsions:
REMARK  status: ('A' for Active; 'I' for Inactive)
REMARK    1  A    between atoms: C_2  and  O_3
REMARK    2  A    between atoms: C_2  and  C_4
REMARK    3  A    between atoms: C_4  and  C_5
REMARK    4  A    between atoms: N_7  and  C_8
REMARK    5  A    between atoms: C_15  and  C_16
REMARK                            x       y       z     vdW  Elec       q    Type
REMARK                         _______ _______ _______ _____ _____    ______ ____
ROOT
ATOM      1  C   UNL     1       6.241   4.840  17.586  0.00  0.00    +0.000 A 
ATOM      2  C   UNL     1       5.307   4.657  18.586  0.00  0.00    +0.000 A 
ATOM      3  N   UNL     1       4.192   4.076  18.030  0.00  0.00    +0.000 N 
ATOM      4  N   UNL     1       4.380   3.838  16.713  0.00  0.00    +0.000 NA
ATOM      5  C   UNL     1       5.586   4.348  16.406  0.00  0.00    +0.000 A 
ENDROOT
BRANCH   3   6
ATOM      6  C   UNL     1       2.982   3.722  18.694  0.00  0.00    +0.000 A 
ATOM      7  C   UNL     1       2.062   2.845  18.098  0.00  0.00    +0.000 A 
ATOM      8  C   UNL     1       0.875   2.510  18.756  0.00  0.00    +0.000 A 
ATOM      9  C   UNL     1       0.597   3.046  20.010  0.00  0.00    +0.000 A 
ATOM     10  C   UNL     1       1.507   3.914  20.612  0.00  0.00    +0.000 A 
ATOM     11  C   UNL     1       2.697   4.251  19.962  0.00  0.00    +0.000 A 
ENDBRANCH   3   6
BRANCH   5  12
ATOM     12  C   UNL     1       6.075   4.320  15.016  0.00  0.00    +0.000 A 
ATOM     13  C   UNL     1       5.446   3.544  14.030  0.00  0.00    +0.000 A 
ATOM     14  C   UNL     1       5.898   3.544  12.708  0.00  0.00    +0.000 A 
ATOM     15  C   UNL     1       7.010   4.295  12.354  0.00  0.00    +0.000 A 
ATOM     16  C   UNL     1       7.672   5.044  13.325  0.00  0.00    +0.000 A 
ATOM     17  C   UNL     1       7.207   5.059  14.644  0.00  0.00    +0.000 A 
ENDBRANCH   5  12
BRANCH   1  18
ATOM     18  C   UNL     1       7.616   5.420  17.710  0.00  0.00    +0.000 C 
BRANCH  18  20
ATOM     19  O   UNL     1       7.119   7.702  17.098  0.00  0.00    +0.000 OA
ATOM     20  C   UNL     1       7.678   6.923  17.857  0.00  0.00    +0.000 C 
BRANCH  20  21
ATOM     21  O   UNL     1       8.443   7.354  18.886  0.00  0.00    +0.000 OA
ATOM     22  H   UNL     1       7.928   7.551  19.695  0.00  0.00    +0.000 HD
ENDBRANCH  20  21
ENDBRANCH  18  20
ENDBRANCH   1  18
TORSDOF 5
ENDMDL
MODEL 5
REMARK VINA RESULT:      -8.2      0.940      6.018
REMARK  Name = 
REMARK  5 active torsions:
REMARK  status: ('A' for Active; 'I' for Inactive)
REMARK    1  A    between atoms: C_2  and  O_3
REMARK    2  A    between atoms: C_2  and  C_4
REMARK    3  A    between atoms: C_4  and  C_5
REMARK    4  A    between atoms: N_7  and  C_8
REMARK    5  A    between atoms: C_15  and  C_16
REMARK                            x       y       z     vdW  Elec       q    Type
REMARK                         _______ _______ _______ _____ _____    ______ ____
ROOT
ATOM      1  C   UNL     1       5.815   4.814  17.949  0.00  0.00    +0.000 A 
ATOM      2  C   UNL     1       6.606   4.928  16.824  0.00  0.00    +0.000 A 
ATOM      3  N   UNL     1       5.891   4.457  15.749  0.00  0.00    +0.000 N 
ATOM      4  N   UNL     1       4.650   4.076  16.125  0.00  0.00    +0.000 NA
ATOM      5  C   UNL     1       4.600   4.223  17.461  0.00  0.00    +0.000 A 
ENDROOT
BRANCH   3   6
ATOM      6  C   UNL     1       6.326   4.375  14.394  0.00  0.00    +0.000 A 
ATOM      7  C   UNL     1       5.705   3.498  13.489  0.00  0.00    +0.000 A 
ATOM      8  C   UNL     1       6.143   3.422  12.164  0.00  0.00    +0.000 A 
ATOM      9  C   UNL     1       7.201   4.217  11.732  0.00  0.00    +0.000 A 
ATOM     10  C   UNL     1       7.819   5.095  12.621  0.00  0.00    +0.000 A 
ATOM     11  C   UNL     1       7.385   5.178  13.947  0.00  0.00    +0.000 A 
ENDBRANCH   3   6
BRANCH   5  12
ATOM     12  C   UNL     1       3.395   3.824  18.209  0.00  0.00    +0.000 A 
ATOM     13  C   UNL     1       2.662   4.748  18.970  0.00  0.00    +0.000 A 
ATOM     14  C   UNL     1       1.504   4.370  19.655  0.00  0.00    +0.000 A 
ATOM     15  C   UNL     1       1.077   3.049  19.620  0.00  0.00    +0.000 A 
ATOM     16  C   UNL     1       1.810   2.108  18.901  0.00  0.00    +0.000 A 
ATOM     17  C   UNL     1       2.959   2.492  18.200  0.00  0.00    +0.000 A 
ENDBRANCH   5  12
BRANCH   1  18
ATOM     18  C   UNL     1       6.153   5.214  19.352  0.00  0.00    +0.000 C 
BRANCH  18  20
ATOM     19  O   UNL     1       8.053   6.602  18.814  0.00  0.00    +0.000 OA
ATOM     20  C   UNL     1       7.543   5.773  19.553  0.00  0.00    +0.000 C 
BRANCH  20  21
ATOM     21  O   UNL     1       8.209   5.249  20.608  0.00  0.00    +0.000 OA
ATOM     22  H   UNL     1       9.180   5.237  20.486  0.00  0.00    +0.000 HD
ENDBRANCH  20  21
ENDBRANCH  18  20
ENDBRANCH   1  18
TORSDOF 5
ENDMDL
MODEL 6
REMARK VINA RESULT:      -8.2      0.913      5.940
REMARK  Name = 
REMARK  5 active torsions:
REMARK  status: ('A' for Active; 'I' for Inactive)
REMARK    1  A    between atoms: C_2  and  O_3
REMARK    2  A    between atoms: C_2  and  C_4
REMARK    3  A    between atoms: C_4  and  C_5
REMARK    4  A    between atoms: N_7  and  C_8
REMARK    5  A    between atoms: C_15  and  C_16
REMARK                            x       y       z     vdW  Elec       q    Type
REMARK                         _______ _______ _______ _____ _____    ______ ____
ROOT
ATOM      1  C   UNL     1       5.779   4.870  17.941  0.00  0.00    +0.000 A 
ATOM      2  C   UNL     1       6.564   4.962  16.810  0.00  0.00    +0.000 A 
ATOM      3  N   UNL     1       5.843   4.473  15.747  0.00  0.00    +0.000 N 
ATOM      4  N   UNL     1       4.603   4.102  16.137  0.00  0.00    +0.000 NA
ATOM      5  C   UNL     1       4.560   4.274  17.469  0.00  0.00    +0.000 A 
ENDROOT
BRANCH   3   6
ATOM      6  C   UNL     1       6.270   4.365  14.391  0.00  0.00    +0.000 A 
ATOM      7  C   UNL     1       7.369   5.103  13.921  0.00  0.00    +0.000 A 
ATOM      8  C   UNL     1       7.775   4.993  12.588  0.00  0.00    +0.000 A 
ATOM      9  C   UNL     1       7.091   4.151  11.716  0.00  0.00    +0.000 A 
ATOM     10  C   UNL     1       6.003   3.411  12.176  0.00  0.00    +0.000 A 
ATOM     11  C   UNL     1       5.592   3.513  13.508  0.00  0.00    +0.000 A 
ENDBRANCH   3   6
BRANCH   5  12
ATOM     12  C   UNL     1       3.358   3.892  18.231  0.00  0.00    +0.000 A 
ATOM     13  C   UNL     1       2.736   4.782  19.119  0.00  0.00    +0.000 A 
ATOM     14  C   UNL     1       1.579   4.424  19.818  0.00  0.00    +0.000 A 
ATOM     15  C   UNL     1       1.043   3.152  19.667  0.00  0.00    +0.000 A 
ATOM     16  C   UNL     1       1.667   2.239  18.819  0.00  0.00    +0.000 A 
ATOM     17  C   UNL     1       2.813   2.606  18.105  0.00  0.00    +0.000 A 
ENDBRANCH   5  12
BRANCH   1  18
ATOM     18  C   UNL     1       6.125   5.295  19.335  0.00  0.00    +0.000 C 
BRANCH  18  20
ATOM     19  O   UNL     1       8.080   6.614  18.818  0.00  0.00    +0.000 OA
ATOM     20  C   UNL     1       7.542   5.782  19.534  0.00  0.00    +0.000 C 
BRANCH  20  21
ATOM     21  O   UNL     1       8.198   5.191  20.560  0.00  0.00    +0.000 OA
ATOM     22  H   UNL     1       7.914   5.515  21.438  0.00  0.00    +0.000 HD
ENDBRANCH  20  21
ENDBRANCH  18  20
ENDBRANCH   1  18
TORSDOF 5
ENDMDL
MODEL 7
REMARK VINA RESULT:      -8.2      0.970      6.062
REMARK  Name = 
REMARK  5 active torsions:
REMARK  status: ('A' for Active; 'I' for Inactive)
REMARK    1  A    between atoms: C_2  and  O_3
REMARK    2  A    between atoms: C_2  and  C_4
REMARK    3  A    between atoms: C_4  and  C_5
REMARK    4  A    between atoms: N_7  and  C_8
REMARK    5  A    between atoms: C_15  and  C_16
REMARK                            x       y       z     vdW  Elec       q    Type
REMARK                         _______ _______ _______ _____ _____    ______ ____
ROOT
ATOM      1  C   UNL     1       5.918   4.875  17.932  0.00  0.00    +0.000 A 
ATOM      2  C   UNL     1       6.662   4.964  16.773  0.00  0.00    +0.000 A 
ATOM      3  N   UNL     1       5.911   4.455  15.740  0.00  0.00    +0.000 N 
ATOM      4  N   UNL     1       4.690   4.073  16.177  0.00  0.00    +0.000 NA
ATOM      5  C   UNL     1       4.691   4.258  17.508  0.00  0.00    +0.000 A 
ENDROOT
BRANCH   3   6
ATOM      6  C   UNL     1       6.293   4.338  14.372  0.00  0.00    +0.000 A 
ATOM      7  C   UNL     1       5.604   3.477  13.502  0.00  0.00    +0.000 A 
ATOM      8  C   UNL     1       5.991   3.366  12.164  0.00  0.00    +0.000 A 
ATOM      9  C   UNL     1       7.064   4.110  11.684  0.00  0.00    +0.000 A 
ATOM     10  C   UNL     1       7.750   4.972  12.538  0.00  0.00    +0.000 A 
ATOM     11  C   UNL     1       7.368   5.090  13.877  0.00  0.00    +0.000 A 
ENDBRANCH   3   6
BRANCH   5  12
ATOM     12  C   UNL     1       3.521   3.870  18.315  0.00  0.00    +0.000 A 
ATOM     13  C   UNL     1       3.142   2.527  18.463  0.00  0.00    +0.000 A 
ATOM     14  C   UNL     1       2.047   2.162  19.253  0.00  0.00    +0.000 A 
ATOM     15  C   UNL     1       1.290   3.141  19.882  0.00  0.00    +0.000 A 
ATOM     16  C   UNL     1       1.626   4.483  19.719  0.00  0.00    +0.000 A 
ATOM     17  C   UNL     1       2.733   4.845  18.944  0.00  0.00    +0.000 A 
ENDBRANCH   5  12
BRANCH   1  18
ATOM     18  C   UNL     1       6.306   5.319  19.308  0.00  0.00    +0.000 C 
BRANCH  18  20
ATOM     19  O   UNL     1       8.143   6.802  18.805  0.00  0.00    +0.000 OA
ATOM     20  C   UNL     1       7.713   5.855  19.447  0.00  0.00    +0.000 C 
BRANCH  20  21
ATOM     21  O   UNL     1       8.488   5.173  20.321  0.00  0.00    +0.000 OA
ATOM     22  H   UNL     1       8.568   5.613  21.192  0.00  0.00    +0.000 HD
ENDBRANCH  20  21
ENDBRANCH  18  20
ENDBRANCH   1  18
TORSDOF 5
ENDMDL
MODEL 8
REMARK VINA RESULT:      -8.2      0.972      5.996
REMARK  Name = 
REMARK  5 active torsions:
REMARK  status: ('A' for Active; 'I' for Inactive)
REMARK    1  A    between atoms: C_2  and  O_3
REMARK    2  A    between atoms: C_2  and  C_4
REMARK    3  A    between atoms: C_4  and  C_5
REMARK    4  A    between atoms: N_7  and  C_8
REMARK    5  A    between atoms: C_15  and  C_16
REMARK                            x       y       z     vdW  Elec       q    Type
REMARK                         _______ _______ _______ _____ _____    ______ ____
ROOT
ATOM      1  C   UNL     1       5.907   4.843  17.923  0.00  0.00    +0.000 A 
ATOM      2  C   UNL     1       6.661   4.943  16.772  0.00  0.00    +0.000 A 
ATOM      3  N   UNL     1       5.918   4.444  15.728  0.00  0.00    +0.000 N 
ATOM      4  N   UNL     1       4.693   4.059  16.151  0.00  0.00    +0.000 NA
ATOM      5  C   UNL     1       4.684   4.231  17.484  0.00  0.00    +0.000 A 
ENDROOT
BRANCH   3   6
ATOM      6  C   UNL     1       6.310   4.339  14.362  0.00  0.00    +0.000 A 
ATOM      7  C   UNL     1       7.383   5.094  13.860  0.00  0.00    +0.000 A 
ATOM      8  C   UNL     1       7.756   4.987  12.518  0.00  0.00    +0.000 A 
ATOM      9  C   UNL     1       7.063   4.131  11.667  0.00  0.00    +0.000 A 
ATOM     10  C   UNL     1       6.000   3.374  12.157  0.00  0.00    +0.000 A 
ATOM     11  C   UNL     1       5.624   3.473  13.500  0.00  0.00    +0.000 A 
ENDBRANCH   3   6
BRANCH   5  12
ATOM     12  C   UNL     1       3.507   3.836  18.278  0.00  0.00    +0.000 A 
ATOM     13  C   UNL     1       3.134   2.491  18.423  0.00  0.00    +0.000 A 
ATOM     14  C   UNL     1       2.033   2.120  19.200  0.00  0.00    +0.000 A 
ATOM     15  C   UNL     1       1.262   3.094  19.820  0.00  0.00    +0.000 A 
ATOM     16  C   UNL     1       1.592   4.438  19.660  0.00  0.00    +0.000 A 
ATOM     17  C   UNL     1       2.706   4.807  18.897  0.00  0.00    +0.000 A 
ENDBRANCH   5  12
BRANCH   1  18
ATOM     18  C   UNL     1       6.285   5.273  19.307  0.00  0.00    +0.000 C 
BRANCH  18  20
ATOM     19  O   UNL     1       8.104   6.775  18.793  0.00  0.00    +0.000 OA
ATOM     20  C   UNL     1       7.679   5.840  19.455  0.00  0.00    +0.000 C 
BRANCH  20  21
ATOM     21  O   UNL     1       8.449   5.199  20.364  0.00  0.00    +0.000 OA
ATOM     22  H   UNL     1       7.931   4.710  21.035  0.00  0.00    +0.000 HD
ENDBRANCH  20  21
ENDBRANCH  18  20
ENDBRANCH   1  18
TORSDOF 5
ENDMDL
MODEL 9
REMARK VINA RESULT:      -7.7      4.067      5.698
REMARK  Name = 
REMARK  5 active torsions:
REMARK  status: ('A' for Active; 'I' for Inactive)
REMARK    1  A    between atoms: C_2  and  O_3
REMARK    2  A    between atoms: C_2  and  C_4
REMARK    3  A    between atoms: C_4  and  C_5
REMARK    4  A    between atoms: N_7  and  C_8
REMARK    5  A    between atoms: C_15  and  C_16
REMARK                            x       y       z     vdW  Elec       q    Type
REMARK                         _______ _______ _______ _____ _____    ______ ____
ROOT
ATOM      1  C   UNL     1       2.688   4.948  20.063  0.00  0.00    +0.000 A 
ATOM      2  C   UNL     1       1.832   5.879  20.615  0.00  0.00    +0.000 A 
ATOM      3  N   UNL     1       2.099   7.100  20.041  0.00  0.00    +0.000 N 
ATOM      4  N   UNL     1       3.072   6.991  19.109  0.00  0.00    +0.000 NA
ATOM      5  C   UNL     1       3.488   5.713  19.147  0.00  0.00    +0.000 A 
ENDROOT
BRANCH   3   6
ATOM      6  C   UNL     1       1.463   8.343  20.324  0.00  0.00    +0.000 A 
ATOM      7  C   UNL     1       1.061   8.668  21.630  0.00  0.00    +0.000 A 
ATOM      8  C   UNL     1       0.433   9.888  21.894  0.00  0.00    +0.000 A 
ATOM      9  C   UNL     1       0.200  10.791  20.862  0.00  0.00    +0.000 A 
ATOM     10  C   UNL     1       0.600  10.480  19.563  0.00  0.00    +0.000 A 
ATOM     11  C   UNL     1       1.231   9.263  19.291  0.00  0.00    +0.000 A 
ENDBRANCH   3   6
BRANCH   5  12
ATOM     12  C   UNL     1       4.605   5.268  18.295  0.00  0.00    +0.000 A 
ATOM     13  C   UNL     1       4.390   4.782  16.995  0.00  0.00    +0.000 A 
ATOM     14  C   UNL     1       5.456   4.388  16.181  0.00  0.00    +0.000 A 
ATOM     15  C   UNL     1       6.756   4.440  16.666  0.00  0.00    +0.000 A 
ATOM     16  C   UNL     1       6.988   4.884  17.966  0.00  0.00    +0.000 A 
ATOM     17  C   UNL     1       5.922   5.297  18.773  0.00  0.00    +0.000 A 
ENDBRANCH   5  12
BRANCH   1  18
ATOM     18  C   UNL     1       2.762   3.482  20.358  0.00  0.00    +0.000 C 
BRANCH  18  20
ATOM     19  O   UNL     1       1.563   2.487  22.202  0.00  0.00    +0.000 OA
ATOM     20  C   UNL     1       1.553   2.895  21.050  0.00  0.00    +0.000 C 
BRANCH  20  21
ATOM     21  O   UNL     1       0.447   2.817  20.273  0.00  0.00    +0.000 OA
ATOM     22  H   UNL     1       0.647   2.646  19.331  0.00  0.00    +0.000 HD
ENDBRANCH  20  21
ENDBRANCH  18  20
ENDBRANCH   1  18
TORSDOF 5
ENDMDL
