MODEL 1
REMARK VINA RESULT:      -6.9      0.000      0.000
REMARK  Name = 
REMARK  8 active torsions:
REMARK  status: ('A' for Active; 'I' for Inactive)
REMARK    1  A    between atoms: C_1  and  O_2
REMARK    2  A    between atoms: O_2  and  C_3
REMARK    3  A    between atoms: C_6  and  C_7
REMARK    4  A    between atoms: N_8  and  O_9
REMARK    5  A    between atoms: O_9  and  C_10
REMARK    6  A    between atoms: N_12  and  C_13
REMARK    7  A    between atoms: C_18  and  O_19
REMARK    8  A    between atoms: O_19  and  C_20
REMARK                            x       y       z     vdW  Elec       q    Type
REMARK                         _______ _______ _______ _____ _____    ______ ____
ROOT
ATOM      1  C   UNL     1       6.262   6.517  17.107  0.00  0.00    +0.000 C 
ATOM      2  O   UNL     1       5.820   6.901  16.027  0.00  0.00    +0.000 OA
ATOM      3  N   UNL     1       5.577   5.768  18.038  0.00  0.00    +0.000 N 
ATOM      4  H   UNL     1       6.020   5.774  18.948  0.00  0.00    +0.000 HD
ENDROOT
BRANCH   3   5
ATOM      5  C   UNL     1       4.288   5.245  17.874  0.00  0.00    +0.000 A 
ATOM      6  C   UNL     1       4.153   3.918  17.443  0.00  0.00    +0.000 A 
ATOM      7  C   UNL     1       2.897   3.321  17.356  0.00  0.00    +0.000 A 
ATOM      8  C   UNL     1       1.759   4.057  17.665  0.00  0.00    +0.000 A 
ATOM      9  C   UNL     1       1.885   5.377  18.100  0.00  0.00    +0.000 A 
ATOM     10  C   UNL     1       3.145   5.980  18.220  0.00  0.00    +0.000 A 
BRANCH  10  11
ATOM     11  O   UNL     1       3.108   7.260  18.708  0.00  0.00    +0.000 OA
ATOM     12  C   UNL     1       2.480   8.240  17.887  0.00  0.00    +0.000 C 
ENDBRANCH  10  11
ENDBRANCH   3   5
BRANCH   1  13
ATOM     13  O   UNL     1       7.525   6.897  17.530  0.00  0.00    +0.000 OA
BRANCH  13  15
ATOM     14  C   UNL     1       8.564   8.677  18.330  0.00  0.00    +0.000 C 
ATOM     15  N   UNL     1       7.660   8.301  17.485  0.00  0.00    +0.000 NA
BRANCH  14  19
ATOM     16  C   UNL     1       9.309  12.829  18.931  0.00  0.00    +0.000 A 
ATOM     17  C   UNL     1       9.825  11.889  19.823  0.00  0.00    +0.000 A 
ATOM     18  C   UNL     1       9.595  10.531  19.622  0.00  0.00    +0.000 A 
ATOM     19  C   UNL     1       8.824  10.110  18.535  0.00  0.00    +0.000 A 
ATOM     20  C   UNL     1       8.304  11.040  17.637  0.00  0.00    +0.000 A 
ATOM     21  C   UNL     1       8.546  12.404  17.840  0.00  0.00    +0.000 A 
BRANCH  16  23
ATOM     22  C   UNL     1      10.942  14.525  19.155  0.00  0.00    +0.000 C 
ATOM     23  O   UNL     1       9.581  14.128  19.255  0.00  0.00    +0.000 OA
ENDBRANCH  16  23
ENDBRANCH  14  19
ENDBRANCH  13  15
ENDBRANCH   1  13
TORSDOF 6
ENDMDL
MODEL 2
REMARK VINA RESULT:      -6.9      0.965      1.125
REMARK  Name = 
REMARK  8 active torsions:
REMARK  status: ('A' for Active; 'I' for Inactive)
REMARK    1  A    between atoms: C_1  and  O_2
REMARK    2  A    between atoms: O_2  and  C_3
REMARK    3  A    between atoms: C_6  and  C_7
REMARK    4  A    between atoms: N_8  and  O_9
REMARK    5  A    between atoms: O_9  and  C_10
REMARK    6  A    between atoms: N_12  and  C_13
REMARK    7  A    between atoms: C_18  and  O_19
REMARK    8  A    between atoms: O_19  and  C_20
REMARK                            x       y       z     vdW  Elec       q    Type
REMARK                         _______ _______ _______ _____ _____    ______ ____
ROOT
ATOM      1  C   UNL     1       6.740   6.574  17.611  0.00  0.00    +0.000 C 
ATOM      2  O   UNL     1       6.970   5.929  18.631  0.00  0.00    +0.000 OA
ATOM      3  N   UNL     1       5.597   6.493  16.848  0.00  0.00    +0.000 N 
ATOM      4  H   UNL     1       5.707   6.907  15.931  0.00  0.00    +0.000 HD
ENDROOT
BRANCH   3   5
ATOM      5  C   UNL     1       4.467   5.724  17.152  0.00  0.00    +0.000 A 
ATOM      6  C   UNL     1       4.459   4.370  16.789  0.00  0.00    +0.000 A 
ATOM      7  C   UNL     1       3.400   3.540  17.152  0.00  0.00    +0.000 A 
ATOM      8  C   UNL     1       2.320   4.064  17.852  0.00  0.00    +0.000 A 
ATOM      9  C   UNL     1       2.322   5.410  18.223  0.00  0.00    +0.000 A 
ATOM     10  C   UNL     1       3.394   6.248  17.889  0.00  0.00    +0.000 A 
BRANCH  10  11
ATOM     11  O   UNL     1       3.273   7.527  18.366  0.00  0.00    +0.000 OA
ATOM     12  C   UNL     1       2.260   8.337  17.779  0.00  0.00    +0.000 C 
ENDBRANCH  10  11
ENDBRANCH   3   5
BRANCH   1  13
ATOM     13  O   UNL     1       7.698   7.418  17.076  0.00  0.00    +0.000 OA
BRANCH  13  15
ATOM     14  C   UNL     1       8.253   9.489  17.618  0.00  0.00    +0.000 C 
ATOM     15  N   UNL     1       8.211   8.278  18.070  0.00  0.00    +0.000 NA
BRANCH  14  19
ATOM     16  C   UNL     1       9.937  12.590  20.006  0.00  0.00    +0.000 A 
ATOM     17  C   UNL     1       9.835  11.294  20.511  0.00  0.00    +0.000 A 
ATOM     18  C   UNL     1       9.297  10.276  19.730  0.00  0.00    +0.000 A 
ATOM     19  C   UNL     1       8.838  10.558  18.440  0.00  0.00    +0.000 A 
ATOM     20  C   UNL     1       8.936  11.850  17.924  0.00  0.00    +0.000 A 
ATOM     21  C   UNL     1       9.485  12.868  18.713  0.00  0.00    +0.000 A 
BRANCH  16  23
ATOM     22  C   UNL     1      11.204  14.564  20.307  0.00  0.00    +0.000 C 
ATOM     23  O   UNL     1      10.454  13.502  20.881  0.00  0.00    +0.000 OA
ENDBRANCH  16  23
ENDBRANCH  14  19
ENDBRANCH  13  15
ENDBRANCH   1  13
TORSDOF 6
ENDMDL
MODEL 3
REMARK VINA RESULT:      -6.8      1.076      1.549
REMARK  Name = 
REMARK  8 active torsions:
REMARK  status: ('A' for Active; 'I' for Inactive)
REMARK    1  A    between atoms: C_1  and  O_2
REMARK    2  A    between atoms: O_2  and  C_3
REMARK    3  A    between atoms: C_6  and  C_7
REMARK    4  A    between atoms: N_8  and  O_9
REMARK    5  A    between atoms: O_9  and  C_10
REMARK    6  A    between atoms: N_12  and  C_13
REMARK    7  A    between atoms: C_18  and  O_19
REMARK    8  A    between atoms: O_19  and  C_20
REMARK                            x       y       z     vdW  Elec       q    Type
REMARK                         _______ _______ _______ _____ _____    ______ ____
ROOT
ATOM      1  C   UNL     1       6.803   6.839  17.601  0.00  0.00    +0.000 C 
ATOM      2  O   UNL     1       7.053   6.124  18.568  0.00  0.00    +0.000 OA
ATOM      3  N   UNL     1       5.647   6.806  16.853  0.00  0.00    +0.000 N 
ATOM      4  H   UNL     1       5.740   7.286  15.966  0.00  0.00    +0.000 HD
ENDROOT
BRANCH   3   5
ATOM      5  C   UNL     1       4.526   6.010  17.119  0.00  0.00    +0.000 A 
ATOM      6  C   UNL     1       4.584   4.645  16.804  0.00  0.00    +0.000 A 
ATOM      7  C   UNL     1       3.532   3.792  17.135  0.00  0.00    +0.000 A 
ATOM      8  C   UNL     1       2.397   4.302  17.753  0.00  0.00    +0.000 A 
ATOM      9  C   UNL     1       2.334   5.659  18.075  0.00  0.00    +0.000 A 
ATOM     10  C   UNL     1       3.397   6.521  17.774  0.00  0.00    +0.000 A 
BRANCH  10  11
ATOM     11  O   UNL     1       3.207   7.811  18.198  0.00  0.00    +0.000 OA
ATOM     12  C   UNL     1       1.962   8.417  17.867  0.00  0.00    +0.000 C 
ENDBRANCH  10  11
ENDBRANCH   3   5
BRANCH   1  13
ATOM     13  O   UNL     1       7.748   7.726  17.113  0.00  0.00    +0.000 OA
BRANCH  13  15
ATOM     14  C   UNL     1       8.492   9.739  17.642  0.00  0.00    +0.000 C 
ATOM     15  N   UNL     1       8.200   8.582  18.139  0.00  0.00    +0.000 NA
BRANCH  14  19
ATOM     16  C   UNL     1      10.187  12.755  20.130  0.00  0.00    +0.000 A 
ATOM     17  C   UNL     1       9.785  13.064  18.830  0.00  0.00    +0.000 A 
ATOM     18  C   UNL     1       9.219  12.085  18.019  0.00  0.00    +0.000 A 
ATOM     19  C   UNL     1       9.073  10.781  18.502  0.00  0.00    +0.000 A 
ATOM     20  C   UNL     1       9.472  10.461  19.799  0.00  0.00    +0.000 A 
ATOM     21  C   UNL     1      10.033  11.453  20.612  0.00  0.00    +0.000 A 
BRANCH  16  23
ATOM     22  C   UNL     1      10.762  15.049  20.143  0.00  0.00    +0.000 C 
ATOM     23  O   UNL     1      10.754  13.795  20.811  0.00  0.00    +0.000 OA
ENDBRANCH  16  23
ENDBRANCH  14  19
ENDBRANCH  13  15
ENDBRANCH   1  13
TORSDOF 6
ENDMDL
MODEL 4
REMARK VINA RESULT:      -6.8      5.086      7.495
REMARK  Name = 
REMARK  8 active torsions:
REMARK  status: ('A' for Active; 'I' for Inactive)
REMARK    1  A    between atoms: C_1  and  O_2
REMARK    2  A    between atoms: O_2  and  C_3
REMARK    3  A    between atoms: C_6  and  C_7
REMARK    4  A    between atoms: N_8  and  O_9
REMARK    5  A    between atoms: O_9  and  C_10
REMARK    6  A    between atoms: N_12  and  C_13
REMARK    7  A    between atoms: C_18  and  O_19
REMARK    8  A    between atoms: O_19  and  C_20
REMARK                            x       y       z     vdW  Elec       q    Type
REMARK                         _______ _______ _______ _____ _____    ______ ____
ROOT
ATOM      1  C   UNL     1       6.679   5.242  18.888  0.00  0.00    +0.000 C 
ATOM      2  O   UNL     1       6.987   5.383  20.068  0.00  0.00    +0.000 OA
ATOM      3  N   UNL     1       5.414   4.977  18.413  0.00  0.00    +0.000 N 
ATOM      4  H   UNL     1       5.416   4.650  17.454  0.00  0.00    +0.000 HD
ENDROOT
BRANCH   3   5
ATOM      5  C   UNL     1       4.250   4.909  19.187  0.00  0.00    +0.000 A 
ATOM      6  C   UNL     1       3.496   6.077  19.368  0.00  0.00    +0.000 A 
ATOM      7  C   UNL     1       2.280   6.043  20.050  0.00  0.00    +0.000 A 
ATOM      8  C   UNL     1       1.824   4.846  20.590  0.00  0.00    +0.000 A 
ATOM      9  C   UNL     1       2.566   3.677  20.410  0.00  0.00    +0.000 A 
ATOM     10  C   UNL     1       3.776   3.693  19.701  0.00  0.00    +0.000 A 
BRANCH  10  11
ATOM     11  O   UNL     1       4.360   2.461  19.565  0.00  0.00    +0.000 OA
ATOM     12  C   UNL     1       3.799   1.590  18.588  0.00  0.00    +0.000 C 
ENDBRANCH  10  11
ENDBRANCH   3   5
BRANCH   1  13
ATOM     13  O   UNL     1       7.646   5.257  17.897  0.00  0.00    +0.000 OA
BRANCH  13  15
ATOM     14  C   UNL     1       7.150   5.220  15.743  0.00  0.00    +0.000 C 
ATOM     15  N   UNL     1       7.240   4.475  16.796  0.00  0.00    +0.000 NA
BRANCH  14  19
ATOM     16  C   UNL     1       5.716   3.557  12.091  0.00  0.00    +0.000 A 
ATOM     17  C   UNL     1       4.913   3.539  13.232  0.00  0.00    +0.000 A 
ATOM     18  C   UNL     1       5.373   4.093  14.423  0.00  0.00    +0.000 A 
ATOM     19  C   UNL     1       6.654   4.650  14.482  0.00  0.00    +0.000 A 
ATOM     20  C   UNL     1       7.465   4.674  13.348  0.00  0.00    +0.000 A 
ATOM     21  C   UNL     1       6.993   4.122  12.151  0.00  0.00    +0.000 A 
BRANCH  16  23
ATOM     22  C   UNL     1       3.745   3.005  10.909  0.00  0.00    +0.000 C 
ATOM     23  O   UNL     1       5.162   2.957  10.997  0.00  0.00    +0.000 OA
ENDBRANCH  16  23
ENDBRANCH  14  19
ENDBRANCH  13  15
ENDBRANCH   1  13
TORSDOF 6
ENDMDL
MODEL 5
REMARK VINA RESULT:      -6.8      1.502      2.495
REMARK  Name = 
REMARK  8 active torsions:
REMARK  status: ('A' for Active; 'I' for Inactive)
REMARK    1  A    between atoms: C_1  and  O_2
REMARK    2  A    between atoms: O_2  and  C_3
REMARK    3  A    between atoms: C_6  and  C_7
REMARK    4  A    between atoms: N_8  and  O_9
REMARK    5  A    between atoms: O_9  and  C_10
REMARK    6  A    between atoms: N_12  and  C_13
REMARK    7  A    between atoms: C_18  and  O_19
REMARK    8  A    between atoms: O_19  and  C_20
REMARK                            x       y       z     vdW  Elec       q    Type
REMARK                         _______ _______ _______ _____ _____    ______ ____
ROOT
ATOM      1  C   UNL     1       7.071   6.945  17.824  0.00  0.00    +0.000 C 
ATOM      2  O   UNL     1       6.660   7.383  16.752  0.00  0.00    +0.000 OA
ATOM      3  N   UNL     1       6.456   5.978  18.587  0.00  0.00    +0.000 N 
ATOM      4  H   UNL     1       6.811   5.943  19.535  0.00  0.00    +0.000 HD
ENDROOT
BRANCH   3   5
ATOM      5  C   UNL     1       5.303   5.269  18.231  0.00  0.00    +0.000 A 
ATOM      6  C   UNL     1       4.099   5.577  18.880  0.00  0.00    +0.000 A 
ATOM      7  C   UNL     1       2.905   4.967  18.497  0.00  0.00    +0.000 A 
ATOM      8  C   UNL     1       2.910   4.017  17.482  0.00  0.00    +0.000 A 
ATOM      9  C   UNL     1       4.103   3.709  16.827  0.00  0.00    +0.000 A 
ATOM     10  C   UNL     1       5.305   4.336  17.184  0.00  0.00    +0.000 A 
BRANCH  10  11
ATOM     11  O   UNL     1       6.378   3.966  16.415  0.00  0.00    +0.000 OA
ATOM     12  C   UNL     1       6.197   4.001  15.004  0.00  0.00    +0.000 C 
ENDBRANCH  10  11
ENDBRANCH   3   5
BRANCH   1  13
ATOM     13  O   UNL     1       8.203   7.477  18.418  0.00  0.00    +0.000 OA
BRANCH  13  15
ATOM     14  C   UNL     1       9.100   9.439  18.900  0.00  0.00    +0.000 C 
ATOM     15  N   UNL     1       8.389   8.817  18.018  0.00  0.00    +0.000 NA
BRANCH  14  19
ATOM     16  C   UNL     1       9.847  13.611  18.462  0.00  0.00    +0.000 A 
ATOM     17  C   UNL     1       8.836  12.999  17.722  0.00  0.00    +0.000 A 
ATOM     18  C   UNL     1       8.580  11.639  17.872  0.00  0.00    +0.000 A 
ATOM     19  C   UNL     1       9.356  10.880  18.752  0.00  0.00    +0.000 A 
ATOM     20  C   UNL     1      10.369  11.481  19.498  0.00  0.00    +0.000 A 
ATOM     21  C   UNL     1      10.615  12.850  19.348  0.00  0.00    +0.000 A 
BRANCH  16  23
ATOM     22  C   UNL     1      11.334  15.348  17.858  0.00  0.00    +0.000 C 
ATOM     23  O   UNL     1      10.016  14.941  18.202  0.00  0.00    +0.000 OA
ENDBRANCH  16  23
ENDBRANCH  14  19
ENDBRANCH  13  15
ENDBRANCH   1  13
TORSDOF 6
ENDMDL
MODEL 6
REMARK VINA RESULT:      -6.8      1.721      2.529
REMARK  Name = 
REMARK  8 active torsions:
REMARK  status: ('A' for Active; 'I' for Inactive)
REMARK    1  A    between atoms: C_1  and  O_2
REMARK    2  A    between atoms: O_2  and  C_3
REMARK    3  A    between atoms: C_6  and  C_7
REMARK    4  A    between atoms: N_8  and  O_9
REMARK    5  A    between atoms: O_9  and  C_10
REMARK    6  A    between atoms: N_12  and  C_13
REMARK    7  A    between atoms: C_18  and  O_19
REMARK    8  A    between atoms: O_19  and  C_20
REMARK                            x       y       z     vdW  Elec       q    Type
REMARK                         _______ _______ _______ _____ _____    ______ ____
ROOT
ATOM      1  C   UNL     1       6.416   5.758  18.723  0.00  0.00    +0.000 C 
ATOM      2  O   UNL     1       6.780   5.330  19.815  0.00  0.00    +0.000 OA
ATOM      3  N   UNL     1       5.130   5.725  18.233  0.00  0.00    +0.000 N 
ATOM      4  H   UNL     1       5.086   5.890  17.235  0.00  0.00    +0.000 HD
ENDROOT
BRANCH   3   5
ATOM      5  C   UNL     1       4.003   5.276  18.932  0.00  0.00    +0.000 A 
ATOM      6  C   UNL     1       3.193   6.221  19.578  0.00  0.00    +0.000 A 
ATOM      7  C   UNL     1       2.010   5.837  20.206  0.00  0.00    +0.000 A 
ATOM      8  C   UNL     1       1.643   4.496  20.227  0.00  0.00    +0.000 A 
ATOM      9  C   UNL     1       2.440   3.549  19.582  0.00  0.00    +0.000 A 
ATOM     10  C   UNL     1       3.617   3.928  18.921  0.00  0.00    +0.000 A 
BRANCH  10  11
ATOM     11  O   UNL     1       4.263   2.894  18.294  0.00  0.00    +0.000 OA
ATOM     12  C   UNL     1       3.532   1.681  18.141  0.00  0.00    +0.000 C 
ENDBRANCH  10  11
ENDBRANCH   3   5
BRANCH   1  13
ATOM     13  O   UNL     1       7.336   6.259  17.817  0.00  0.00    +0.000 OA
BRANCH  13  15
ATOM     14  C   UNL     1       7.727   8.435  17.844  0.00  0.00    +0.000 C 
ATOM     15  N   UNL     1       8.072   7.316  18.392  0.00  0.00    +0.000 NA
BRANCH  14  19
ATOM     16  C   UNL     1       9.733  12.037  18.920  0.00  0.00    +0.000 A 
ATOM     17  C   UNL     1       9.913  10.881  19.680  0.00  0.00    +0.000 A 
ATOM     18  C   UNL     1       9.270   9.699  19.324  0.00  0.00    +0.000 A 
ATOM     19  C   UNL     1       8.422   9.677  18.212  0.00  0.00    +0.000 A 
ATOM     20  C   UNL     1       8.236  10.826  17.445  0.00  0.00    +0.000 A 
ATOM     21  C   UNL     1       8.892  12.009  17.804  0.00  0.00    +0.000 A 
BRANCH  16  23
ATOM     22  C   UNL     1      11.404  13.667  18.544  0.00  0.00    +0.000 C 
ATOM     23  O   UNL     1      10.395  13.135  19.391  0.00  0.00    +0.000 OA
ENDBRANCH  16  23
ENDBRANCH  14  19
ENDBRANCH  13  15
ENDBRANCH   1  13
TORSDOF 6
ENDMDL
MODEL 7
REMARK VINA RESULT:      -6.8      1.262      2.082
REMARK  Name = 
REMARK  8 active torsions:
REMARK  status: ('A' for Active; 'I' for Inactive)
REMARK    1  A    between atoms: C_1  and  O_2
REMARK    2  A    between atoms: O_2  and  C_3
REMARK    3  A    between atoms: C_6  and  C_7
REMARK    4  A    between atoms: N_8  and  O_9
REMARK    5  A    between atoms: O_9  and  C_10
REMARK    6  A    between atoms: N_12  and  C_13
REMARK    7  A    between atoms: C_18  and  O_19
REMARK    8  A    between atoms: O_19  and  C_20
REMARK                            x       y       z     vdW  Elec       q    Type
REMARK                         _______ _______ _______ _____ _____    ______ ____
ROOT
ATOM      1  C   UNL     1       6.571   6.764  17.640  0.00  0.00    +0.000 C 
ATOM      2  O   UNL     1       6.101   7.243  16.611  0.00  0.00    +0.000 OA
ATOM      3  N   UNL     1       5.955   5.837  18.451  0.00  0.00    +0.000 N 
ATOM      4  H   UNL     1       6.389   5.765  19.363  0.00  0.00    +0.000 HD
ENDROOT
BRANCH   3   5
ATOM      5  C   UNL     1       4.726   5.218  18.195  0.00  0.00    +0.000 A 
ATOM      6  C   UNL     1       3.576   5.730  18.814  0.00  0.00    +0.000 A 
ATOM      7  C   UNL     1       2.316   5.210  18.519  0.00  0.00    +0.000 A 
ATOM      8  C   UNL     1       2.197   4.150  17.628  0.00  0.00    +0.000 A 
ATOM      9  C   UNL     1       3.336   3.639  17.003  0.00  0.00    +0.000 A 
ATOM     10  C   UNL     1       4.605   4.172  17.269  0.00  0.00    +0.000 A 
BRANCH  10  11
ATOM     11  O   UNL     1       5.615   3.599  16.541  0.00  0.00    +0.000 OA
ATOM     12  C   UNL     1       5.763   4.039  15.195  0.00  0.00    +0.000 C 
ENDBRANCH  10  11
ENDBRANCH   3   5
BRANCH   1  13
ATOM     13  O   UNL     1       7.787   7.205  18.134  0.00  0.00    +0.000 OA
BRANCH  13  15
ATOM     14  C   UNL     1       8.747   9.142  18.595  0.00  0.00    +0.000 C 
ATOM     15  N   UNL     1       8.050   8.521  17.701  0.00  0.00    +0.000 NA
BRANCH  14  19
ATOM     16  C   UNL     1       9.684  13.267  18.077  0.00  0.00    +0.000 A 
ATOM     17  C   UNL     1      10.556  12.433  18.780  0.00  0.00    +0.000 A 
ATOM     18  C   UNL     1      10.259  11.083  18.940  0.00  0.00    +0.000 A 
ATOM     19  C   UNL     1       9.072  10.565  18.413  0.00  0.00    +0.000 A 
ATOM     20  C   UNL     1       8.195  11.388  17.709  0.00  0.00    +0.000 A 
ATOM     21  C   UNL     1       8.503  12.744  17.545  0.00  0.00    +0.000 A 
BRANCH  16  23
ATOM     22  C   UNL     1      11.457  14.803  17.775  0.00  0.00    +0.000 C 
ATOM     23  O   UNL     1      10.075  14.574  18.017  0.00  0.00    +0.000 OA
ENDBRANCH  16  23
ENDBRANCH  14  19
ENDBRANCH  13  15
ENDBRANCH   1  13
TORSDOF 6
ENDMDL
MODEL 8
REMARK VINA RESULT:      -6.8      2.058      3.000
REMARK  Name = 
REMARK  8 active torsions:
REMARK  status: ('A' for Active; 'I' for Inactive)
REMARK    1  A    between atoms: C_1  and  O_2
REMARK    2  A    between atoms: O_2  and  C_3
REMARK    3  A    between atoms: C_6  and  C_7
REMARK    4  A    between atoms: N_8  and  O_9
REMARK    5  A    between atoms: O_9  and  C_10
REMARK    6  A    between atoms: N_12  and  C_13
REMARK    7  A    between atoms: C_18  and  O_19
REMARK    8  A    between atoms: O_19  and  C_20
REMARK                            x       y       z     vdW  Elec       q    Type
REMARK                         _______ _______ _______ _____ _____    ______ ____
ROOT
ATOM      1  C   UNL     1       7.552   7.438  17.931  0.00  0.00    +0.000 C 
ATOM      2  O   UNL     1       6.884   7.959  17.041  0.00  0.00    +0.000 OA
ATOM      3  N   UNL     1       7.360   6.176  18.447  0.00  0.00    +0.000 N 
ATOM      4  H   UNL     1       7.840   6.037  19.328  0.00  0.00    +0.000 HD
ENDROOT
BRANCH   3   5
ATOM      5  C   UNL     1       6.427   5.240  17.987  0.00  0.00    +0.000 A 
ATOM      6  C   UNL     1       5.322   4.941  18.798  0.00  0.00    +0.000 A 
ATOM      7  C   UNL     1       4.316   4.089  18.345  0.00  0.00    +0.000 A 
ATOM      8  C   UNL     1       4.422   3.498  17.091  0.00  0.00    +0.000 A 
ATOM      9  C   UNL     1       5.516   3.795  16.276  0.00  0.00    +0.000 A 
ATOM     10  C   UNL     1       6.519   4.673  16.708  0.00  0.00    +0.000 A 
BRANCH  10  11
ATOM     11  O   UNL     1       7.499   4.903  15.777  0.00  0.00    +0.000 OA
ATOM     12  C   UNL     1       7.111   4.833  14.409  0.00  0.00    +0.000 C 
ENDBRANCH  10  11
ENDBRANCH   3   5
BRANCH   1  13
ATOM     13  O   UNL     1       8.550   8.150  18.574  0.00  0.00    +0.000 OA
BRANCH  13  15
ATOM     14  C   UNL     1       9.593  10.098  18.628  0.00  0.00    +0.000 C 
ATOM     15  N   UNL     1       8.562   9.492  18.139  0.00  0.00    +0.000 NA
BRANCH  14  19
ATOM     16  C   UNL     1      10.120  14.269  17.930  0.00  0.00    +0.000 A 
ATOM     17  C   UNL     1       9.023  13.815  18.663  0.00  0.00    +0.000 A 
ATOM     18  C   UNL     1       8.855  12.454  18.904  0.00  0.00    +0.000 A 
ATOM     19  C   UNL     1       9.778  11.538  18.391  0.00  0.00    +0.000 A 
ATOM     20  C   UNL     1      10.878  11.981  17.658  0.00  0.00    +0.000 A 
ATOM     21  C   UNL     1      11.046  13.351  17.426  0.00  0.00    +0.000 A 
BRANCH  16  23
ATOM     22  C   UNL     1      10.989  16.081  16.685  0.00  0.00    +0.000 C 
ATOM     23  O   UNL     1      10.155  15.621  17.739  0.00  0.00    +0.000 OA
ENDBRANCH  16  23
ENDBRANCH  14  19
ENDBRANCH  13  15
ENDBRANCH   1  13
TORSDOF 6
ENDMDL
MODEL 9
REMARK VINA RESULT:      -6.7      1.760      2.946
REMARK  Name = 
REMARK  8 active torsions:
REMARK  status: ('A' for Active; 'I' for Inactive)
REMARK    1  A    between atoms: C_1  and  O_2
REMARK    2  A    between atoms: O_2  and  C_3
REMARK    3  A    between atoms: C_6  and  C_7
REMARK    4  A    between atoms: N_8  and  O_9
REMARK    5  A    between atoms: O_9  and  C_10
REMARK    6  A    between atoms: N_12  and  C_13
REMARK    7  A    between atoms: C_18  and  O_19
REMARK    8  A    between atoms: O_19  and  C_20
REMARK                            x       y       z     vdW  Elec       q    Type
REMARK                         _______ _______ _______ _____ _____    ______ ____
ROOT
ATOM      1  C   UNL     1       7.422   7.319  17.643  0.00  0.00    +0.000 C 
ATOM      2  O   UNL     1       7.796   6.642  18.597  0.00  0.00    +0.000 OA
ATOM      3  N   UNL     1       6.335   7.048  16.842  0.00  0.00    +0.000 N 
ATOM      4  H   UNL     1       6.347   7.572  15.975  0.00  0.00    +0.000 HD
ENDROOT
BRANCH   3   5
ATOM      5  C   UNL     1       5.422   6.004  17.031  0.00  0.00    +0.000 A 
ATOM      6  C   UNL     1       4.261   6.255  17.776  0.00  0.00    +0.000 A 
ATOM      7  C   UNL     1       3.276   5.277  17.914  0.00  0.00    +0.000 A 
ATOM      8  C   UNL     1       3.460   4.026  17.338  0.00  0.00    +0.000 A 
ATOM      9  C   UNL     1       4.611   3.769  16.591  0.00  0.00    +0.000 A 
ATOM     10  C   UNL     1       5.594   4.753  16.420  0.00  0.00    +0.000 A 
BRANCH  10  11
ATOM     11  O   UNL     1       6.638   4.367  15.620  0.00  0.00    +0.000 OA
ATOM     12  C   UNL     1       6.313   3.960  14.295  0.00  0.00    +0.000 C 
ENDBRANCH  10  11
ENDBRANCH   3   5
BRANCH   1  13
ATOM     13  O   UNL     1       8.151   8.419  17.226  0.00  0.00    +0.000 OA
BRANCH  13  15
ATOM     14  C   UNL     1       8.905  10.394  17.872  0.00  0.00    +0.000 C 
ATOM     15  N   UNL     1       8.401   9.287  18.310  0.00  0.00    +0.000 NA
BRANCH  14  19
ATOM     16  C   UNL     1      10.166  13.394  20.624  0.00  0.00    +0.000 A 
ATOM     17  C   UNL     1       9.559  13.757  19.421  0.00  0.00    +0.000 A 
ATOM     18  C   UNL     1       9.134  12.780  18.526  0.00  0.00    +0.000 A 
ATOM     19  C   UNL     1       9.337  11.429  18.824  0.00  0.00    +0.000 A 
ATOM     20  C   UNL     1       9.941  11.054  20.023  0.00  0.00    +0.000 A 
ATOM     21  C   UNL     1      10.360  12.042  20.922  0.00  0.00    +0.000 A 
BRANCH  16  23
ATOM     22  C   UNL     1       9.638  15.517  21.521  0.00  0.00    +0.000 C 
ATOM     23  O   UNL     1      10.564  14.445  21.400  0.00  0.00    +0.000 OA
ENDBRANCH  16  23
ENDBRANCH  14  19
ENDBRANCH  13  15
ENDBRANCH   1  13
TORSDOF 6
ENDMDL
