MODEL 1
REMARK VINA RESULT:      -7.6      0.000      0.000
REMARK  Name = 
REMARK  4 active torsions:
REMARK  status: ('A' for Active; 'I' for Inactive)
REMARK    1  A    between atoms: O_1  and  C_2
REMARK    2  A    between atoms: C_5  and  C_6
REMARK    3  A    between atoms: C_8  and  C_9
REMARK    4  A    between atoms: C_18  and  O_19
REMARK                            x       y       z     vdW  Elec       q    Type
REMARK                         _______ _______ _______ _____ _____    ______ ____
ROOT
ATOM      1  C   UNL     1       4.134   6.055  17.620  0.00  0.00    +0.000 A 
ATOM      2  C   UNL     1       3.465   7.291  17.706  0.00  0.00    +0.000 A 
ATOM      3  C   UNL     1       2.465   7.551  18.667  0.00  0.00    +0.000 A 
ATOM      4  N   UNL     1       2.075   6.614  19.572  0.00  0.00    +0.000 NA
ATOM      5  C   UNL     1       2.702   5.427  19.476  0.00  0.00    +0.000 A 
ATOM      6  C   UNL     1       3.721   5.112  18.549  0.00  0.00    +0.000 A 
ATOM      7  C   UNL     1       4.187   3.693  18.790  0.00  0.00    +0.000 C 
ATOM      8  C   UNL     1       3.327   3.241  19.944  0.00  0.00    +0.000 A 
ATOM      9  C   UNL     1       3.319   1.994  20.550  0.00  0.00    +0.000 A 
ATOM     10  C   UNL     1       2.401   1.781  21.575  0.00  0.00    +0.000 A 
ATOM     11  C   UNL     1       1.524   2.804  21.969  0.00  0.00    +0.000 A 
ATOM     12  C   UNL     1       1.544   4.063  21.347  0.00  0.00    +0.000 A 
ATOM     13  C   UNL     1       2.451   4.276  20.325  0.00  0.00    +0.000 A 
ENDROOT
BRANCH   1  17
ATOM     14  C   UNL     1       7.211   5.453  14.661  0.00  0.00    +0.000 A 
ATOM     15  C   UNL     1       5.965   4.869  14.487  0.00  0.00    +0.000 A 
ATOM     16  C   UNL     1       4.966   5.078  15.446  0.00  0.00    +0.000 A 
ATOM     17  C   UNL     1       5.198   5.845  16.610  0.00  0.00    +0.000 A 
ATOM     18  C   UNL     1       6.489   6.379  16.760  0.00  0.00    +0.000 A 
ATOM     19  C   UNL     1       7.477   6.211  15.786  0.00  0.00    +0.000 A 
BRANCH  14  20
ATOM     20  O   UNL     1       8.212   5.298  13.750  0.00  0.00    +0.000 OA
ATOM     21  H   UNL     1       8.588   6.166  13.553  0.00  0.00    +0.000 HD
ENDBRANCH  14  20
ENDBRANCH   1  17
BRANCH   3  22
ATOM     22  C   UNL     1       1.864   8.904  18.765  0.00  0.00    +0.000 A 
ATOM     23  C   UNL     1       2.249   9.944  17.891  0.00  0.00    +0.000 A 
ATOM     24  C   UNL     1       1.818  11.261  18.078  0.00  0.00    +0.000 A 
ATOM     25  C   UNL     1       0.965  11.566  19.131  0.00  0.00    +0.000 A 
ATOM     26  C   UNL     1       0.520  10.549  19.973  0.00  0.00    +0.000 A 
ATOM     27  C   UNL     1       0.960   9.232  19.788  0.00  0.00    +0.000 A 
ENDBRANCH   3  22
BRANCH   7  28
ATOM     28  O   UNL     1       5.550   3.627  19.158  0.00  0.00    +0.000 OA
ATOM     29  H   UNL     1       5.770   2.686  19.264  0.00  0.00    +0.000 HD
ENDBRANCH   7  28
TORSDOF 4
ENDMDL
MODEL 2
REMARK VINA RESULT:      -7.6      5.034      9.981
REMARK  Name = 
REMARK  4 active torsions:
REMARK  status: ('A' for Active; 'I' for Inactive)
REMARK    1  A    between atoms: O_1  and  C_2
REMARK    2  A    between atoms: C_5  and  C_6
REMARK    3  A    between atoms: C_8  and  C_9
REMARK    4  A    between atoms: C_18  and  O_19
REMARK                            x       y       z     vdW  Elec       q    Type
REMARK                         _______ _______ _______ _____ _____    ______ ____
ROOT
ATOM      1  C   UNL     1      -0.988  11.508  18.394  0.00  0.00    +0.000 A 
ATOM      2  C   UNL     1      -0.335  10.267  18.523  0.00  0.00    +0.000 A 
ATOM      3  C   UNL     1       1.040  10.157  18.820  0.00  0.00    +0.000 A 
ATOM      4  N   UNL     1       1.829  11.252  18.992  0.00  0.00    +0.000 NA
ATOM      5  C   UNL     1       1.207  12.436  18.849  0.00  0.00    +0.000 A 
ATOM      6  C   UNL     1      -0.167  12.611  18.571  0.00  0.00    +0.000 A 
ATOM      7  C   UNL     1      -0.477  14.091  18.524  0.00  0.00    +0.000 C 
ATOM      8  C   UNL     1       0.860  14.731  18.801  0.00  0.00    +0.000 A 
ATOM      9  C   UNL     1       1.153  16.085  18.842  0.00  0.00    +0.000 A 
ATOM     10  C   UNL     1       2.476  16.452  19.070  0.00  0.00    +0.000 A 
ATOM     11  C   UNL     1       3.466  15.472  19.254  0.00  0.00    +0.000 A 
ATOM     12  C   UNL     1       3.154  14.103  19.212  0.00  0.00    +0.000 A 
ATOM     13  C   UNL     1       1.842  13.736  18.980  0.00  0.00    +0.000 A 
ENDROOT
BRANCH   1  17
ATOM     14  C   UNL     1      -5.215  11.649  17.559  0.00  0.00    +0.000 A 
ATOM     15  C   UNL     1      -4.323  11.338  16.544  0.00  0.00    +0.000 A 
ATOM     16  C   UNL     1      -2.952  11.282  16.825  0.00  0.00    +0.000 A 
ATOM     17  C   UNL     1      -2.442  11.565  18.112  0.00  0.00    +0.000 A 
ATOM     18  C   UNL     1      -3.383  11.917  19.094  0.00  0.00    +0.000 A 
ATOM     19  C   UNL     1      -4.755  11.931  18.833  0.00  0.00    +0.000 A 
BRANCH  14  20
ATOM     20  O   UNL     1      -6.560  11.697  17.346  0.00  0.00    +0.000 OA
ATOM     21  H   UNL     1      -6.941  12.373  17.922  0.00  0.00    +0.000 HD
ENDBRANCH  14  20
ENDBRANCH   1  17
BRANCH   3  22
ATOM     22  C   UNL     1       1.649   8.821  19.034  0.00  0.00    +0.000 A 
ATOM     23  C   UNL     1       2.279   8.124  17.980  0.00  0.00    +0.000 A 
ATOM     24  C   UNL     1       2.705   6.799  18.124  0.00  0.00    +0.000 A 
ATOM     25  C   UNL     1       2.537   6.148  19.339  0.00  0.00    +0.000 A 
ATOM     26  C   UNL     1       1.973   6.831  20.414  0.00  0.00    +0.000 A 
ATOM     27  C   UNL     1       1.540   8.154  20.265  0.00  0.00    +0.000 A 
ENDBRANCH   3  22
BRANCH   7  28
ATOM     28  O   UNL     1      -1.407  14.480  19.515  0.00  0.00    +0.000 OA
ATOM     29  H   UNL     1      -0.967  15.147  20.069  0.00  0.00    +0.000 HD
ENDBRANCH   7  28
TORSDOF 4
ENDMDL
MODEL 3
REMARK VINA RESULT:      -7.6      4.261      8.725
REMARK  Name = 
REMARK  4 active torsions:
REMARK  status: ('A' for Active; 'I' for Inactive)
REMARK    1  A    between atoms: O_1  and  C_2
REMARK    2  A    between atoms: C_5  and  C_6
REMARK    3  A    between atoms: C_8  and  C_9
REMARK    4  A    between atoms: C_18  and  O_19
REMARK                            x       y       z     vdW  Elec       q    Type
REMARK                         _______ _______ _______ _____ _____    ______ ____
ROOT
ATOM      1  C   UNL     1       0.147  10.921  19.019  0.00  0.00    +0.000 A 
ATOM      2  C   UNL     1      -1.258  10.890  19.113  0.00  0.00    +0.000 A 
ATOM      3  C   UNL     1      -2.051  12.056  19.057  0.00  0.00    +0.000 A 
ATOM      4  N   UNL     1      -1.503  13.293  18.916  0.00  0.00    +0.000 NA
ATOM      5  C   UNL     1      -0.159  13.321  18.845  0.00  0.00    +0.000 A 
ATOM      6  C   UNL     1       0.686  12.190  18.878  0.00  0.00    +0.000 A 
ATOM      7  C   UNL     1       2.123  12.643  18.736  0.00  0.00    +0.000 C 
ATOM      8  C   UNL     1       2.000  14.142  18.624  0.00  0.00    +0.000 A 
ATOM      9  C   UNL     1       3.029  15.065  18.506  0.00  0.00    +0.000 A 
ATOM     10  C   UNL     1       2.685  16.413  18.464  0.00  0.00    +0.000 A 
ATOM     11  C   UNL     1       1.338  16.806  18.536  0.00  0.00    +0.000 A 
ATOM     12  C   UNL     1       0.306  15.861  18.653  0.00  0.00    +0.000 A 
ATOM     13  C   UNL     1       0.646  14.522  18.700  0.00  0.00    +0.000 A 
ENDROOT
BRANCH   1  17
ATOM     14  C   UNL     1       2.443   7.273  19.104  0.00  0.00    +0.000 A 
ATOM     15  C   UNL     1       2.259   7.943  17.903  0.00  0.00    +0.000 A 
ATOM     16  C   UNL     1       1.522   9.134  17.885  0.00  0.00    +0.000 A 
ATOM     17  C   UNL     1       0.929   9.663  19.053  0.00  0.00    +0.000 A 
ATOM     18  C   UNL     1       1.108   8.924  20.235  0.00  0.00    +0.000 A 
ATOM     19  C   UNL     1       1.880   7.759  20.270  0.00  0.00    +0.000 A 
BRANCH  14  20
ATOM     20  O   UNL     1       3.168   6.123  19.183  0.00  0.00    +0.000 OA
ATOM     21  H   UNL     1       3.243   5.743  18.297  0.00  0.00    +0.000 HD
ENDBRANCH  14  20
ENDBRANCH   1  17
BRANCH   3  22
ATOM     22  C   UNL     1      -3.530  11.949  19.070  0.00  0.00    +0.000 A 
ATOM     23  C   UNL     1      -4.302  12.545  20.091  0.00  0.00    +0.000 A 
ATOM     24  C   UNL     1      -5.675  12.311  20.210  0.00  0.00    +0.000 A 
ATOM     25  C   UNL     1      -6.319  11.495  19.288  0.00  0.00    +0.000 A 
ATOM     26  C   UNL     1      -5.595  10.942  18.234  0.00  0.00    +0.000 A 
ATOM     27  C   UNL     1      -4.217  11.171  18.124  0.00  0.00    +0.000 A 
ENDBRANCH   3  22
BRANCH   7  28
ATOM     28  O   UNL     1       2.741  12.127  17.575  0.00  0.00    +0.000 OA
ATOM     29  H   UNL     1       3.020  12.889  17.040  0.00  0.00    +0.000 HD
ENDBRANCH   7  28
TORSDOF 4
ENDMDL
MODEL 4
REMARK VINA RESULT:      -7.5      5.034     10.032
REMARK  Name = 
REMARK  4 active torsions:
REMARK  status: ('A' for Active; 'I' for Inactive)
REMARK    1  A    between atoms: O_1  and  C_2
REMARK    2  A    between atoms: C_5  and  C_6
REMARK    3  A    between atoms: C_8  and  C_9
REMARK    4  A    between atoms: C_18  and  O_19
REMARK                            x       y       z     vdW  Elec       q    Type
REMARK                         _______ _______ _______ _____ _____    ______ ____
ROOT
ATOM      1  C   UNL     1      -0.987  11.495  18.291  0.00  0.00    +0.000 A 
ATOM      2  C   UNL     1      -0.326  10.253  18.343  0.00  0.00    +0.000 A 
ATOM      3  C   UNL     1       1.055  10.137  18.608  0.00  0.00    +0.000 A 
ATOM      4  N   UNL     1       1.842  11.225  18.822  0.00  0.00    +0.000 NA
ATOM      5  C   UNL     1       1.210  12.412  18.753  0.00  0.00    +0.000 A 
ATOM      6  C   UNL     1      -0.169  12.592  18.510  0.00  0.00    +0.000 A 
ATOM      7  C   UNL     1      -0.488  14.071  18.546  0.00  0.00    +0.000 C 
ATOM      8  C   UNL     1       0.851  14.703  18.832  0.00  0.00    +0.000 A 
ATOM      9  C   UNL     1       1.138  16.056  18.938  0.00  0.00    +0.000 A 
ATOM     10  C   UNL     1       2.463  16.419  19.161  0.00  0.00    +0.000 A 
ATOM     11  C   UNL     1       3.460  15.437  19.275  0.00  0.00    +0.000 A 
ATOM     12  C   UNL     1       3.155  14.070  19.167  0.00  0.00    +0.000 A 
ATOM     13  C   UNL     1       1.841  13.707  18.940  0.00  0.00    +0.000 A 
ENDROOT
BRANCH   1  17
ATOM     14  C   UNL     1      -5.233  11.703  17.570  0.00  0.00    +0.000 A 
ATOM     15  C   UNL     1      -4.737  11.952  18.842  0.00  0.00    +0.000 A 
ATOM     16  C   UNL     1      -3.356  11.894  19.066  0.00  0.00    +0.000 A 
ATOM     17  C   UNL     1      -2.447  11.558  18.038  0.00  0.00    +0.000 A 
ATOM     18  C   UNL     1      -3.003  11.273  16.780  0.00  0.00    +0.000 A 
ATOM     19  C   UNL     1      -4.375  11.372  16.537  0.00  0.00    +0.000 A 
BRANCH  14  20
ATOM     20  O   UNL     1      -6.565  11.766  17.292  0.00  0.00    +0.000 OA
ATOM     21  H   UNL     1      -6.701  11.509  16.371  0.00  0.00    +0.000 HD
ENDBRANCH  14  20
ENDBRANCH   1  17
BRANCH   3  22
ATOM     22  C   UNL     1       1.675   8.795  18.740  0.00  0.00    +0.000 A 
ATOM     23  C   UNL     1       1.550   8.042  19.928  0.00  0.00    +0.000 A 
ATOM     24  C   UNL     1       2.265   6.857  20.129  0.00  0.00    +0.000 A 
ATOM     25  C   UNL     1       3.104   6.380  19.131  0.00  0.00    +0.000 A 
ATOM     26  C   UNL     1       3.201   7.069  17.924  0.00  0.00    +0.000 A 
ATOM     27  C   UNL     1       2.490   8.260  17.730  0.00  0.00    +0.000 A 
ENDBRANCH   3  22
BRANCH   7  28
ATOM     28  O   UNL     1      -1.401  14.402  19.573  0.00  0.00    +0.000 OA
ATOM     29  H   UNL     1      -0.934  14.994  20.187  0.00  0.00    +0.000 HD
ENDBRANCH   7  28
TORSDOF 4
ENDMDL
MODEL 5
REMARK VINA RESULT:      -7.5      3.603      6.061
REMARK  Name = 
REMARK  4 active torsions:
REMARK  status: ('A' for Active; 'I' for Inactive)
REMARK    1  A    between atoms: O_1  and  C_2
REMARK    2  A    between atoms: C_5  and  C_6
REMARK    3  A    between atoms: C_8  and  C_9
REMARK    4  A    between atoms: C_18  and  O_19
REMARK                            x       y       z     vdW  Elec       q    Type
REMARK                         _______ _______ _______ _____ _____    ______ ____
ROOT
ATOM      1  C   UNL     1       6.109   5.643  17.095  0.00  0.00    +0.000 A 
ATOM      2  C   UNL     1       6.296   5.223  15.764  0.00  0.00    +0.000 A 
ATOM      3  C   UNL     1       5.482   4.247  15.152  0.00  0.00    +0.000 A 
ATOM      4  N   UNL     1       4.463   3.640  15.816  0.00  0.00    +0.000 NA
ATOM      5  C   UNL     1       4.298   4.028  17.094  0.00  0.00    +0.000 A 
ATOM      6  C   UNL     1       5.068   5.010  17.756  0.00  0.00    +0.000 A 
ATOM      7  C   UNL     1       4.545   5.180  19.166  0.00  0.00    +0.000 C 
ATOM      8  C   UNL     1       3.406   4.193  19.231  0.00  0.00    +0.000 A 
ATOM      9  C   UNL     1       2.594   3.914  20.320  0.00  0.00    +0.000 A 
ATOM     10  C   UNL     1       1.628   2.924  20.167  0.00  0.00    +0.000 A 
ATOM     11  C   UNL     1       1.493   2.244  18.946  0.00  0.00    +0.000 A 
ATOM     12  C   UNL     1       2.321   2.538  17.850  0.00  0.00    +0.000 A 
ATOM     13  C   UNL     1       3.285   3.517  18.001  0.00  0.00    +0.000 A 
ENDROOT
BRANCH   1  17
ATOM     14  C   UNL     1       8.606   8.719  18.795  0.00  0.00    +0.000 A 
ATOM     15  C   UNL     1       7.791   9.014  17.712  0.00  0.00    +0.000 A 
ATOM     16  C   UNL     1       6.974   8.013  17.172  0.00  0.00    +0.000 A 
ATOM     17  C   UNL     1       6.975   6.694  17.679  0.00  0.00    +0.000 A 
ATOM     18  C   UNL     1       7.850   6.437  18.748  0.00  0.00    +0.000 A 
ATOM     19  C   UNL     1       8.635   7.441  19.321  0.00  0.00    +0.000 A 
BRANCH  14  20
ATOM     20  O   UNL     1       9.405   9.660  19.372  0.00  0.00    +0.000 OA
ATOM     21  H   UNL     1       9.996  10.019  18.697  0.00  0.00    +0.000 HD
ENDBRANCH  14  20
ENDBRANCH   1  17
BRANCH   3  22
ATOM     22  C   UNL     1       5.672   3.916  13.718  0.00  0.00    +0.000 A 
ATOM     23  C   UNL     1       4.606   3.430  12.929  0.00  0.00    +0.000 A 
ATOM     24  C   UNL     1       4.808   2.955  11.629  0.00  0.00    +0.000 A 
ATOM     25  C   UNL     1       6.081   2.982  11.074  0.00  0.00    +0.000 A 
ATOM     26  C   UNL     1       7.141   3.512  11.807  0.00  0.00    +0.000 A 
ATOM     27  C   UNL     1       6.936   3.979  13.112  0.00  0.00    +0.000 A 
ENDBRANCH   3  22
BRANCH   7  28
ATOM     28  O   UNL     1       4.059   6.485  19.409  0.00  0.00    +0.000 OA
ATOM     29  H   UNL     1       4.540   6.827  20.182  0.00  0.00    +0.000 HD
ENDBRANCH   7  28
TORSDOF 4
ENDMDL
MODEL 6
REMARK VINA RESULT:      -7.5      4.280      8.703
REMARK  Name = 
REMARK  4 active torsions:
REMARK  status: ('A' for Active; 'I' for Inactive)
REMARK    1  A    between atoms: O_1  and  C_2
REMARK    2  A    between atoms: C_5  and  C_6
REMARK    3  A    between atoms: C_8  and  C_9
REMARK    4  A    between atoms: C_18  and  O_19
REMARK                            x       y       z     vdW  Elec       q    Type
REMARK                         _______ _______ _______ _____ _____    ______ ____
ROOT
ATOM      1  C   UNL     1       0.148  10.880  18.989  0.00  0.00    +0.000 A 
ATOM      2  C   UNL     1      -1.257  10.828  19.065  0.00  0.00    +0.000 A 
ATOM      3  C   UNL     1      -2.066  11.983  19.011  0.00  0.00    +0.000 A 
ATOM      4  N   UNL     1      -1.535  13.229  18.889  0.00  0.00    +0.000 NA
ATOM      5  C   UNL     1      -0.191  13.277  18.836  0.00  0.00    +0.000 A 
ATOM      6  C   UNL     1       0.670  12.158  18.868  0.00  0.00    +0.000 A 
ATOM      7  C   UNL     1       2.102  12.633  18.749  0.00  0.00    +0.000 C 
ATOM      8  C   UNL     1       1.959  14.132  18.650  0.00  0.00    +0.000 A 
ATOM      9  C   UNL     1       2.976  15.070  18.556  0.00  0.00    +0.000 A 
ATOM     10  C   UNL     1       2.613  16.413  18.523  0.00  0.00    +0.000 A 
ATOM     11  C   UNL     1       1.260  16.786  18.581  0.00  0.00    +0.000 A 
ATOM     12  C   UNL     1       0.241  15.825  18.675  0.00  0.00    +0.000 A 
ATOM     13  C   UNL     1       0.599  14.490  18.714  0.00  0.00    +0.000 A 
ENDROOT
BRANCH   1  17
ATOM     14  C   UNL     1       2.454   7.239  19.096  0.00  0.00    +0.000 A 
ATOM     15  C   UNL     1       1.892   7.733  20.264  0.00  0.00    +0.000 A 
ATOM     16  C   UNL     1       1.135   8.910  20.220  0.00  0.00    +0.000 A 
ATOM     17  C   UNL     1       0.948   9.633  19.020  0.00  0.00    +0.000 A 
ATOM     18  C   UNL     1       1.574   9.114  17.875  0.00  0.00    +0.000 A 
ATOM     19  C   UNL     1       2.294   7.917  17.902  0.00  0.00    +0.000 A 
BRANCH  14  20
ATOM     20  O   UNL     1       3.183   6.089  19.079  0.00  0.00    +0.000 OA
ATOM     21  H   UNL     1       4.028   6.250  19.520  0.00  0.00    +0.000 HD
ENDBRANCH  14  20
ENDBRANCH   1  17
BRANCH   3  22
ATOM     22  C   UNL     1      -3.544  11.854  19.003  0.00  0.00    +0.000 A 
ATOM     23  C   UNL     1      -4.212  11.113  18.004  0.00  0.00    +0.000 A 
ATOM     24  C   UNL     1      -5.605  11.122  17.886  0.00  0.00    +0.000 A 
ATOM     25  C   UNL     1      -6.369  11.853  18.787  0.00  0.00    +0.000 A 
ATOM     26  C   UNL     1      -5.741  12.545  19.820  0.00  0.00    +0.000 A 
ATOM     27  C   UNL     1      -4.345  12.540  19.930  0.00  0.00    +0.000 A 
ENDBRANCH   3  22
BRANCH   7  28
ATOM     28  O   UNL     1       2.742  12.138  17.591  0.00  0.00    +0.000 OA
ATOM     29  H   UNL     1       3.690  12.073  17.796  0.00  0.00    +0.000 HD
ENDBRANCH   7  28
TORSDOF 4
ENDMDL
MODEL 7
REMARK VINA RESULT:      -7.5      4.288      8.836
REMARK  Name = 
REMARK  4 active torsions:
REMARK  status: ('A' for Active; 'I' for Inactive)
REMARK    1  A    between atoms: O_1  and  C_2
REMARK    2  A    between atoms: C_5  and  C_6
REMARK    3  A    between atoms: C_8  and  C_9
REMARK    4  A    between atoms: C_18  and  O_19
REMARK                            x       y       z     vdW  Elec       q    Type
REMARK                         _______ _______ _______ _____ _____    ______ ____
ROOT
ATOM      1  C   UNL     1       0.268  11.149  19.233  0.00  0.00    +0.000 A 
ATOM      2  C   UNL     1      -1.103  11.210  19.545  0.00  0.00    +0.000 A 
ATOM      3  C   UNL     1      -1.822  12.424  19.585  0.00  0.00    +0.000 A 
ATOM      4  N   UNL     1      -1.228  13.621  19.333  0.00  0.00    +0.000 NA
ATOM      5  C   UNL     1       0.087  13.562  19.054  0.00  0.00    +0.000 A 
ATOM      6  C   UNL     1       0.856  12.379  18.982  0.00  0.00    +0.000 A 
ATOM      7  C   UNL     1       2.278  12.737  18.609  0.00  0.00    +0.000 C 
ATOM      8  C   UNL     1       2.232  14.239  18.482  0.00  0.00    +0.000 A 
ATOM      9  C   UNL     1       3.285  15.092  18.186  0.00  0.00    +0.000 A 
ATOM     10  C   UNL     1       3.022  16.458  18.167  0.00  0.00    +0.000 A 
ATOM     11  C   UNL     1       1.730  16.939  18.437  0.00  0.00    +0.000 A 
ATOM     12  C   UNL     1       0.673  16.063  18.734  0.00  0.00    +0.000 A 
ATOM     13  C   UNL     1       0.932  14.706  18.759  0.00  0.00    +0.000 A 
ENDROOT
BRANCH   1  17
ATOM     14  C   UNL     1       2.281   7.340  19.080  0.00  0.00    +0.000 A 
ATOM     15  C   UNL     1       1.820   7.827  20.294  0.00  0.00    +0.000 A 
ATOM     16  C   UNL     1       1.157   9.059  20.335  0.00  0.00    +0.000 A 
ATOM     17  C   UNL     1       0.967   9.844  19.175  0.00  0.00    +0.000 A 
ATOM     18  C   UNL     1       1.491   9.326  17.978  0.00  0.00    +0.000 A 
ATOM     19  C   UNL     1       2.114   8.077  17.922  0.00  0.00    +0.000 A 
BRANCH  14  20
ATOM     20  O   UNL     1       2.915   6.138  18.980  0.00  0.00    +0.000 OA
ATOM     21  H   UNL     1       2.282   5.436  19.182  0.00  0.00    +0.000 HD
ENDBRANCH  14  20
ENDBRANCH   1  17
BRANCH   3  22
ATOM     22  C   UNL     1      -3.286  12.412  19.829  0.00  0.00    +0.000 A 
ATOM     23  C   UNL     1      -3.827  12.820  21.067  0.00  0.00    +0.000 A 
ATOM     24  C   UNL     1      -5.183  12.655  21.370  0.00  0.00    +0.000 A 
ATOM     25  C   UNL     1      -6.038  12.103  20.426  0.00  0.00    +0.000 A 
ATOM     26  C   UNL     1      -5.544  11.746  19.173  0.00  0.00    +0.000 A 
ATOM     27  C   UNL     1      -4.184  11.905  18.877  0.00  0.00    +0.000 A 
ENDBRANCH   3  22
BRANCH   7  28
ATOM     28  O   UNL     1       2.674  12.166  17.378  0.00  0.00    +0.000 OA
ATOM     29  H   UNL     1       3.070  11.302  17.581  0.00  0.00    +0.000 HD
ENDBRANCH   7  28
TORSDOF 4
ENDMDL
MODEL 8
REMARK VINA RESULT:      -7.2      5.061     10.683
REMARK  Name = 
REMARK  4 active torsions:
REMARK  status: ('A' for Active; 'I' for Inactive)
REMARK    1  A    between atoms: O_1  and  C_2
REMARK    2  A    between atoms: C_5  and  C_6
REMARK    3  A    between atoms: C_8  and  C_9
REMARK    4  A    between atoms: C_18  and  O_19
REMARK                            x       y       z     vdW  Elec       q    Type
REMARK                         _______ _______ _______ _____ _____    ______ ____
ROOT
ATOM      1  C   UNL     1      -0.652  12.145  20.350  0.00  0.00    +0.000 A 
ATOM      2  C   UNL     1      -0.164  10.861  20.042  0.00  0.00    +0.000 A 
ATOM      3  C   UNL     1       1.007  10.652  19.283  0.00  0.00    +0.000 A 
ATOM      4  N   UNL     1       1.739  11.687  18.790  0.00  0.00    +0.000 NA
ATOM      5  C   UNL     1       1.260  12.913  19.070  0.00  0.00    +0.000 A 
ATOM      6  C   UNL     1       0.106  13.186  19.837  0.00  0.00    +0.000 A 
ATOM      7  C   UNL     1      -0.070  14.685  19.948  0.00  0.00    +0.000 C 
ATOM      8  C   UNL     1       1.099  15.227  19.164  0.00  0.00    +0.000 A 
ATOM      9  C   UNL     1       1.402  16.557  18.916  0.00  0.00    +0.000 A 
ATOM     10  C   UNL     1       2.512  16.828  18.122  0.00  0.00    +0.000 A 
ATOM     11  C   UNL     1       3.288  15.779  17.601  0.00  0.00    +0.000 A 
ATOM     12  C   UNL     1       2.970  14.436  17.862  0.00  0.00    +0.000 A 
ATOM     13  C   UNL     1       1.864  14.164  18.646  0.00  0.00    +0.000 A 
ENDROOT
BRANCH   1  17
ATOM     14  C   UNL     1      -4.213  12.600  22.737  0.00  0.00    +0.000 A 
ATOM     15  C   UNL     1      -4.261  12.852  21.374  0.00  0.00    +0.000 A 
ATOM     16  C   UNL     1      -3.104  12.691  20.603  0.00  0.00    +0.000 A 
ATOM     17  C   UNL     1      -1.871  12.307  21.178  0.00  0.00    +0.000 A 
ATOM     18  C   UNL     1      -1.866  12.106  22.568  0.00  0.00    +0.000 A 
ATOM     19  C   UNL     1      -3.026  12.221  23.337  0.00  0.00    +0.000 A 
BRANCH  14  20
ATOM     20  O   UNL     1      -5.314  12.722  23.531  0.00  0.00    +0.000 OA
ATOM     21  H   UNL     1      -5.731  13.575  23.353  0.00  0.00    +0.000 HD
ENDBRANCH  14  20
ENDBRANCH   1  17
BRANCH   3  22
ATOM     22  C   UNL     1       1.519   9.276  19.071  0.00  0.00    +0.000 A 
ATOM     23  C   UNL     1       1.518   8.323  20.113  0.00  0.00    +0.000 A 
ATOM     24  C   UNL     1       2.148   7.082  19.979  0.00  0.00    +0.000 A 
ATOM     25  C   UNL     1       2.773   6.752  18.783  0.00  0.00    +0.000 A 
ATOM     26  C   UNL     1       2.738   7.648  17.717  0.00  0.00    +0.000 A 
ATOM     27  C   UNL     1       2.113   8.893  17.858  0.00  0.00    +0.000 A 
ENDBRANCH   3  22
BRANCH   7  28
ATOM     28  O   UNL     1      -0.000  15.140  21.284  0.00  0.00    +0.000 OA
ATOM     29  H   UNL     1       0.248  14.375  21.831  0.00  0.00    +0.000 HD
ENDBRANCH   7  28
TORSDOF 4
ENDMDL
MODEL 9
REMARK VINA RESULT:      -7.1      5.166     10.723
REMARK  Name = 
REMARK  4 active torsions:
REMARK  status: ('A' for Active; 'I' for Inactive)
REMARK    1  A    between atoms: O_1  and  C_2
REMARK    2  A    between atoms: C_5  and  C_6
REMARK    3  A    between atoms: C_8  and  C_9
REMARK    4  A    between atoms: C_18  and  O_19
REMARK                            x       y       z     vdW  Elec       q    Type
REMARK                         _______ _______ _______ _____ _____    ______ ____
ROOT
ATOM      1  C   UNL     1      -0.995  12.186  19.722  0.00  0.00    +0.000 A 
ATOM      2  C   UNL     1      -0.455  10.895  19.565  0.00  0.00    +0.000 A 
ATOM      3  C   UNL     1       0.847  10.668  19.071  0.00  0.00    +0.000 A 
ATOM      4  N   UNL     1       1.666  11.691  18.704  0.00  0.00    +0.000 NA
ATOM      5  C   UNL     1       1.141  12.923  18.837  0.00  0.00    +0.000 A 
ATOM      6  C   UNL     1      -0.146  13.214  19.341  0.00  0.00    +0.000 A 
ATOM      7  C   UNL     1      -0.341  14.714  19.362  0.00  0.00    +0.000 C 
ATOM      8  C   UNL     1       0.965  15.237  18.817  0.00  0.00    +0.000 A 
ATOM      9  C   UNL     1       1.314  16.560  18.592  0.00  0.00    +0.000 A 
ATOM     10  C   UNL     1       2.565  16.811  18.034  0.00  0.00    +0.000 A 
ATOM     11  C   UNL     1       3.430  15.750  17.720  0.00  0.00    +0.000 A 
ATOM     12  C   UNL     1       3.064  14.415  17.956  0.00  0.00    +0.000 A 
ATOM     13  C   UNL     1       1.820  14.162  18.504  0.00  0.00    +0.000 A 
ENDROOT
BRANCH   1  17
ATOM     14  C   UNL     1      -4.951  12.738  21.344  0.00  0.00    +0.000 A 
ATOM     15  C   UNL     1      -3.850  12.777  22.187  0.00  0.00    +0.000 A 
ATOM     16  C   UNL     1      -2.567  12.609  21.651  0.00  0.00    +0.000 A 
ATOM     17  C   UNL     1      -2.358  12.368  20.275  0.00  0.00    +0.000 A 
ATOM     18  C   UNL     1      -3.508  12.294  19.472  0.00  0.00    +0.000 A 
ATOM     19  C   UNL     1      -4.788  12.506  19.991  0.00  0.00    +0.000 A 
BRANCH  14  20
ATOM     20  O   UNL     1      -6.219  12.916  21.808  0.00  0.00    +0.000 OA
ATOM     21  H   UNL     1      -6.508  12.101  22.240  0.00  0.00    +0.000 HD
ENDBRANCH  14  20
ENDBRANCH   1  17
BRANCH   3  22
ATOM     22  C   UNL     1       1.391   9.289  19.016  0.00  0.00    +0.000 A 
ATOM     23  C   UNL     1       1.395   8.455  20.156  0.00  0.00    +0.000 A 
ATOM     24  C   UNL     1       2.053   7.222  20.164  0.00  0.00    +0.000 A 
ATOM     25  C   UNL     1       2.702   6.777  19.019  0.00  0.00    +0.000 A 
ATOM     26  C   UNL     1       2.663   7.551  17.861  0.00  0.00    +0.000 A 
ATOM     27  C   UNL     1       2.009   8.790  17.859  0.00  0.00    +0.000 A 
ENDBRANCH   3  22
BRANCH   7  28
ATOM     28  O   UNL     1      -0.547  15.214  20.668  0.00  0.00    +0.000 OA
ATOM     29  H   UNL     1      -1.231  14.660  21.079  0.00  0.00    +0.000 HD
ENDBRANCH   7  28
TORSDOF 4
ENDMDL
