MODEL 1
REMARK VINA RESULT:      -8.5      0.000      0.000
REMARK  Name = 
REMARK  15 active torsions:
REMARK  status: ('A' for Active; 'I' for Inactive)
REMARK    1  A    between atoms: C_1  and  C_2
REMARK    2  A    between atoms: C_2  and  C_3
REMARK    3  A    between atoms: C_2  and  C_4
REMARK    4  A    between atoms: C_4  and  N_5
REMARK    5  A    between atoms: C_4  and  C_6
REMARK    6  A    between atoms: N_8  and  C_9
REMARK    7  A    between atoms: C_9  and  C_10
REMARK    8  A    between atoms: C_9  and  C_17
REMARK    9  A    between atoms: C_10  and  C_11
REMARK   10  A    between atoms: N_19  and  C_20
REMARK   11  A    between atoms: C_20  and  C_21
REMARK   12  A    between atoms: C_20  and  C_22
REMARK   13  A    between atoms: C_22  and  O_24
REMARK   14  A    between atoms: O_24  and  C_25
REMARK   15  A    between atoms: C_25  and  C_26
REMARK                            x       y       z     vdW  Elec       q    Type
REMARK                         _______ _______ _______ _____ _____    ______ ____
ROOT
ATOM      1  C   UNL     1       3.187   6.821  18.308  0.00  0.00    +0.000 C 
ENDROOT
BRANCH   1   4
ATOM      2  C   UNL     1       1.813   8.696  19.255  0.00  0.00    +0.000 C 
ATOM      3  O   UNL     1       1.663   8.143  20.345  0.00  0.00    +0.000 OA
ATOM      4  N   UNL     1       2.573   8.161  18.238  0.00  0.00    +0.000 N 
ATOM      5  H   UNL     1       2.692   8.678  17.371  0.00  0.00    +0.000 HD
BRANCH   2   6
ATOM      6  C   UNL     1       1.178  10.072  18.948  0.00  0.00    +0.000 C 
BRANCH   6   8
ATOM      7  C   UNL     1      -1.054  10.018  17.685  0.00  0.00    +0.000 C 
ATOM      8  C   UNL     1      -0.358   9.957  19.051  0.00  0.00    +0.000 C 
ATOM      9  C   UNL     1      -0.948  11.020  19.979  0.00  0.00    +0.000 C 
ENDBRANCH   6   8
BRANCH   6  10
ATOM     10  N   UNL     1       1.639  10.552  17.626  0.00  0.00    +0.000 NA
ATOM     11  H   UNL     1       1.820   9.726  17.048  0.00  0.00    +0.000 HD
ATOM     12  H   UNL     1       2.567  10.964  17.743  0.00  0.00    +0.000 HD
ENDBRANCH   6  10
ENDBRANCH   2   6
ENDBRANCH   1   4
BRANCH   1  13
ATOM     13  C   UNL     1       4.479   6.796  17.432  0.00  0.00    +0.000 C 
ATOM     14  O   UNL     1       4.423   6.905  16.204  0.00  0.00    +0.000 OA
ATOM     15  N   UNL     1       5.673   6.636  18.100  0.00  0.00    +0.000 N 
ATOM     16  H   UNL     1       5.683   6.384  19.080  0.00  0.00    +0.000 HD
BRANCH  15  17
ATOM     17  C   UNL     1       6.960   6.435  17.434  0.00  0.00    +0.000 C 
ATOM     18  C   UNL     1       7.927   7.509  17.908  0.00  0.00    +0.000 C 
BRANCH  17  19
ATOM     19  C   UNL     1       7.562   5.042  17.731  0.00  0.00    +0.000 C 
ATOM     20  O   UNL     1       7.909   4.674  18.846  0.00  0.00    +0.000 OA
BRANCH  19  21
ATOM     21  O   UNL     1       7.627   4.279  16.603  0.00  0.00    +0.000 OA
BRANCH  21  22
ATOM     22  C   UNL     1       6.399   4.090  15.878  0.00  0.00    +0.000 C 
BRANCH  22  23
ATOM     23  C   UNL     1       6.715   4.209  14.409  0.00  0.00    +0.000 A 
ATOM     24  C   UNL     1       7.618   5.174  13.941  0.00  0.00    +0.000 A 
ATOM     25  C   UNL     1       7.845   5.325  12.572  0.00  0.00    +0.000 A 
ATOM     26  C   UNL     1       7.173   4.516  11.658  0.00  0.00    +0.000 A 
ATOM     27  C   UNL     1       6.285   3.543  12.112  0.00  0.00    +0.000 A 
ATOM     28  C   UNL     1       6.056   3.390  13.481  0.00  0.00    +0.000 A 
ENDBRANCH  22  23
ENDBRANCH  21  22
ENDBRANCH  19  21
ENDBRANCH  17  19
ENDBRANCH  15  17
ENDBRANCH   1  13
BRANCH   1  29
ATOM     29  C   UNL     1       2.195   5.707  17.908  0.00  0.00    +0.000 C 
BRANCH  29  30
ATOM     30  C   UNL     1       1.939   4.632  18.949  0.00  0.00    +0.000 A 
ATOM     31  C   UNL     1       1.258   3.429  18.678  0.00  0.00    +0.000 A 
ATOM     32  C   UNL     1       0.951   2.526  19.679  0.00  0.00    +0.000 A 
ATOM     33  C   UNL     1       1.340   2.795  20.987  0.00  0.00    +0.000 A 
ATOM     34  C   UNL     1       2.056   3.953  21.272  0.00  0.00    +0.000 A 
ATOM     35  C   UNL     1       2.361   4.863  20.265  0.00  0.00    +0.000 A 
ENDBRANCH  29  30
ENDBRANCH   1  29
TORSDOF 12
ENDMDL
MODEL 2
REMARK VINA RESULT:      -7.9      3.469      6.827
REMARK  Name = 
REMARK  15 active torsions:
REMARK  status: ('A' for Active; 'I' for Inactive)
REMARK    1  A    between atoms: C_1  and  C_2
REMARK    2  A    between atoms: C_2  and  C_3
REMARK    3  A    between atoms: C_2  and  C_4
REMARK    4  A    between atoms: C_4  and  N_5
REMARK    5  A    between atoms: C_4  and  C_6
REMARK    6  A    between atoms: N_8  and  C_9
REMARK    7  A    between atoms: C_9  and  C_10
REMARK    8  A    between atoms: C_9  and  C_17
REMARK    9  A    between atoms: C_10  and  C_11
REMARK   10  A    between atoms: N_19  and  C_20
REMARK   11  A    between atoms: C_20  and  C_21
REMARK   12  A    between atoms: C_20  and  C_22
REMARK   13  A    between atoms: C_22  and  O_24
REMARK   14  A    between atoms: O_24  and  C_25
REMARK   15  A    between atoms: C_25  and  C_26
REMARK                            x       y       z     vdW  Elec       q    Type
REMARK                         _______ _______ _______ _____ _____    ______ ____
ROOT
ATOM      1  C   UNL     1       4.390   4.376  16.922  0.00  0.00    +0.000 C 
ENDROOT
BRANCH   1   4
ATOM      2  C   UNL     1       5.522   5.363  14.913  0.00  0.00    +0.000 C 
ATOM      3  O   UNL     1       5.113   6.502  15.142  0.00  0.00    +0.000 OA
ATOM      4  N   UNL     1       5.270   4.293  15.741  0.00  0.00    +0.000 N 
ATOM      5  H   UNL     1       5.662   3.381  15.522  0.00  0.00    +0.000 HD
BRANCH   2   6
ATOM      6  C   UNL     1       6.393   5.047  13.675  0.00  0.00    +0.000 C 
BRANCH   6   8
ATOM      7  C   UNL     1       6.979   3.135  12.067  0.00  0.00    +0.000 C 
ATOM      8  C   UNL     1       5.981   3.675  13.100  0.00  0.00    +0.000 C 
ATOM      9  C   UNL     1       4.577   3.708  12.493  0.00  0.00    +0.000 C 
ENDBRANCH   6   8
BRANCH   6  10
ATOM     10  N   UNL     1       7.825   5.119  14.039  0.00  0.00    +0.000 NA
ATOM     11  H   UNL     1       8.354   4.660  13.291  0.00  0.00    +0.000 HD
ATOM     12  H   UNL     1       7.980   4.508  14.844  0.00  0.00    +0.000 HD
ENDBRANCH   6  10
ENDBRANCH   2   6
ENDBRANCH   1   4
BRANCH   1  13
ATOM     13  C   UNL     1       5.055   5.286  18.002  0.00  0.00    +0.000 C 
ATOM     14  O   UNL     1       4.393   5.788  18.914  0.00  0.00    +0.000 OA
ATOM     15  N   UNL     1       6.409   5.503  17.874  0.00  0.00    +0.000 N 
ATOM     16  H   UNL     1       6.898   5.221  17.034  0.00  0.00    +0.000 HD
BRANCH  15  17
ATOM     17  C   UNL     1       7.166   6.447  18.699  0.00  0.00    +0.000 C 
ATOM     18  C   UNL     1       8.083   5.661  19.621  0.00  0.00    +0.000 C 
BRANCH  17  19
ATOM     19  C   UNL     1       8.013   7.419  17.847  0.00  0.00    +0.000 C 
ATOM     20  O   UNL     1       8.107   7.352  16.627  0.00  0.00    +0.000 OA
BRANCH  19  21
ATOM     21  O   UNL     1       8.612   8.367  18.623  0.00  0.00    +0.000 OA
BRANCH  21  22
ATOM     22  C   UNL     1       8.293   9.739  18.330  0.00  0.00    +0.000 C 
BRANCH  22  23
ATOM     23  C   UNL     1       9.412  10.592  18.871  0.00  0.00    +0.000 A 
ATOM     24  C   UNL     1      10.507  10.940  18.066  0.00  0.00    +0.000 A 
ATOM     25  C   UNL     1      11.574  11.665  18.600  0.00  0.00    +0.000 A 
ATOM     26  C   UNL     1      11.558  12.048  19.940  0.00  0.00    +0.000 A 
ATOM     27  C   UNL     1      10.469  11.721  20.745  0.00  0.00    +0.000 A 
ATOM     28  C   UNL     1       9.401  10.996  20.214  0.00  0.00    +0.000 A 
ENDBRANCH  22  23
ENDBRANCH  21  22
ENDBRANCH  19  21
ENDBRANCH  17  19
ENDBRANCH  15  17
ENDBRANCH   1  13
BRANCH   1  29
ATOM     29  C   UNL     1       4.036   2.980  17.481  0.00  0.00    +0.000 C 
BRANCH  29  30
ATOM     30  C   UNL     1       2.998   2.946  18.589  0.00  0.00    +0.000 A 
ATOM     31  C   UNL     1       1.650   3.311  18.407  0.00  0.00    +0.000 A 
ATOM     32  C   UNL     1       0.763   3.370  19.466  0.00  0.00    +0.000 A 
ATOM     33  C   UNL     1       1.201   3.040  20.745  0.00  0.00    +0.000 A 
ATOM     34  C   UNL     1       2.514   2.630  20.943  0.00  0.00    +0.000 A 
ATOM     35  C   UNL     1       3.407   2.576  19.877  0.00  0.00    +0.000 A 
ENDBRANCH  29  30
ENDBRANCH   1  29
TORSDOF 12
ENDMDL
MODEL 3
REMARK VINA RESULT:      -7.5      1.463      1.906
REMARK  Name = 
REMARK  15 active torsions:
REMARK  status: ('A' for Active; 'I' for Inactive)
REMARK    1  A    between atoms: C_1  and  C_2
REMARK    2  A    between atoms: C_2  and  C_3
REMARK    3  A    between atoms: C_2  and  C_4
REMARK    4  A    between atoms: C_4  and  N_5
REMARK    5  A    between atoms: C_4  and  C_6
REMARK    6  A    between atoms: N_8  and  C_9
REMARK    7  A    between atoms: C_9  and  C_10
REMARK    8  A    between atoms: C_9  and  C_17
REMARK    9  A    between atoms: C_10  and  C_11
REMARK   10  A    between atoms: N_19  and  C_20
REMARK   11  A    between atoms: C_20  and  C_21
REMARK   12  A    between atoms: C_20  and  C_22
REMARK   13  A    between atoms: C_22  and  O_24
REMARK   14  A    between atoms: O_24  and  C_25
REMARK   15  A    between atoms: C_25  and  C_26
REMARK                            x       y       z     vdW  Elec       q    Type
REMARK                         _______ _______ _______ _____ _____    ______ ____
ROOT
ATOM      1  C   UNL     1       2.875   6.704  19.440  0.00  0.00    +0.000 C 
ENDROOT
BRANCH   1   4
ATOM      2  C   UNL     1       1.403   8.379  20.590  0.00  0.00    +0.000 C 
ATOM      3  O   UNL     1       1.388   7.757  21.653  0.00  0.00    +0.000 OA
ATOM      4  N   UNL     1       2.131   7.978  19.493  0.00  0.00    +0.000 N 
ATOM      5  H   UNL     1       2.135   8.548  18.653  0.00  0.00    +0.000 HD
BRANCH   2   6
ATOM      6  C   UNL     1       0.618   9.699  20.412  0.00  0.00    +0.000 C 
BRANCH   6   8
ATOM      7  C   UNL     1       1.458  11.515  18.806  0.00  0.00    +0.000 C 
ATOM      8  C   UNL     1       0.737  10.168  18.946  0.00  0.00    +0.000 C 
ATOM      9  C   UNL     1      -0.627  10.238  18.256  0.00  0.00    +0.000 C 
ENDBRANCH   6   8
BRANCH   6  10
ATOM     10  N   UNL     1       1.101  10.704  21.385  0.00  0.00    +0.000 NA
ATOM     11  H   UNL     1       1.999  10.370  21.748  0.00  0.00    +0.000 HD
ATOM     12  H   UNL     1       0.491  10.672  22.204  0.00  0.00    +0.000 HD
ENDBRANCH   6  10
ENDBRANCH   2   6
ENDBRANCH   1   4
BRANCH   1  13
ATOM     13  C   UNL     1       3.857   6.726  18.227  0.00  0.00    +0.000 C 
ATOM     14  O   UNL     1       3.501   7.145  17.122  0.00  0.00    +0.000 OA
ATOM     15  N   UNL     1       5.128   6.246  18.454  0.00  0.00    +0.000 N 
ATOM     16  H   UNL     1       5.346   5.758  19.313  0.00  0.00    +0.000 HD
BRANCH  15  17
ATOM     17  C   UNL     1       6.126   6.049  17.402  0.00  0.00    +0.000 C 
ATOM     18  C   UNL     1       7.163   7.157  17.501  0.00  0.00    +0.000 C 
BRANCH  17  19
ATOM     19  C   UNL     1       6.834   4.679  17.517  0.00  0.00    +0.000 C 
ATOM     20  O   UNL     1       7.655   4.407  18.384  0.00  0.00    +0.000 OA
BRANCH  19  21
ATOM     21  O   UNL     1       6.404   3.816  16.553  0.00  0.00    +0.000 OA
BRANCH  21  22
ATOM     22  C   UNL     1       5.416   4.313  15.633  0.00  0.00    +0.000 C 
BRANCH  22  23
ATOM     23  C   UNL     1       6.023   4.283  14.253  0.00  0.00    +0.000 A 
ATOM     24  C   UNL     1       5.526   3.420  13.267  0.00  0.00    +0.000 A 
ATOM     25  C   UNL     1       6.145   3.345  12.017  0.00  0.00    +0.000 A 
ATOM     26  C   UNL     1       7.264   4.130  11.742  0.00  0.00    +0.000 A 
ATOM     27  C   UNL     1       7.756   5.003  12.710  0.00  0.00    +0.000 A 
ATOM     28  C   UNL     1       7.140   5.079  13.960  0.00  0.00    +0.000 A 
ENDBRANCH  22  23
ENDBRANCH  21  22
ENDBRANCH  19  21
ENDBRANCH  17  19
ENDBRANCH  15  17
ENDBRANCH   1  13
BRANCH   1  29
ATOM     29  C   UNL     1       1.930   5.482  19.396  0.00  0.00    +0.000 C 
BRANCH  29  30
ATOM     30  C   UNL     1       2.547   4.175  18.933  0.00  0.00    +0.000 A 
ATOM     31  C   UNL     1       2.222   3.547  17.714  0.00  0.00    +0.000 A 
ATOM     32  C   UNL     1       2.725   2.303  17.380  0.00  0.00    +0.000 A 
ATOM     33  C   UNL     1       3.592   1.658  18.256  0.00  0.00    +0.000 A 
ATOM     34  C   UNL     1       3.965   2.277  19.443  0.00  0.00    +0.000 A 
ATOM     35  C   UNL     1       3.455   3.527  19.780  0.00  0.00    +0.000 A 
ENDBRANCH  29  30
ENDBRANCH   1  29
TORSDOF 12
ENDMDL
MODEL 4
REMARK VINA RESULT:      -7.4      2.540      9.344
REMARK  Name = 
REMARK  15 active torsions:
REMARK  status: ('A' for Active; 'I' for Inactive)
REMARK    1  A    between atoms: C_1  and  C_2
REMARK    2  A    between atoms: C_2  and  C_3
REMARK    3  A    between atoms: C_2  and  C_4
REMARK    4  A    between atoms: C_4  and  N_5
REMARK    5  A    between atoms: C_4  and  C_6
REMARK    6  A    between atoms: N_8  and  C_9
REMARK    7  A    between atoms: C_9  and  C_10
REMARK    8  A    between atoms: C_9  and  C_17
REMARK    9  A    between atoms: C_10  and  C_11
REMARK   10  A    between atoms: N_19  and  C_20
REMARK   11  A    between atoms: C_20  and  C_21
REMARK   12  A    between atoms: C_20  and  C_22
REMARK   13  A    between atoms: C_22  and  O_24
REMARK   14  A    between atoms: O_24  and  C_25
REMARK   15  A    between atoms: C_25  and  C_26
REMARK                            x       y       z     vdW  Elec       q    Type
REMARK                         _______ _______ _______ _____ _____    ______ ____
ROOT
ATOM      1  C   UNL     1       2.707   7.253  18.290  0.00  0.00    +0.000 C 
ENDROOT
BRANCH   1   4
ATOM      2  C   UNL     1       4.806   6.376  17.232  0.00  0.00    +0.000 C 
ATOM      3  O   UNL     1       4.256   5.371  16.783  0.00  0.00    +0.000 OA
ATOM      4  N   UNL     1       4.132   7.359  17.920  0.00  0.00    +0.000 N 
ATOM      5  H   UNL     1       4.630   8.186  18.238  0.00  0.00    +0.000 HD
BRANCH   2   6
ATOM      6  C   UNL     1       6.317   6.635  17.026  0.00  0.00    +0.000 C 
BRANCH   6   8
ATOM      7  C   UNL     1       7.594   4.432  17.344  0.00  0.00    +0.000 C 
ATOM      8  C   UNL     1       7.122   5.741  17.993  0.00  0.00    +0.000 C 
ATOM      9  C   UNL     1       6.340   5.431  19.270  0.00  0.00    +0.000 C 
ENDBRANCH   6   8
BRANCH   6  10
ATOM     10  N   UNL     1       6.604   8.077  17.193  0.00  0.00    +0.000 NA
ATOM     11  H   UNL     1       6.888   8.439  16.277  0.00  0.00    +0.000 HD
ATOM     12  H   UNL     1       7.452   8.170  17.755  0.00  0.00    +0.000 HD
ENDBRANCH   6  10
ENDBRANCH   2   6
ENDBRANCH   1   4
BRANCH   1  13
ATOM     13  C   UNL     1       2.038   8.660  18.189  0.00  0.00    +0.000 C 
ATOM     14  O   UNL     1       2.260   9.408  17.233  0.00  0.00    +0.000 OA
ATOM     15  N   UNL     1       1.202   9.020  19.223  0.00  0.00    +0.000 N 
ATOM     16  H   UNL     1       1.164   8.467  20.069  0.00  0.00    +0.000 HD
BRANCH  15  17
ATOM     17  C   UNL     1       0.614  10.352  19.371  0.00  0.00    +0.000 C 
ATOM     18  C   UNL     1      -0.792  10.332  18.794  0.00  0.00    +0.000 C 
BRANCH  17  19
ATOM     19  C   UNL     1       0.551  10.802  20.849  0.00  0.00    +0.000 C 
ATOM     20  O   UNL     1       1.513  11.238  21.470  0.00  0.00    +0.000 OA
BRANCH  19  21
ATOM     21  O   UNL     1      -0.710  10.677  21.352  0.00  0.00    +0.000 OA
BRANCH  21  22
ATOM     22  C   UNL     1      -0.850  10.782  22.780  0.00  0.00    +0.000 C 
BRANCH  22  23
ATOM     23  C   UNL     1      -1.599  12.057  23.071  0.00  0.00    +0.000 A 
ATOM     24  C   UNL     1      -2.976  12.038  23.339  0.00  0.00    +0.000 A 
ATOM     25  C   UNL     1      -3.674  13.232  23.532  0.00  0.00    +0.000 A 
ATOM     26  C   UNL     1      -3.005  14.453  23.458  0.00  0.00    +0.000 A 
ATOM     27  C   UNL     1      -1.634  14.482  23.208  0.00  0.00    +0.000 A 
ATOM     28  C   UNL     1      -0.934  13.290  23.015  0.00  0.00    +0.000 A 
ENDBRANCH  22  23
ENDBRANCH  21  22
ENDBRANCH  19  21
ENDBRANCH  17  19
ENDBRANCH  15  17
ENDBRANCH   1  13
BRANCH   1  29
ATOM     29  C   UNL     1       2.516   6.622  19.687  0.00  0.00    +0.000 C 
BRANCH  29  30
ATOM     30  C   UNL     1       2.044   5.179  19.711  0.00  0.00    +0.000 A 
ATOM     31  C   UNL     1       1.697   4.452  18.556  0.00  0.00    +0.000 A 
ATOM     32  C   UNL     1       1.168   3.176  18.631  0.00  0.00    +0.000 A 
ATOM     33  C   UNL     1       0.990   2.581  19.875  0.00  0.00    +0.000 A 
ATOM     34  C   UNL     1       1.369   3.260  21.028  0.00  0.00    +0.000 A 
ATOM     35  C   UNL     1       1.897   4.544  20.952  0.00  0.00    +0.000 A 
ENDBRANCH  29  30
ENDBRANCH   1  29
TORSDOF 12
ENDMDL
MODEL 5
REMARK VINA RESULT:      -7.4      2.518      8.396
REMARK  Name = 
REMARK  15 active torsions:
REMARK  status: ('A' for Active; 'I' for Inactive)
REMARK    1  A    between atoms: C_1  and  C_2
REMARK    2  A    between atoms: C_2  and  C_3
REMARK    3  A    between atoms: C_2  and  C_4
REMARK    4  A    between atoms: C_4  and  N_5
REMARK    5  A    between atoms: C_4  and  C_6
REMARK    6  A    between atoms: N_8  and  C_9
REMARK    7  A    between atoms: C_9  and  C_10
REMARK    8  A    between atoms: C_9  and  C_17
REMARK    9  A    between atoms: C_10  and  C_11
REMARK   10  A    between atoms: N_19  and  C_20
REMARK   11  A    between atoms: C_20  and  C_21
REMARK   12  A    between atoms: C_20  and  C_22
REMARK   13  A    between atoms: C_22  and  O_24
REMARK   14  A    between atoms: O_24  and  C_25
REMARK   15  A    between atoms: C_25  and  C_26
REMARK                            x       y       z     vdW  Elec       q    Type
REMARK                         _______ _______ _______ _____ _____    ______ ____
ROOT
ATOM      1  C   UNL     1       2.739   6.805  18.435  0.00  0.00    +0.000 C 
ENDROOT
BRANCH   1   4
ATOM      2  C   UNL     1       4.648   5.648  17.288  0.00  0.00    +0.000 C 
ATOM      3  O   UNL     1       3.946   4.724  16.877  0.00  0.00    +0.000 OA
ATOM      4  N   UNL     1       4.146   6.717  17.997  0.00  0.00    +0.000 N 
ATOM      5  H   UNL     1       4.765   7.470  18.281  0.00  0.00    +0.000 HD
BRANCH   2   6
ATOM      6  C   UNL     1       6.168   5.700  17.008  0.00  0.00    +0.000 C 
BRANCH   6   8
ATOM      7  C   UNL     1       7.651   7.747  17.448  0.00  0.00    +0.000 C 
ATOM      8  C   UNL     1       6.850   6.594  18.066  0.00  0.00    +0.000 C 
ATOM      9  C   UNL     1       7.748   5.785  19.004  0.00  0.00    +0.000 C 
ENDBRANCH   6   8
BRANCH   6  10
ATOM     10  N   UNL     1       6.406   6.156  15.620  0.00  0.00    +0.000 NA
ATOM     11  H   UNL     1       5.490   6.335  15.197  0.00  0.00    +0.000 HD
ATOM     12  H   UNL     1       6.763   5.364  15.082  0.00  0.00    +0.000 HD
ENDBRANCH   6  10
ENDBRANCH   2   6
ENDBRANCH   1   4
BRANCH   1  13
ATOM     13  C   UNL     1       2.227   8.267  18.243  0.00  0.00    +0.000 C 
ATOM     14  O   UNL     1       2.530   8.927  17.245  0.00  0.00    +0.000 OA
ATOM     15  N   UNL     1       1.433   8.779  19.246  0.00  0.00    +0.000 N 
ATOM     16  H   UNL     1       1.335   8.286  20.124  0.00  0.00    +0.000 HD
BRANCH  15  17
ATOM     17  C   UNL     1       0.994  10.173  19.308  0.00  0.00    +0.000 C 
ATOM     18  C   UNL     1      -0.255  10.329  18.456  0.00  0.00    +0.000 C 
BRANCH  17  19
ATOM     19  C   UNL     1       0.682  10.624  20.754  0.00  0.00    +0.000 C 
ATOM     20  O   UNL     1       1.334  10.277  21.731  0.00  0.00    +0.000 OA
BRANCH  19  21
ATOM     21  O   UNL     1      -0.386  11.471  20.790  0.00  0.00    +0.000 OA
BRANCH  21  22
ATOM     22  C   UNL     1      -0.213  12.700  21.519  0.00  0.00    +0.000 C 
BRANCH  22  23
ATOM     23  C   UNL     1       0.286  13.739  20.547  0.00  0.00    +0.000 A 
ATOM     24  C   UNL     1       1.609  14.199  20.601  0.00  0.00    +0.000 A 
ATOM     25  C   UNL     1       2.038  15.217  19.746  0.00  0.00    +0.000 A 
ATOM     26  C   UNL     1       1.151  15.783  18.832  0.00  0.00    +0.000 A 
ATOM     27  C   UNL     1      -0.161  15.321  18.759  0.00  0.00    +0.000 A 
ATOM     28  C   UNL     1      -0.593  14.305  19.613  0.00  0.00    +0.000 A 
ENDBRANCH  22  23
ENDBRANCH  21  22
ENDBRANCH  19  21
ENDBRANCH  17  19
ENDBRANCH  15  17
ENDBRANCH   1  13
BRANCH   1  29
ATOM     29  C   UNL     1       2.552   6.314  19.887  0.00  0.00    +0.000 C 
BRANCH  29  30
ATOM     30  C   UNL     1       2.104   4.873  20.054  0.00  0.00    +0.000 A 
ATOM     31  C   UNL     1       1.502   4.119  19.027  0.00  0.00    +0.000 A 
ATOM     32  C   UNL     1       1.009   2.846  19.253  0.00  0.00    +0.000 A 
ATOM     33  C   UNL     1       1.127   2.281  20.518  0.00  0.00    +0.000 A 
ATOM     34  C   UNL     1       1.760   2.986  21.536  0.00  0.00    +0.000 A 
ATOM     35  C   UNL     1       2.251   4.268  21.309  0.00  0.00    +0.000 A 
ENDBRANCH  29  30
ENDBRANCH   1  29
TORSDOF 12
ENDMDL
MODEL 6
REMARK VINA RESULT:      -7.4      2.172      8.578
REMARK  Name = 
REMARK  15 active torsions:
REMARK  status: ('A' for Active; 'I' for Inactive)
REMARK    1  A    between atoms: C_1  and  C_2
REMARK    2  A    between atoms: C_2  and  C_3
REMARK    3  A    between atoms: C_2  and  C_4
REMARK    4  A    between atoms: C_4  and  N_5
REMARK    5  A    between atoms: C_4  and  C_6
REMARK    6  A    between atoms: N_8  and  C_9
REMARK    7  A    between atoms: C_9  and  C_10
REMARK    8  A    between atoms: C_9  and  C_17
REMARK    9  A    between atoms: C_10  and  C_11
REMARK   10  A    between atoms: N_19  and  C_20
REMARK   11  A    between atoms: C_20  and  C_21
REMARK   12  A    between atoms: C_20  and  C_22
REMARK   13  A    between atoms: C_22  and  O_24
REMARK   14  A    between atoms: O_24  and  C_25
REMARK   15  A    between atoms: C_25  and  C_26
REMARK                            x       y       z     vdW  Elec       q    Type
REMARK                         _______ _______ _______ _____ _____    ______ ____
ROOT
ATOM      1  C   UNL     1       5.320   4.637  16.870  0.00  0.00    +0.000 C 
ENDROOT
BRANCH   1   4
ATOM      2  C   UNL     1       3.724   3.060  17.992  0.00  0.00    +0.000 C 
ATOM      3  O   UNL     1       2.842   3.225  17.150  0.00  0.00    +0.000 OA
ATOM      4  N   UNL     1       4.963   3.654  17.911  0.00  0.00    +0.000 N 
ATOM      5  H   UNL     1       5.667   3.454  18.616  0.00  0.00    +0.000 HD
BRANCH   2   6
ATOM      6  C   UNL     1       3.518   2.132  19.212  0.00  0.00    +0.000 C 
BRANCH   6   8
ATOM      7  C   UNL     1       2.707   2.455  21.625  0.00  0.00    +0.000 C 
ATOM      8  C   UNL     1       2.445   2.741  20.140  0.00  0.00    +0.000 C 
ATOM      9  C   UNL     1       1.036   2.277  19.765  0.00  0.00    +0.000 C 
ENDBRANCH   6   8
BRANCH   6  10
ATOM     10  N   UNL     1       4.813   1.904  19.891  0.00  0.00    +0.000 NA
ATOM     11  H   UNL     1       5.259   1.101  19.437  0.00  0.00    +0.000 HD
ATOM     12  H   UNL     1       4.621   1.562  20.835  0.00  0.00    +0.000 HD
ENDBRANCH   6  10
ENDBRANCH   2   6
ENDBRANCH   1   4
BRANCH   1  13
ATOM     13  C   UNL     1       4.917   6.067  17.347  0.00  0.00    +0.000 C 
ATOM     14  O   UNL     1       5.719   7.005  17.313  0.00  0.00    +0.000 OA
ATOM     15  N   UNL     1       3.630   6.221  17.814  0.00  0.00    +0.000 N 
ATOM     16  H   UNL     1       3.047   5.412  17.988  0.00  0.00    +0.000 HD
BRANCH  15  17
ATOM     17  C   UNL     1       3.130   7.445  18.442  0.00  0.00    +0.000 C 
ATOM     18  C   UNL     1       2.276   8.196  17.433  0.00  0.00    +0.000 C 
BRANCH  17  19
ATOM     19  C   UNL     1       2.287   7.152  19.705  0.00  0.00    +0.000 C 
ATOM     20  O   UNL     1       2.199   6.046  20.223  0.00  0.00    +0.000 OA
BRANCH  19  21
ATOM     21  O   UNL     1       1.685   8.283  20.172  0.00  0.00    +0.000 OA
BRANCH  21  22
ATOM     22  C   UNL     1       1.197   8.244  21.525  0.00  0.00    +0.000 C 
BRANCH  22  23
ATOM     23  C   UNL     1       0.439   9.523  21.773  0.00  0.00    +0.000 A 
ATOM     24  C   UNL     1       0.673  10.662  20.989  0.00  0.00    +0.000 A 
ATOM     25  C   UNL     1       0.021  11.863  21.276  0.00  0.00    +0.000 A 
ATOM     26  C   UNL     1      -0.867  11.938  22.348  0.00  0.00    +0.000 A 
ATOM     27  C   UNL     1      -1.118  10.808  23.123  0.00  0.00    +0.000 A 
ATOM     28  C   UNL     1      -0.468   9.606  22.838  0.00  0.00    +0.000 A 
ENDBRANCH  22  23
ENDBRANCH  21  22
ENDBRANCH  19  21
ENDBRANCH  17  19
ENDBRANCH  15  17
ENDBRANCH   1  13
BRANCH   1  29
ATOM     29  C   UNL     1       4.694   4.286  15.502  0.00  0.00    +0.000 C 
BRANCH  29  30
ATOM     30  C   UNL     1       5.629   4.329  14.307  0.00  0.00    +0.000 A 
ATOM     31  C   UNL     1       5.402   3.617  13.112  0.00  0.00    +0.000 A 
ATOM     32  C   UNL     1       6.333   3.597  12.090  0.00  0.00    +0.000 A 
ATOM     33  C   UNL     1       7.517   4.313  12.228  0.00  0.00    +0.000 A 
ATOM     34  C   UNL     1       7.744   5.062  13.378  0.00  0.00    +0.000 A 
ATOM     35  C   UNL     1       6.809   5.078  14.407  0.00  0.00    +0.000 A 
ENDBRANCH  29  30
ENDBRANCH   1  29
TORSDOF 12
ENDMDL
MODEL 7
REMARK VINA RESULT:      -7.3      2.452      7.639
REMARK  Name = 
REMARK  15 active torsions:
REMARK  status: ('A' for Active; 'I' for Inactive)
REMARK    1  A    between atoms: C_1  and  C_2
REMARK    2  A    between atoms: C_2  and  C_3
REMARK    3  A    between atoms: C_2  and  C_4
REMARK    4  A    between atoms: C_4  and  N_5
REMARK    5  A    between atoms: C_4  and  C_6
REMARK    6  A    between atoms: N_8  and  C_9
REMARK    7  A    between atoms: C_9  and  C_10
REMARK    8  A    between atoms: C_9  and  C_17
REMARK    9  A    between atoms: C_10  and  C_11
REMARK   10  A    between atoms: N_19  and  C_20
REMARK   11  A    between atoms: C_20  and  C_21
REMARK   12  A    between atoms: C_20  and  C_22
REMARK   13  A    between atoms: C_22  and  O_24
REMARK   14  A    between atoms: O_24  and  C_25
REMARK   15  A    between atoms: C_25  and  C_26
REMARK                            x       y       z     vdW  Elec       q    Type
REMARK                         _______ _______ _______ _____ _____    ______ ____
ROOT
ATOM      1  C   UNL     1       3.409   3.580  17.070  0.00  0.00    +0.000 C 
ENDROOT
BRANCH   1   4
ATOM      2  C   UNL     1       5.563   4.430  16.104  0.00  0.00    +0.000 C 
ATOM      3  O   UNL     1       5.167   4.349  14.941  0.00  0.00    +0.000 OA
ATOM      4  N   UNL     1       4.771   4.135  17.191  0.00  0.00    +0.000 N 
ATOM      5  H   UNL     1       5.138   4.254  18.130  0.00  0.00    +0.000 HD
BRANCH   2   6
ATOM      6  C   UNL     1       6.993   4.911  16.442  0.00  0.00    +0.000 C 
BRANCH   6   8
ATOM      7  C   UNL     1       7.297   7.317  17.282  0.00  0.00    +0.000 C 
ATOM      8  C   UNL     1       6.934   5.872  17.649  0.00  0.00    +0.000 C 
ATOM      9  C   UNL     1       7.820   5.394  18.802  0.00  0.00    +0.000 C 
ENDBRANCH   6   8
BRANCH   6  10
ATOM     10  N   UNL     1       7.613   5.520  15.244  0.00  0.00    +0.000 NA
ATOM     11  H   UNL     1       6.946   6.202  14.869  0.00  0.00    +0.000 HD
ATOM     12  H   UNL     1       7.657   4.808  14.512  0.00  0.00    +0.000 HD
ENDBRANCH   6  10
ENDBRANCH   2   6
ENDBRANCH   1   4
BRANCH   1  13
ATOM     13  C   UNL     1       2.370   4.650  17.531  0.00  0.00    +0.000 C 
ATOM     14  O   UNL     1       1.181   4.570  17.210  0.00  0.00    +0.000 OA
ATOM     15  N   UNL     1       2.853   5.686  18.300  0.00  0.00    +0.000 N 
ATOM     16  H   UNL     1       3.849   5.822  18.411  0.00  0.00    +0.000 HD
BRANCH  15  17
ATOM     17  C   UNL     1       2.059   6.853  18.689  0.00  0.00    +0.000 C 
ATOM     18  C   UNL     1       2.161   7.031  20.195  0.00  0.00    +0.000 C 
BRANCH  17  19
ATOM     19  C   UNL     1       2.539   8.146  17.990  0.00  0.00    +0.000 C 
ATOM     20  O   UNL     1       3.348   8.163  17.071  0.00  0.00    +0.000 OA
BRANCH  19  21
ATOM     21  O   UNL     1       1.926   9.248  18.510  0.00  0.00    +0.000 OA
BRANCH  21  22
ATOM     22  C   UNL     1       0.635   9.584  17.973  0.00  0.00    +0.000 C 
BRANCH  22  23
ATOM     23  C   UNL     1      -0.096  10.390  19.016  0.00  0.00    +0.000 A 
ATOM     24  C   UNL     1      -0.805  11.548  18.666  0.00  0.00    +0.000 A 
ATOM     25  C   UNL     1      -1.414  12.328  19.651  0.00  0.00    +0.000 A 
ATOM     26  C   UNL     1      -1.320  11.960  20.992  0.00  0.00    +0.000 A 
ATOM     27  C   UNL     1      -0.632  10.803  21.349  0.00  0.00    +0.000 A 
ATOM     28  C   UNL     1      -0.021  10.021  20.367  0.00  0.00    +0.000 A 
ENDBRANCH  22  23
ENDBRANCH  21  22
ENDBRANCH  19  21
ENDBRANCH  17  19
ENDBRANCH  15  17
ENDBRANCH   1  13
BRANCH   1  29
ATOM     29  C   UNL     1       3.253   2.253  17.844  0.00  0.00    +0.000 C 
BRANCH  29  30
ATOM     30  C   UNL     1       2.638   2.353  19.229  0.00  0.00    +0.000 A 
ATOM     31  C   UNL     1       1.250   2.341  19.469  0.00  0.00    +0.000 A 
ATOM     32  C   UNL     1       0.730   2.545  20.734  0.00  0.00    +0.000 A 
ATOM     33  C   UNL     1       1.594   2.745  21.806  0.00  0.00    +0.000 A 
ATOM     34  C   UNL     1       2.969   2.714  21.602  0.00  0.00    +0.000 A 
ATOM     35  C   UNL     1       3.491   2.514  20.329  0.00  0.00    +0.000 A 
ENDBRANCH  29  30
ENDBRANCH   1  29
TORSDOF 12
ENDMDL
MODEL 8
REMARK VINA RESULT:      -7.3      2.351      8.582
REMARK  Name = 
REMARK  15 active torsions:
REMARK  status: ('A' for Active; 'I' for Inactive)
REMARK    1  A    between atoms: C_1  and  C_2
REMARK    2  A    between atoms: C_2  and  C_3
REMARK    3  A    between atoms: C_2  and  C_4
REMARK    4  A    between atoms: C_4  and  N_5
REMARK    5  A    between atoms: C_4  and  C_6
REMARK    6  A    between atoms: N_8  and  C_9
REMARK    7  A    between atoms: C_9  and  C_10
REMARK    8  A    between atoms: C_9  and  C_17
REMARK    9  A    between atoms: C_10  and  C_11
REMARK   10  A    between atoms: N_19  and  C_20
REMARK   11  A    between atoms: C_20  and  C_21
REMARK   12  A    between atoms: C_20  and  C_22
REMARK   13  A    between atoms: C_22  and  O_24
REMARK   14  A    between atoms: O_24  and  C_25
REMARK   15  A    between atoms: C_25  and  C_26
REMARK                            x       y       z     vdW  Elec       q    Type
REMARK                         _______ _______ _______ _____ _____    ______ ____
ROOT
ATOM      1  C   UNL     1       2.579   7.098  18.312  0.00  0.00    +0.000 C 
ENDROOT
BRANCH   1   4
ATOM      2  C   UNL     1       4.401   5.999  16.982  0.00  0.00    +0.000 C 
ATOM      3  O   UNL     1       3.816   4.918  16.922  0.00  0.00    +0.000 OA
ATOM      4  N   UNL     1       3.861   7.115  17.581  0.00  0.00    +0.000 N 
ATOM      5  H   UNL     1       4.374   7.992  17.571  0.00  0.00    +0.000 HD
BRANCH   2   6
ATOM      6  C   UNL     1       5.798   6.203  16.351  0.00  0.00    +0.000 C 
BRANCH   6   8
ATOM      7  C   UNL     1       7.558   4.586  17.286  0.00  0.00    +0.000 C 
ATOM      8  C   UNL     1       6.496   4.833  16.207  0.00  0.00    +0.000 C 
ATOM      9  C   UNL     1       7.117   4.653  14.820  0.00  0.00    +0.000 C 
ENDBRANCH   6   8
BRANCH   6  10
ATOM     10  N   UNL     1       6.576   7.169  17.159  0.00  0.00    +0.000 NA
ATOM     11  H   UNL     1       6.007   7.412  17.975  0.00  0.00    +0.000 HD
ATOM     12  H   UNL     1       6.628   8.048  16.639  0.00  0.00    +0.000 HD
ENDBRANCH   6  10
ENDBRANCH   2   6
ENDBRANCH   1   4
BRANCH   1  13
ATOM     13  C   UNL     1       1.949   8.525  18.288  0.00  0.00    +0.000 C 
ATOM     14  O   UNL     1       2.111   9.282  17.327  0.00  0.00    +0.000 OA
ATOM     15  N   UNL     1       1.217   8.894  19.396  0.00  0.00    +0.000 N 
ATOM     16  H   UNL     1       1.236   8.329  20.235  0.00  0.00    +0.000 HD
BRANCH  15  17
ATOM     17  C   UNL     1       0.688  10.242  19.613  0.00  0.00    +0.000 C 
ATOM     18  C   UNL     1      -0.649  10.360  18.898  0.00  0.00    +0.000 C 
BRANCH  17  19
ATOM     19  C   UNL     1       0.492  10.558  21.114  0.00  0.00    +0.000 C 
ATOM     20  O   UNL     1       1.243  10.162  21.997  0.00  0.00    +0.000 OA
BRANCH  19  21
ATOM     21  O   UNL     1      -0.599  11.350  21.315  0.00  0.00    +0.000 OA
BRANCH  21  22
ATOM     22  C   UNL     1      -0.376  12.598  21.995  0.00  0.00    +0.000 C 
BRANCH  22  23
ATOM     23  C   UNL     1       0.165  13.577  20.984  0.00  0.00    +0.000 A 
ATOM     24  C   UNL     1       1.447  14.127  21.129  0.00  0.00    +0.000 A 
ATOM     25  C   UNL     1       1.908  15.089  20.228  0.00  0.00    +0.000 A 
ATOM     26  C   UNL     1       1.095  15.511  19.178  0.00  0.00    +0.000 A 
ATOM     27  C   UNL     1      -0.174  14.960  19.016  0.00  0.00    +0.000 A 
ATOM     28  C   UNL     1      -0.638  13.997  19.915  0.00  0.00    +0.000 A 
ENDBRANCH  22  23
ENDBRANCH  21  22
ENDBRANCH  19  21
ENDBRANCH  17  19
ENDBRANCH  15  17
ENDBRANCH   1  13
BRANCH   1  29
ATOM     29  C   UNL     1       2.739   6.560  19.751  0.00  0.00    +0.000 C 
BRANCH  29  30
ATOM     30  C   UNL     1       2.232   5.151  20.000  0.00  0.00    +0.000 A 
ATOM     31  C   UNL     1       1.506   4.403  19.052  0.00  0.00    +0.000 A 
ATOM     32  C   UNL     1       0.969   3.166  19.358  0.00  0.00    +0.000 A 
ATOM     33  C   UNL     1       1.166   2.629  20.626  0.00  0.00    +0.000 A 
ATOM     34  C   UNL     1       1.920   3.326  21.564  0.00  0.00    +0.000 A 
ATOM     35  C   UNL     1       2.455   4.572  21.256  0.00  0.00    +0.000 A 
ENDBRANCH  29  30
ENDBRANCH   1  29
TORSDOF 12
ENDMDL
MODEL 9
REMARK VINA RESULT:      -7.2      2.488      9.220
REMARK  Name = 
REMARK  15 active torsions:
REMARK  status: ('A' for Active; 'I' for Inactive)
REMARK    1  A    between atoms: C_1  and  C_2
REMARK    2  A    between atoms: C_2  and  C_3
REMARK    3  A    between atoms: C_2  and  C_4
REMARK    4  A    between atoms: C_4  and  N_5
REMARK    5  A    between atoms: C_4  and  C_6
REMARK    6  A    between atoms: N_8  and  C_9
REMARK    7  A    between atoms: C_9  and  C_10
REMARK    8  A    between atoms: C_9  and  C_17
REMARK    9  A    between atoms: C_10  and  C_11
REMARK   10  A    between atoms: N_19  and  C_20
REMARK   11  A    between atoms: C_20  and  C_21
REMARK   12  A    between atoms: C_20  and  C_22
REMARK   13  A    between atoms: C_22  and  O_24
REMARK   14  A    between atoms: O_24  and  C_25
REMARK   15  A    between atoms: C_25  and  C_26
REMARK                            x       y       z     vdW  Elec       q    Type
REMARK                         _______ _______ _______ _____ _____    ______ ____
ROOT
ATOM      1  C   UNL     1       3.244   7.367  18.081  0.00  0.00    +0.000 C 
ENDROOT
BRANCH   1   4
ATOM      2  C   UNL     1       2.192   5.413  19.253  0.00  0.00    +0.000 C 
ATOM      3  O   UNL     1       2.516   5.808  20.373  0.00  0.00    +0.000 OA
ATOM      4  N   UNL     1       2.452   6.122  18.101  0.00  0.00    +0.000 N 
ATOM      5  H   UNL     1       2.130   5.766  17.206  0.00  0.00    +0.000 HD
BRANCH   2   6
ATOM      6  C   UNL     1       1.427   4.085  19.050  0.00  0.00    +0.000 C 
BRANCH   6   8
ATOM      7  C   UNL     1       2.439   1.731  18.906  0.00  0.00    +0.000 C 
ATOM      8  C   UNL     1       2.167   2.953  19.794  0.00  0.00    +0.000 C 
ATOM      9  C   UNL     1       1.421   2.518  21.057  0.00  0.00    +0.000 C 
ENDBRANCH   6   8
BRANCH   6  10
ATOM     10  N   UNL     1       1.262   3.819  17.603  0.00  0.00    +0.000 NA
ATOM     11  H   UNL     1       0.338   3.397  17.475  0.00  0.00    +0.000 HD
ATOM     12  H   UNL     1       1.902   3.066  17.343  0.00  0.00    +0.000 HD
ENDBRANCH   6  10
ENDBRANCH   2   6
ENDBRANCH   1   4
BRANCH   1  13
ATOM     13  C   UNL     1       2.289   8.592  18.234  0.00  0.00    +0.000 C 
ATOM     14  O   UNL     1       2.207   9.454  17.355  0.00  0.00    +0.000 OA
ATOM     15  N   UNL     1       1.558   8.662  19.399  0.00  0.00    +0.000 N 
ATOM     16  H   UNL     1       1.762   8.040  20.171  0.00  0.00    +0.000 HD
BRANCH  15  17
ATOM     17  C   UNL     1       0.735   9.811  19.779  0.00  0.00    +0.000 C 
ATOM     18  C   UNL     1      -0.452   9.893  18.832  0.00  0.00    +0.000 C 
BRANCH  17  19
ATOM     19  C   UNL     1       0.220   9.706  21.233  0.00  0.00    +0.000 C 
ATOM     20  O   UNL     1      -0.363   8.726  21.680  0.00  0.00    +0.000 OA
BRANCH  19  21
ATOM     21  O   UNL     1       0.522  10.826  21.948  0.00  0.00    +0.000 OA
BRANCH  21  22
ATOM     22  C   UNL     1       0.145  12.087  21.368  0.00  0.00    +0.000 C 
BRANCH  22  23
ATOM     23  C   UNL     1      -1.287  12.356  21.755  0.00  0.00    +0.000 A 
ATOM     24  C   UNL     1      -1.725  12.166  23.073  0.00  0.00    +0.000 A 
ATOM     25  C   UNL     1      -3.070  12.344  23.403  0.00  0.00    +0.000 A 
ATOM     26  C   UNL     1      -3.988  12.714  22.421  0.00  0.00    +0.000 A 
ATOM     27  C   UNL     1      -3.560  12.921  21.111  0.00  0.00    +0.000 A 
ATOM     28  C   UNL     1      -2.216  12.743  20.779  0.00  0.00    +0.000 A 
ENDBRANCH  22  23
ENDBRANCH  21  22
ENDBRANCH  19  21
ENDBRANCH  17  19
ENDBRANCH  15  17
ENDBRANCH   1  13
BRANCH   1  29
ATOM     29  C   UNL     1       4.124   7.474  16.816  0.00  0.00    +0.000 C 
BRANCH  29  30
ATOM     30  C   UNL     1       5.260   6.473  16.704  0.00  0.00    +0.000 A 
ATOM     31  C   UNL     1       5.368   5.528  15.665  0.00  0.00    +0.000 A 
ATOM     32  C   UNL     1       6.360   4.563  15.660  0.00  0.00    +0.000 A 
ATOM     33  C   UNL     1       7.291   4.533  16.693  0.00  0.00    +0.000 A 
ATOM     34  C   UNL     1       7.234   5.485  17.704  0.00  0.00    +0.000 A 
ATOM     35  C   UNL     1       6.234   6.452  17.711  0.00  0.00    +0.000 A 
ENDBRANCH  29  30
ENDBRANCH   1  29
TORSDOF 12
ENDMDL
