MODEL 1
REMARK VINA RESULT:      -8.9      0.000      0.000
REMARK  Name = 
REMARK  6 active torsions:
REMARK  status: ('A' for Active; 'I' for Inactive)
REMARK    1  A    between atoms: C_1  and  C_2
REMARK    2  A    between atoms: C_11  and  C_12
REMARK    3  A    between atoms: C_17  and  C_18
REMARK    4  A    between atoms: C_18  and  C_19
REMARK    5  A    between atoms: C_19  and  N_20
REMARK    6  A    between atoms: C_24  and  C_25
REMARK                            x       y       z     vdW  Elec       q    Type
REMARK                         _______ _______ _______ _____ _____    ______ ____
ROOT
ATOM      1  C   UNL     1       4.419   5.760  17.563  0.00  0.00    +0.000 A 
ATOM      2  C   UNL     1       4.334   4.927  18.677  0.00  0.00    +0.000 A 
ATOM      3  C   UNL     1       3.487   5.277  19.725  0.00  0.00    +0.000 A 
ATOM      4  C   UNL     1       2.749   6.461  19.650  0.00  0.00    +0.000 A 
ATOM      5  C   UNL     1       1.869   6.858  20.668  0.00  0.00    +0.000 A 
ATOM      6  C   UNL     1       1.134   8.045  20.550  0.00  0.00    +0.000 A 
ATOM      7  C   UNL     1       1.332   8.858  19.433  0.00  0.00    +0.000 A 
ATOM      8  C   UNL     1       2.209   8.455  18.424  0.00  0.00    +0.000 A 
ATOM      9  C   UNL     1       2.904   7.259  18.505  0.00  0.00    +0.000 A 
ATOM     10  N   UNL     1       3.702   6.905  17.489  0.00  0.00    +0.000 NA
ENDROOT
BRANCH   1  21
ATOM     11  C   UNL     1       7.293   6.745  17.303  0.00  0.00    +0.000 C 
ATOM     12  C   UNL     1       6.604   5.901  16.266  0.00  0.00    +0.000 A 
ATOM     13  N   UNL     1       7.392   5.597  15.191  0.00  0.00    +0.000 NA
ATOM     14  C   UNL     1       6.916   4.858  14.198  0.00  0.00    +0.000 A 
ATOM     15  N   UNL     1       7.723   4.570  13.171  0.00  0.00    +0.000 NA
ATOM     16  C   UNL     1       7.251   3.815  12.156  0.00  0.00    +0.000 A 
ATOM     17  C   UNL     1       5.965   3.318  12.101  0.00  0.00    +0.000 A 
ATOM     18  C   UNL     1       5.118   3.614  13.157  0.00  0.00    +0.000 A 
ATOM     19  C   UNL     1       5.595   4.391  14.224  0.00  0.00    +0.000 A 
ATOM     20  C   UNL     1       4.782   4.705  15.324  0.00  0.00    +0.000 A 
ATOM     21  C   UNL     1       5.276   5.465  16.395  0.00  0.00    +0.000 A 
ENDBRANCH   1  21
BRANCH   6  22
ATOM     22  C   UNL     1       0.131   8.425  21.607  0.00  0.00    +0.000 C 
BRANCH  22  23
ATOM     23  C   UNL     1       0.373   9.835  22.165  0.00  0.00    +0.000 C 
BRANCH  23  24
ATOM     24  N   UNL     1      -0.757  10.729  21.915  0.00  0.00    +0.000 NA
ATOM     25  C   UNL     1      -1.393  11.254  23.130  0.00  0.00    +0.000 C 
ATOM     26  C   UNL     1      -1.359  12.763  23.006  0.00  0.00    +0.000 C 
ATOM     27  C   UNL     1      -1.395  12.976  21.509  0.00  0.00    +0.000 C 
ATOM     28  C   UNL     1      -0.522  11.841  20.972  0.00  0.00    +0.000 C 
ATOM     29  C   UNL     1       0.926  12.315  20.799  0.00  0.00    +0.000 C 
ENDBRANCH  23  24
ENDBRANCH  22  23
ENDBRANCH   6  22
TORSDOF 4
ENDMDL
MODEL 2
REMARK VINA RESULT:      -8.7      2.894     10.029
REMARK  Name = 
REMARK  6 active torsions:
REMARK  status: ('A' for Active; 'I' for Inactive)
REMARK    1  A    between atoms: C_1  and  C_2
REMARK    2  A    between atoms: C_11  and  C_12
REMARK    3  A    between atoms: C_17  and  C_18
REMARK    4  A    between atoms: C_18  and  C_19
REMARK    5  A    between atoms: C_19  and  N_20
REMARK    6  A    between atoms: C_24  and  C_25
REMARK                            x       y       z     vdW  Elec       q    Type
REMARK                         _______ _______ _______ _____ _____    ______ ____
ROOT
ATOM      1  C   UNL     1       0.474   9.452  20.312  0.00  0.00    +0.000 A 
ATOM      2  C   UNL     1       0.550   8.431  21.258  0.00  0.00    +0.000 A 
ATOM      3  C   UNL     1       1.400   7.353  21.028  0.00  0.00    +0.000 A 
ATOM      4  C   UNL     1       2.149   7.304  19.850  0.00  0.00    +0.000 A 
ATOM      5  C   UNL     1       3.033   6.250  19.571  0.00  0.00    +0.000 A 
ATOM      6  C   UNL     1       3.779   6.243  18.385  0.00  0.00    +0.000 A 
ATOM      7  C   UNL     1       3.589   7.269  17.458  0.00  0.00    +0.000 A 
ATOM      8  C   UNL     1       2.709   8.314  17.744  0.00  0.00    +0.000 A 
ATOM      9  C   UNL     1       2.003   8.359  18.935  0.00  0.00    +0.000 A 
ATOM     10  N   UNL     1       1.202   9.406  19.173  0.00  0.00    +0.000 NA
ENDROOT
BRANCH   1  21
ATOM     11  C   UNL     1      -1.494  10.401  18.185  0.00  0.00    +0.000 C 
ATOM     12  C   UNL     1      -1.304  11.087  19.511  0.00  0.00    +0.000 A 
ATOM     13  N   UNL     1      -2.110  12.176  19.688  0.00  0.00    +0.000 NA
ATOM     14  C   UNL     1      -2.051  12.879  20.812  0.00  0.00    +0.000 A 
ATOM     15  N   UNL     1      -2.867  13.930  20.952  0.00  0.00    +0.000 NA
ATOM     16  C   UNL     1      -2.818  14.650  22.093  0.00  0.00    +0.000 A 
ATOM     17  C   UNL     1      -1.963  14.377  23.140  0.00  0.00    +0.000 A 
ATOM     18  C   UNL     1      -1.109  13.294  23.003  0.00  0.00    +0.000 A 
ATOM     19  C   UNL     1      -1.151  12.529  21.827  0.00  0.00    +0.000 A 
ATOM     20  C   UNL     1      -0.319  11.414  21.646  0.00  0.00    +0.000 A 
ATOM     21  C   UNL     1      -0.385  10.643  20.476  0.00  0.00    +0.000 A 
ENDBRANCH   1  21
BRANCH   6  22
ATOM     22  C   UNL     1       4.786   5.152  18.128  0.00  0.00    +0.000 C 
BRANCH  22  23
ATOM     23  C   UNL     1       4.248   4.072  17.178  0.00  0.00    +0.000 C 
BRANCH  23  24
ATOM     24  N   UNL     1       3.771   2.891  17.898  0.00  0.00    +0.000 NA
ATOM     25  C   UNL     1       4.237   2.803  19.288  0.00  0.00    +0.000 C 
ATOM     26  C   UNL     1       2.992   2.690  20.143  0.00  0.00    +0.000 C 
ATOM     27  C   UNL     1       2.010   2.008  19.217  0.00  0.00    +0.000 C 
ATOM     28  C   UNL     1       2.318   2.636  17.856  0.00  0.00    +0.000 C 
ATOM     29  C   UNL     1       1.404   3.841  17.604  0.00  0.00    +0.000 C 
ENDBRANCH  23  24
ENDBRANCH  22  23
ENDBRANCH   6  22
TORSDOF 4
ENDMDL
MODEL 3
REMARK VINA RESULT:      -8.7      2.280      4.557
REMARK  Name = 
REMARK  6 active torsions:
REMARK  status: ('A' for Active; 'I' for Inactive)
REMARK    1  A    between atoms: C_1  and  C_2
REMARK    2  A    between atoms: C_11  and  C_12
REMARK    3  A    between atoms: C_17  and  C_18
REMARK    4  A    between atoms: C_18  and  C_19
REMARK    5  A    between atoms: C_19  and  N_20
REMARK    6  A    between atoms: C_24  and  C_25
REMARK                            x       y       z     vdW  Elec       q    Type
REMARK                         _______ _______ _______ _____ _____    ______ ____
ROOT
ATOM      1  C   UNL     1       1.830   8.179  19.248  0.00  0.00    +0.000 A 
ATOM      2  C   UNL     1       1.369   9.218  18.442  0.00  0.00    +0.000 A 
ATOM      3  C   UNL     1       0.584  10.219  19.006  0.00  0.00    +0.000 A 
ATOM      4  C   UNL     1       0.259  10.159  20.363  0.00  0.00    +0.000 A 
ATOM      5  C   UNL     1      -0.516  11.147  20.990  0.00  0.00    +0.000 A 
ATOM      6  C   UNL     1      -0.808  11.061  22.357  0.00  0.00    +0.000 A 
ATOM      7  C   UNL     1      -0.367   9.950  23.076  0.00  0.00    +0.000 A 
ATOM      8  C   UNL     1       0.404   8.972  22.446  0.00  0.00    +0.000 A 
ATOM      9  C   UNL     1       0.743   9.070  21.106  0.00  0.00    +0.000 A 
ATOM     10  N   UNL     1       1.518   8.122  20.563  0.00  0.00    +0.000 NA
ENDROOT
BRANCH   1  21
ATOM     11  C   UNL     1       1.907   5.404  20.512  0.00  0.00    +0.000 C 
ATOM     12  C   UNL     1       2.721   5.795  19.308  0.00  0.00    +0.000 A 
ATOM     13  N   UNL     1       3.495   4.783  18.815  0.00  0.00    +0.000 NA
ATOM     14  C   UNL     1       4.265   4.984  17.754  0.00  0.00    +0.000 A 
ATOM     15  N   UNL     1       4.998   3.964  17.292  0.00  0.00    +0.000 NA
ATOM     16  C   UNL     1       5.783   4.156  16.211  0.00  0.00    +0.000 A 
ATOM     17  C   UNL     1       5.890   5.357  15.541  0.00  0.00    +0.000 A 
ATOM     18  C   UNL     1       5.140   6.422  16.013  0.00  0.00    +0.000 A 
ATOM     19  C   UNL     1       4.313   6.239  17.132  0.00  0.00    +0.000 A 
ATOM     20  C   UNL     1       3.522   7.281  17.639  0.00  0.00    +0.000 A 
ATOM     21  C   UNL     1       2.682   7.081  18.745  0.00  0.00    +0.000 A 
ENDBRANCH   1  21
BRANCH   6  22
ATOM     22  C   UNL     1      -1.571  12.165  23.041  0.00  0.00    +0.000 C 
BRANCH  22  23
ATOM     23  C   UNL     1      -2.679  12.749  22.152  0.00  0.00    +0.000 C 
BRANCH  23  24
ATOM     24  N   UNL     1      -4.014  12.355  22.604  0.00  0.00    +0.000 NA
ATOM     25  C   UNL     1      -4.351  12.809  23.958  0.00  0.00    +0.000 C 
ATOM     26  C   UNL     1      -5.635  13.603  23.830  0.00  0.00    +0.000 C 
ATOM     27  C   UNL     1      -6.305  12.963  22.634  0.00  0.00    +0.000 C 
ATOM     28  C   UNL     1      -5.136  12.664  21.695  0.00  0.00    +0.000 C 
ATOM     29  C   UNL     1      -4.935  13.820  20.706  0.00  0.00    +0.000 C 
ENDBRANCH  23  24
ENDBRANCH  22  23
ENDBRANCH   6  22
TORSDOF 4
ENDMDL
MODEL 4
REMARK VINA RESULT:      -8.7      2.235      4.456
REMARK  Name = 
REMARK  6 active torsions:
REMARK  status: ('A' for Active; 'I' for Inactive)
REMARK    1  A    between atoms: C_1  and  C_2
REMARK    2  A    between atoms: C_11  and  C_12
REMARK    3  A    between atoms: C_17  and  C_18
REMARK    4  A    between atoms: C_18  and  C_19
REMARK    5  A    between atoms: C_19  and  N_20
REMARK    6  A    between atoms: C_24  and  C_25
REMARK                            x       y       z     vdW  Elec       q    Type
REMARK                         _______ _______ _______ _____ _____    ______ ____
ROOT
ATOM      1  C   UNL     1       2.050   8.126  19.001  0.00  0.00    +0.000 A 
ATOM      2  C   UNL     1       1.739   9.233  18.213  0.00  0.00    +0.000 A 
ATOM      3  C   UNL     1       1.029  10.290  18.776  0.00  0.00    +0.000 A 
ATOM      4  C   UNL     1       0.628  10.218  20.112  0.00  0.00    +0.000 A 
ATOM      5  C   UNL     1      -0.077  11.258  20.737  0.00  0.00    +0.000 A 
ATOM      6  C   UNL     1      -0.448  11.157  22.084  0.00  0.00    +0.000 A 
ATOM      7  C   UNL     1      -0.160   9.983  22.781  0.00  0.00    +0.000 A 
ATOM      8  C   UNL     1       0.542   8.953  22.152  0.00  0.00    +0.000 A 
ATOM      9  C   UNL     1       0.960   9.061  20.836  0.00  0.00    +0.000 A 
ATOM     10  N   UNL     1       1.664   8.058  20.296  0.00  0.00    +0.000 NA
ENDROOT
BRANCH   1  21
ATOM     11  C   UNL     1       1.810   5.325  20.185  0.00  0.00    +0.000 C 
ATOM     12  C   UNL     1       2.706   5.667  19.025  0.00  0.00    +0.000 A 
ATOM     13  N   UNL     1       3.400   4.598  18.533  0.00  0.00    +0.000 NA
ATOM     14  C   UNL     1       4.229   4.750  17.508  0.00  0.00    +0.000 A 
ATOM     15  N   UNL     1       4.879   3.676  17.046  0.00  0.00    +0.000 NA
ATOM     16  C   UNL     1       5.723   3.819  16.002  0.00  0.00    +0.000 A 
ATOM     17  C   UNL     1       5.971   5.021  15.372  0.00  0.00    +0.000 A 
ATOM     18  C   UNL     1       5.308   6.142  15.846  0.00  0.00    +0.000 A 
ATOM     19  C   UNL     1       4.421   6.010  16.926  0.00  0.00    +0.000 A 
ATOM     20  C   UNL     1       3.714   7.111  17.433  0.00  0.00    +0.000 A 
ATOM     21  C   UNL     1       2.814   6.964  18.499  0.00  0.00    +0.000 A 
ENDBRANCH   1  21
BRANCH   6  22
ATOM     22  C   UNL     1      -1.132  12.310  22.771  0.00  0.00    +0.000 C 
BRANCH  22  23
ATOM     23  C   UNL     1      -2.561  11.962  23.217  0.00  0.00    +0.000 C 
BRANCH  23  24
ATOM     24  N   UNL     1      -3.524  12.995  22.837  0.00  0.00    +0.000 NA
ATOM     25  C   UNL     1      -4.216  12.738  21.568  0.00  0.00    +0.000 C 
ATOM     26  C   UNL     1      -5.698  12.770  21.881  0.00  0.00    +0.000 C 
ATOM     27  C   UNL     1      -5.771  13.721  23.056  0.00  0.00    +0.000 C 
ATOM     28  C   UNL     1      -4.516  13.380  23.861  0.00  0.00    +0.000 C 
ATOM     29  C   UNL     1      -4.840  12.343  24.944  0.00  0.00    +0.000 C 
ENDBRANCH  23  24
ENDBRANCH  22  23
ENDBRANCH   6  22
TORSDOF 4
ENDMDL
MODEL 5
REMARK VINA RESULT:      -8.6      3.430     10.916
REMARK  Name = 
REMARK  6 active torsions:
REMARK  status: ('A' for Active; 'I' for Inactive)
REMARK    1  A    between atoms: C_1  and  C_2
REMARK    2  A    between atoms: C_11  and  C_12
REMARK    3  A    between atoms: C_17  and  C_18
REMARK    4  A    between atoms: C_18  and  C_19
REMARK    5  A    between atoms: C_19  and  N_20
REMARK    6  A    between atoms: C_24  and  C_25
REMARK                            x       y       z     vdW  Elec       q    Type
REMARK                         _______ _______ _______ _____ _____    ______ ____
ROOT
ATOM      1  C   UNL     1      -0.125  10.812  21.641  0.00  0.00    +0.000 A 
ATOM      2  C   UNL     1       0.302   9.788  22.485  0.00  0.00    +0.000 A 
ATOM      3  C   UNL     1       1.029   8.727  21.954  0.00  0.00    +0.000 A 
ATOM      4  C   UNL     1       1.307   8.698  20.585  0.00  0.00    +0.000 A 
ATOM      5  C   UNL     1       2.048   7.663  19.995  0.00  0.00    +0.000 A 
ATOM      6  C   UNL     1       2.320   7.676  18.621  0.00  0.00    +0.000 A 
ATOM      7  C   UNL     1       1.794   8.702  17.836  0.00  0.00    +0.000 A 
ATOM      8  C   UNL     1       1.059   9.729  18.430  0.00  0.00    +0.000 A 
ATOM      9  C   UNL     1       0.826   9.755  19.795  0.00  0.00    +0.000 A 
ATOM     10  N   UNL     1       0.147  10.786  20.316  0.00  0.00    +0.000 NA
ENDROOT
BRANCH   1  21
ATOM     11  C   UNL     1       0.910  13.674  21.435  0.00  0.00    +0.000 C 
ATOM     12  C   UNL     1      -0.429  13.311  22.017  0.00  0.00    +0.000 A 
ATOM     13  N   UNL     1      -1.157  14.389  22.436  0.00  0.00    +0.000 NA
ATOM     14  C   UNL     1      -2.360  14.220  22.970  0.00  0.00    +0.000 A 
ATOM     15  N   UNL     1      -3.047  15.301  23.355  0.00  0.00    +0.000 NA
ATOM     16  C   UNL     1      -4.273  15.141  23.897  0.00  0.00    +0.000 A 
ATOM     17  C   UNL     1      -4.874  13.915  24.092  0.00  0.00    +0.000 A 
ATOM     18  C   UNL     1      -4.169  12.787  23.703  0.00  0.00    +0.000 A 
ATOM     19  C   UNL     1      -2.896  12.935  23.131  0.00  0.00    +0.000 A 
ATOM     20  C   UNL     1      -2.150  11.826  22.705  0.00  0.00    +0.000 A 
ATOM     21  C   UNL     1      -0.887  11.987  22.115  0.00  0.00    +0.000 A 
ENDBRANCH   1  21
BRANCH   6  22
ATOM     22  C   UNL     1       3.184   6.605  18.009  0.00  0.00    +0.000 C 
BRANCH  22  23
ATOM     23  C   UNL     1       3.243   5.335  18.870  0.00  0.00    +0.000 C 
BRANCH  23  24
ATOM     24  N   UNL     1       2.504   4.225  18.268  0.00  0.00    +0.000 NA
ATOM     25  C   UNL     1       3.329   3.055  17.946  0.00  0.00    +0.000 C 
ATOM     26  C   UNL     1       2.693   1.881  18.661  0.00  0.00    +0.000 C 
ATOM     27  C   UNL     1       1.233   2.275  18.718  0.00  0.00    +0.000 C 
ATOM     28  C   UNL     1       1.287   3.781  18.977  0.00  0.00    +0.000 C 
ATOM     29  C   UNL     1       1.211   4.069  20.481  0.00  0.00    +0.000 C 
ENDBRANCH  23  24
ENDBRANCH  22  23
ENDBRANCH   6  22
TORSDOF 4
ENDMDL
MODEL 6
REMARK VINA RESULT:      -8.6      2.019     10.150
REMARK  Name = 
REMARK  6 active torsions:
REMARK  status: ('A' for Active; 'I' for Inactive)
REMARK    1  A    between atoms: C_1  and  C_2
REMARK    2  A    between atoms: C_11  and  C_12
REMARK    3  A    between atoms: C_17  and  C_18
REMARK    4  A    between atoms: C_18  and  C_19
REMARK    5  A    between atoms: C_19  and  N_20
REMARK    6  A    between atoms: C_24  and  C_25
REMARK                            x       y       z     vdW  Elec       q    Type
REMARK                         _______ _______ _______ _____ _____    ______ ____
ROOT
ATOM      1  C   UNL     1       0.815   9.798  19.270  0.00  0.00    +0.000 A 
ATOM      2  C   UNL     1       1.543   9.863  18.083  0.00  0.00    +0.000 A 
ATOM      3  C   UNL     1       2.366   8.797  17.731  0.00  0.00    +0.000 A 
ATOM      4  C   UNL     1       2.461   7.690  18.577  0.00  0.00    +0.000 A 
ATOM      5  C   UNL     1       3.262   6.580  18.267  0.00  0.00    +0.000 A 
ATOM      6  C   UNL     1       3.320   5.481  19.133  0.00  0.00    +0.000 A 
ATOM      7  C   UNL     1       2.615   5.527  20.337  0.00  0.00    +0.000 A 
ATOM      8  C   UNL     1       1.820   6.634  20.637  0.00  0.00    +0.000 A 
ATOM      9  C   UNL     1       1.714   7.707  19.766  0.00  0.00    +0.000 A 
ATOM     10  N   UNL     1       0.905   8.724  20.088  0.00  0.00    +0.000 NA
ENDROOT
BRANCH   1  21
ATOM     11  C   UNL     1      -1.969  10.227  18.103  0.00  0.00    +0.000 C 
ATOM     12  C   UNL     1      -1.385  11.075  19.201  0.00  0.00    +0.000 A 
ATOM     13  N   UNL     1      -2.227  12.055  19.645  0.00  0.00    +0.000 NA
ATOM     14  C   UNL     1      -1.845  12.879  20.613  0.00  0.00    +0.000 A 
ATOM     15  N   UNL     1      -2.704  13.816  21.030  0.00  0.00    +0.000 NA
ATOM     16  C   UNL     1      -2.327  14.658  22.016  0.00  0.00    +0.000 A 
ATOM     17  C   UNL     1      -1.092  14.622  22.630  0.00  0.00    +0.000 A 
ATOM     18  C   UNL     1      -0.192  13.658  22.201  0.00  0.00    +0.000 A 
ATOM     19  C   UNL     1      -0.570  12.770  21.182  0.00  0.00    +0.000 A 
ATOM     20  C   UNL     1       0.298  11.767  20.725  0.00  0.00    +0.000 A 
ATOM     21  C   UNL     1      -0.097  10.871  19.720  0.00  0.00    +0.000 A 
ENDBRANCH   1  21
BRANCH   6  22
ATOM     22  C   UNL     1       4.117   4.260  18.757  0.00  0.00    +0.000 C 
BRANCH  22  23
ATOM     23  C   UNL     1       5.622   4.549  18.660  0.00  0.00    +0.000 C 
BRANCH  23  24
ATOM     24  N   UNL     1       6.175   4.171  17.359  0.00  0.00    +0.000 NA
ATOM     25  C   UNL     1       5.164   3.908  16.328  0.00  0.00    +0.000 C 
ATOM     26  C   UNL     1       5.494   4.825  15.169  0.00  0.00    +0.000 C 
ATOM     27  C   UNL     1       6.994   4.991  15.291  0.00  0.00    +0.000 C 
ATOM     28  C   UNL     1       7.217   5.056  16.802  0.00  0.00    +0.000 C 
ATOM     29  C   UNL     1       7.223   6.514  17.280  0.00  0.00    +0.000 C 
ENDBRANCH  23  24
ENDBRANCH  22  23
ENDBRANCH   6  22
TORSDOF 4
ENDMDL
MODEL 7
REMARK VINA RESULT:      -8.6      2.189     10.155
REMARK  Name = 
REMARK  6 active torsions:
REMARK  status: ('A' for Active; 'I' for Inactive)
REMARK    1  A    between atoms: C_1  and  C_2
REMARK    2  A    between atoms: C_11  and  C_12
REMARK    3  A    between atoms: C_17  and  C_18
REMARK    4  A    between atoms: C_18  and  C_19
REMARK    5  A    between atoms: C_19  and  N_20
REMARK    6  A    between atoms: C_24  and  C_25
REMARK                            x       y       z     vdW  Elec       q    Type
REMARK                         _______ _______ _______ _____ _____    ______ ____
ROOT
ATOM      1  C   UNL     1       0.980  10.353  19.989  0.00  0.00    +0.000 A 
ATOM      2  C   UNL     1       1.287  10.569  18.647  0.00  0.00    +0.000 A 
ATOM      3  C   UNL     1       1.802   9.521  17.890  0.00  0.00    +0.000 A 
ATOM      4  C   UNL     1       2.017   8.277  18.489  0.00  0.00    +0.000 A 
ATOM      5  C   UNL     1       2.519   7.180  17.773  0.00  0.00    +0.000 A 
ATOM      6  C   UNL     1       2.707   5.944  18.405  0.00  0.00    +0.000 A 
ATOM      7  C   UNL     1       2.442   5.833  19.771  0.00  0.00    +0.000 A 
ATOM      8  C   UNL     1       1.941   6.929  20.476  0.00  0.00    +0.000 A 
ATOM      9  C   UNL     1       1.704   8.143  19.852  0.00  0.00    +0.000 A 
ATOM     10  N   UNL     1       1.185   9.149  20.569  0.00  0.00    +0.000 NA
ENDROOT
BRANCH   1  21
ATOM     11  C   UNL     1       2.276  13.084  20.393  0.00  0.00    +0.000 C 
ATOM     12  C   UNL     1       0.992  12.664  21.056  0.00  0.00    +0.000 A 
ATOM     13  N   UNL     1       0.442  13.629  21.852  0.00  0.00    +0.000 NA
ATOM     14  C   UNL     1      -0.693  13.399  22.499  0.00  0.00    +0.000 A 
ATOM     15  N   UNL     1      -1.207  14.375  23.257  0.00  0.00    +0.000 NA
ATOM     16  C   UNL     1      -2.363  14.152  23.917  0.00  0.00    +0.000 A 
ATOM     17  C   UNL     1      -3.060  12.963  23.870  0.00  0.00    +0.000 A 
ATOM     18  C   UNL     1      -2.534  11.943  23.093  0.00  0.00    +0.000 A 
ATOM     19  C   UNL     1      -1.337  12.159  22.393  0.00  0.00    +0.000 A 
ATOM     20  C   UNL     1      -0.772  11.165  21.580  0.00  0.00    +0.000 A 
ATOM     21  C   UNL     1       0.414  11.398  20.868  0.00  0.00    +0.000 A 
ENDBRANCH   1  21
BRANCH   6  22
ATOM     22  C   UNL     1       3.170   4.750  17.613  0.00  0.00    +0.000 C 
BRANCH  22  23
ATOM     23  C   UNL     1       4.656   4.435  17.841  0.00  0.00    +0.000 C 
BRANCH  23  24
ATOM     24  N   UNL     1       5.434   5.636  18.147  0.00  0.00    +0.000 NA
ATOM     25  C   UNL     1       6.329   5.497  19.302  0.00  0.00    +0.000 C 
ATOM     26  C   UNL     1       7.717   5.843  18.804  0.00  0.00    +0.000 C 
ATOM     27  C   UNL     1       7.436   6.816  17.680  0.00  0.00    +0.000 C 
ATOM     28  C   UNL     1       6.179   6.242  17.025  0.00  0.00    +0.000 C 
ATOM     29  C   UNL     1       6.556   5.320  15.859  0.00  0.00    +0.000 C 
ENDBRANCH  23  24
ENDBRANCH  22  23
ENDBRANCH   6  22
TORSDOF 4
ENDMDL
MODEL 8
REMARK VINA RESULT:      -8.5      2.144      4.516
REMARK  Name = 
REMARK  6 active torsions:
REMARK  status: ('A' for Active; 'I' for Inactive)
REMARK    1  A    between atoms: C_1  and  C_2
REMARK    2  A    between atoms: C_11  and  C_12
REMARK    3  A    between atoms: C_17  and  C_18
REMARK    4  A    between atoms: C_18  and  C_19
REMARK    5  A    between atoms: C_19  and  N_20
REMARK    6  A    between atoms: C_24  and  C_25
REMARK                            x       y       z     vdW  Elec       q    Type
REMARK                         _______ _______ _______ _____ _____    ______ ____
ROOT
ATOM      1  C   UNL     1       1.861   8.213  19.173  0.00  0.00    +0.000 A 
ATOM      2  C   UNL     1       1.421   9.257  18.360  0.00  0.00    +0.000 A 
ATOM      3  C   UNL     1       0.666  10.283  18.921  0.00  0.00    +0.000 A 
ATOM      4  C   UNL     1       0.349  10.242  20.281  0.00  0.00    +0.000 A 
ATOM      5  C   UNL     1      -0.396  11.255  20.905  0.00  0.00    +0.000 A 
ATOM      6  C   UNL     1      -0.681  11.187  22.275  0.00  0.00    +0.000 A 
ATOM      7  C   UNL     1      -0.264  10.071  23.000  0.00  0.00    +0.000 A 
ATOM      8  C   UNL     1       0.477   9.068  22.373  0.00  0.00    +0.000 A 
ATOM      9  C   UNL     1       0.809   9.147  21.030  0.00  0.00    +0.000 A 
ATOM     10  N   UNL     1       1.556   8.175  20.490  0.00  0.00    +0.000 NA
ENDROOT
BRANCH   1  21
ATOM     11  C   UNL     1       1.790   5.417  20.389  0.00  0.00    +0.000 C 
ATOM     12  C   UNL     1       2.652   5.794  19.214  0.00  0.00    +0.000 A 
ATOM     13  N   UNL     1       3.397   4.759  18.724  0.00  0.00    +0.000 NA
ATOM     14  C   UNL     1       4.204   4.945  17.687  0.00  0.00    +0.000 A 
ATOM     15  N   UNL     1       4.906   3.904  17.227  0.00  0.00    +0.000 NA
ATOM     16  C   UNL     1       5.727   4.081  16.171  0.00  0.00    +0.000 A 
ATOM     17  C   UNL     1       5.901   5.288  15.525  0.00  0.00    +0.000 A 
ATOM     18  C   UNL     1       5.183   6.375  15.996  0.00  0.00    +0.000 A 
ATOM     19  C   UNL     1       4.319   6.207  17.089  0.00  0.00    +0.000 A 
ATOM     20  C   UNL     1       3.558   7.273  17.593  0.00  0.00    +0.000 A 
ATOM     21  C   UNL     1       2.681   7.089  18.673  0.00  0.00    +0.000 A 
ENDBRANCH   1  21
BRANCH   6  22
ATOM     22  C   UNL     1      -1.410  12.316  22.954  0.00  0.00    +0.000 C 
BRANCH  22  23
ATOM     23  C   UNL     1      -2.795  11.894  23.469  0.00  0.00    +0.000 C 
BRANCH  23  24
ATOM     24  N   UNL     1      -3.557  13.026  23.996  0.00  0.00    +0.000 NA
ATOM     25  C   UNL     1      -2.780  14.264  24.135  0.00  0.00    +0.000 C 
ATOM     26  C   UNL     1      -3.523  15.319  23.341  0.00  0.00    +0.000 C 
ATOM     27  C   UNL     1      -4.960  14.849  23.423  0.00  0.00    +0.000 C 
ATOM     28  C   UNL     1      -4.837  13.328  23.325  0.00  0.00    +0.000 C 
ATOM     29  C   UNL     1      -4.986  12.872  21.868  0.00  0.00    +0.000 C 
ENDBRANCH  23  24
ENDBRANCH  22  23
ENDBRANCH   6  22
TORSDOF 4
ENDMDL
MODEL 9
REMARK VINA RESULT:      -8.4      1.997     10.876
REMARK  Name = 
REMARK  6 active torsions:
REMARK  status: ('A' for Active; 'I' for Inactive)
REMARK    1  A    between atoms: C_1  and  C_2
REMARK    2  A    between atoms: C_11  and  C_12
REMARK    3  A    between atoms: C_17  and  C_18
REMARK    4  A    between atoms: C_18  and  C_19
REMARK    5  A    between atoms: C_19  and  N_20
REMARK    6  A    between atoms: C_24  and  C_25
REMARK                            x       y       z     vdW  Elec       q    Type
REMARK                         _______ _______ _______ _____ _____    ______ ____
ROOT
ATOM      1  C   UNL     1       0.218  10.446  21.477  0.00  0.00    +0.000 A 
ATOM      2  C   UNL     1       0.580   9.377  22.296  0.00  0.00    +0.000 A 
ATOM      3  C   UNL     1       1.261   8.296  21.744  0.00  0.00    +0.000 A 
ATOM      4  C   UNL     1       1.556   8.293  20.378  0.00  0.00    +0.000 A 
ATOM      5  C   UNL     1       2.253   7.238  19.768  0.00  0.00    +0.000 A 
ATOM      6  C   UNL     1       2.545   7.277  18.399  0.00  0.00    +0.000 A 
ATOM      7  C   UNL     1       2.083   8.351  17.637  0.00  0.00    +0.000 A 
ATOM      8  C   UNL     1       1.392   9.397  18.251  0.00  0.00    +0.000 A 
ATOM      9  C   UNL     1       1.141   9.395  19.614  0.00  0.00    +0.000 A 
ATOM     10  N   UNL     1       0.507  10.443  20.156  0.00  0.00    +0.000 NA
ENDROOT
BRANCH   1  21
ATOM     11  C   UNL     1       1.212  13.292  21.017  0.00  0.00    +0.000 C 
ATOM     12  C   UNL     1      -0.052  12.960  21.762  0.00  0.00    +0.000 A 
ATOM     13  N   UNL     1      -0.732  14.059  22.208  0.00  0.00    +0.000 NA
ATOM     14  C   UNL     1      -1.867  13.918  22.880  0.00  0.00    +0.000 A 
ATOM     15  N   UNL     1      -2.511  15.018  23.286  0.00  0.00    +0.000 NA
ATOM     16  C   UNL     1      -3.668  14.887  23.969  0.00  0.00    +0.000 A 
ATOM     17  C   UNL     1      -4.239  13.673  24.290  0.00  0.00    +0.000 A 
ATOM     18  C   UNL     1      -3.578  12.526  23.880  0.00  0.00    +0.000 A 
ATOM     19  C   UNL     1      -2.377  12.644  23.162  0.00  0.00    +0.000 A 
ATOM     20  C   UNL     1      -1.679  11.514  22.710  0.00  0.00    +0.000 A 
ATOM     21  C   UNL     1      -0.491  11.643  21.975  0.00  0.00    +0.000 A 
ENDBRANCH   1  21
BRANCH   6  22
ATOM     22  C   UNL     1       3.363   6.182  17.766  0.00  0.00    +0.000 C 
BRANCH  22  23
ATOM     23  C   UNL     1       4.542   5.746  18.649  0.00  0.00    +0.000 C 
BRANCH  23  24
ATOM     24  N   UNL     1       5.395   4.762  17.984  0.00  0.00    +0.000 NA
ATOM     25  C   UNL     1       4.805   4.168  16.778  0.00  0.00    +0.000 C 
ATOM     26  C   UNL     1       5.794   4.418  15.658  0.00  0.00    +0.000 C 
ATOM     27  C   UNL     1       7.120   4.461  16.386  0.00  0.00    +0.000 C 
ATOM     28  C   UNL     1       6.780   5.181  17.691  0.00  0.00    +0.000 C 
ATOM     29  C   UNL     1       7.040   6.686  17.555  0.00  0.00    +0.000 C 
ENDBRANCH  23  24
ENDBRANCH  22  23
ENDBRANCH   6  22
TORSDOF 4
ENDMDL
