MODEL 1
REMARK VINA RESULT:      -6.6      0.000      0.000
REMARK  Name = 
REMARK  5 active torsions:
REMARK  status: ('A' for Active; 'I' for Inactive)
REMARK    1  A    between atoms: C_1  and  O_2
REMARK    2  A    between atoms: O_2  and  C_3
REMARK    3  A    between atoms: C_3  and  C_5
REMARK    4  A    between atoms: N_9  and  S_10
REMARK    5  A    between atoms: S_10  and  C_13
REMARK                            x       y       z     vdW  Elec       q    Type
REMARK                         _______ _______ _______ _____ _____    ______ ____
ROOT
ATOM      1  S   UNL     1       4.436   3.531  18.288  0.00  0.00    +0.000 S 
ATOM      2  O   UNL     1       5.298   3.750  19.432  0.00  0.00    +0.000 OA
ATOM      3  O   UNL     1       3.891   2.227  17.990  0.00  0.00    +0.000 OA
ENDROOT
BRANCH   1   4
ATOM      4  C   UNL     1       5.351   4.080  16.858  0.00  0.00    +0.000 A 
ATOM      5  C   UNL     1       6.647   4.577  17.025  0.00  0.00    +0.000 A 
ATOM      6  C   UNL     1       7.387   4.963  15.905  0.00  0.00    +0.000 A 
ATOM      7  C   UNL     1       6.833   4.844  14.628  0.00  0.00    +0.000 A 
ATOM      8 CL   UNL     1       7.748   5.319  13.253  0.00  0.00    +0.000 Cl
ATOM      9  C   UNL     1       5.545   4.335  14.462  0.00  0.00    +0.000 A 
ATOM     10  C   UNL     1       4.797   3.949  15.579  0.00  0.00    +0.000 A 
ENDBRANCH   1   4
BRANCH   1  15
ATOM     11  C   UNL     1       3.184   5.487  19.609  0.00  0.00    +0.000 C 
ATOM     12  S   UNL     1       2.185   4.622  20.854  0.00  0.00    +0.000 S 
ATOM     13  C   UNL     1       1.108   3.884  19.609  0.00  0.00    +0.000 C 
ATOM     14  C   UNL     1       1.776   4.048  18.242  0.00  0.00    +0.000 C 
ATOM     15  N   UNL     1       3.145   4.627  18.389  0.00  0.00    +0.000 NA
BRANCH  11  16
ATOM     16  C   UNL     1       2.515   6.850  19.352  0.00  0.00    +0.000 C 
ATOM     17  O   UNL     1       1.946   7.530  20.205  0.00  0.00    +0.000 OA
BRANCH  16  19
ATOM     18  C   UNL     1       2.389   8.633  17.835  0.00  0.00    +0.000 C 
ATOM     19  O   UNL     1       2.717   7.260  18.064  0.00  0.00    +0.000 OA
ENDBRANCH  16  19
ENDBRANCH  11  16
ENDBRANCH   1  15
TORSDOF 4
ENDMDL
MODEL 2
REMARK VINA RESULT:      -6.6      0.234      1.135
REMARK  Name = 
REMARK  5 active torsions:
REMARK  status: ('A' for Active; 'I' for Inactive)
REMARK    1  A    between atoms: C_1  and  O_2
REMARK    2  A    between atoms: O_2  and  C_3
REMARK    3  A    between atoms: C_3  and  C_5
REMARK    4  A    between atoms: N_9  and  S_10
REMARK    5  A    between atoms: S_10  and  C_13
REMARK                            x       y       z     vdW  Elec       q    Type
REMARK                         _______ _______ _______ _____ _____    ______ ____
ROOT
ATOM      1  S   UNL     1       4.610   3.733  18.498  0.00  0.00    +0.000 S 
ATOM      2  O   UNL     1       5.482   4.123  19.588  0.00  0.00    +0.000 OA
ATOM      3  O   UNL     1       4.099   2.387  18.382  0.00  0.00    +0.000 OA
ENDROOT
BRANCH   1   4
ATOM      4  C   UNL     1       5.487   4.117  16.993  0.00  0.00    +0.000 A 
ATOM      5  C   UNL     1       4.813   4.042  15.771  0.00  0.00    +0.000 A 
ATOM      6  C   UNL     1       5.481   4.388  14.593  0.00  0.00    +0.000 A 
ATOM      7  C   UNL     1       6.810   4.813  14.645  0.00  0.00    +0.000 A 
ATOM      8 CL   UNL     1       7.627   5.239  13.193  0.00  0.00    +0.000 Cl
ATOM      9  C   UNL     1       7.477   4.901  15.867  0.00  0.00    +0.000 A 
ATOM     10  C   UNL     1       6.817   4.553  17.049  0.00  0.00    +0.000 A 
ENDBRANCH   1   4
BRANCH   1  15
ATOM     11  C   UNL     1       3.190   5.649  19.703  0.00  0.00    +0.000 C 
ATOM     12  S   UNL     1       2.098   4.752  20.842  0.00  0.00    +0.000 S 
ATOM     13  C   UNL     1       1.164   3.997  19.497  0.00  0.00    +0.000 C 
ATOM     14  C   UNL     1       1.954   4.186  18.201  0.00  0.00    +0.000 C 
ATOM     15  N   UNL     1       3.289   4.797  18.481  0.00  0.00    +0.000 NA
BRANCH  11  16
ATOM     16  C   UNL     1       2.515   6.997  19.390  0.00  0.00    +0.000 C 
ATOM     17  O   UNL     1       1.840   7.652  20.183  0.00  0.00    +0.000 OA
BRANCH  16  19
ATOM     18  C   UNL     1       2.222   8.665  17.767  0.00  0.00    +0.000 C 
ATOM     19  O   UNL     1       2.841   7.429  18.134  0.00  0.00    +0.000 OA
ENDBRANCH  16  19
ENDBRANCH  11  16
ENDBRANCH   1  15
TORSDOF 4
ENDMDL
MODEL 3
REMARK VINA RESULT:      -6.6      0.656      1.064
REMARK  Name = 
REMARK  5 active torsions:
REMARK  status: ('A' for Active; 'I' for Inactive)
REMARK    1  A    between atoms: C_1  and  O_2
REMARK    2  A    between atoms: O_2  and  C_3
REMARK    3  A    between atoms: C_3  and  C_5
REMARK    4  A    between atoms: N_9  and  S_10
REMARK    5  A    between atoms: S_10  and  C_13
REMARK                            x       y       z     vdW  Elec       q    Type
REMARK                         _______ _______ _______ _____ _____    ______ ____
ROOT
ATOM      1  S   UNL     1       4.516   3.589  18.408  0.00  0.00    +0.000 S 
ATOM      2  O   UNL     1       5.395   3.862  19.528  0.00  0.00    +0.000 OA
ATOM      3  O   UNL     1       3.991   2.266  18.165  0.00  0.00    +0.000 OA
ENDROOT
BRANCH   1   4
ATOM      4  C   UNL     1       5.394   4.106  16.944  0.00  0.00    +0.000 A 
ATOM      5  C   UNL     1       6.710   4.561  17.061  0.00  0.00    +0.000 A 
ATOM      6  C   UNL     1       7.419   4.922  15.912  0.00  0.00    +0.000 A 
ATOM      7  C   UNL     1       6.814   4.819  14.658  0.00  0.00    +0.000 A 
ATOM      8 CL   UNL     1       7.691   5.263  13.247  0.00  0.00    +0.000 Cl
ATOM      9  C   UNL     1       5.504   4.351  14.541  0.00  0.00    +0.000 A 
ATOM     10  C   UNL     1       4.788   3.991  15.687  0.00  0.00    +0.000 A 
ENDBRANCH   1   4
BRANCH   1  15
ATOM     11  C   UNL     1       3.111   5.384  19.803  0.00  0.00    +0.000 C 
ATOM     12  S   UNL     1       2.004   4.384  20.837  0.00  0.00    +0.000 S 
ATOM     13  C   UNL     1       1.068   3.785  19.417  0.00  0.00    +0.000 C 
ATOM     14  C   UNL     1       1.867   4.100  18.151  0.00  0.00    +0.000 C 
ATOM     15  N   UNL     1       3.207   4.663  18.498  0.00  0.00    +0.000 NA
BRANCH  11  16
ATOM     16  C   UNL     1       2.452   6.765  19.630  0.00  0.00    +0.000 C 
ATOM     17  O   UNL     1       2.586   7.495  18.649  0.00  0.00    +0.000 OA
BRANCH  16  19
ATOM     18  C   UNL     1       1.314   8.432  20.823  0.00  0.00    +0.000 C 
ATOM     19  O   UNL     1       1.614   7.041  20.674  0.00  0.00    +0.000 OA
ENDBRANCH  16  19
ENDBRANCH  11  16
ENDBRANCH   1  15
TORSDOF 4
ENDMDL
MODEL 4
REMARK VINA RESULT:      -6.4      0.606      1.506
REMARK  Name = 
REMARK  5 active torsions:
REMARK  status: ('A' for Active; 'I' for Inactive)
REMARK    1  A    between atoms: C_1  and  O_2
REMARK    2  A    between atoms: O_2  and  C_3
REMARK    3  A    between atoms: C_3  and  C_5
REMARK    4  A    between atoms: N_9  and  S_10
REMARK    5  A    between atoms: S_10  and  C_13
REMARK                            x       y       z     vdW  Elec       q    Type
REMARK                         _______ _______ _______ _____ _____    ______ ____
ROOT
ATOM      1  S   UNL     1       4.572   3.632  18.462  0.00  0.00    +0.000 S 
ATOM      2  O   UNL     1       5.444   3.962  19.573  0.00  0.00    +0.000 OA
ATOM      3  O   UNL     1       4.041   2.300  18.288  0.00  0.00    +0.000 OA
ENDROOT
BRANCH   1   4
ATOM      4  C   UNL     1       5.466   4.062  16.979  0.00  0.00    +0.000 A 
ATOM      5  C   UNL     1       4.819   3.980  15.743  0.00  0.00    +0.000 A 
ATOM      6  C   UNL     1       5.498   4.362  14.583  0.00  0.00    +0.000 A 
ATOM      7  C   UNL     1       6.811   4.829  14.666  0.00  0.00    +0.000 A 
ATOM      8 CL   UNL     1       7.642   5.299  13.236  0.00  0.00    +0.000 Cl
ATOM      9  C   UNL     1       7.451   4.924  15.902  0.00  0.00    +0.000 A 
ATOM     10  C   UNL     1       6.779   4.540  17.066  0.00  0.00    +0.000 A 
ENDBRANCH   1   4
BRANCH   1  15
ATOM     11  C   UNL     1       3.165   5.507  19.743  0.00  0.00    +0.000 C 
ATOM     12  S   UNL     1       2.041   4.571  20.819  0.00  0.00    +0.000 S 
ATOM     13  C   UNL     1       1.116   3.901  19.423  0.00  0.00    +0.000 C 
ATOM     14  C   UNL     1       1.929   4.143  18.150  0.00  0.00    +0.000 C 
ATOM     15  N   UNL     1       3.269   4.717  18.480  0.00  0.00    +0.000 NA
BRANCH  11  16
ATOM     16  C   UNL     1       2.516   6.880  19.490  0.00  0.00    +0.000 C 
ATOM     17  O   UNL     1       2.666   7.557  18.473  0.00  0.00    +0.000 OA
BRANCH  16  19
ATOM     18  C   UNL     1       1.328   8.606  20.543  0.00  0.00    +0.000 C 
ATOM     19  O   UNL     1       1.666   7.216  20.507  0.00  0.00    +0.000 OA
ENDBRANCH  16  19
ENDBRANCH  11  16
ENDBRANCH   1  15
TORSDOF 4
ENDMDL
MODEL 5
REMARK VINA RESULT:      -6.3      3.357      6.068
REMARK  Name = 
REMARK  5 active torsions:
REMARK  status: ('A' for Active; 'I' for Inactive)
REMARK    1  A    between atoms: C_1  and  O_2
REMARK    2  A    between atoms: O_2  and  C_3
REMARK    3  A    between atoms: C_3  and  C_5
REMARK    4  A    between atoms: N_9  and  S_10
REMARK    5  A    between atoms: S_10  and  C_13
REMARK                            x       y       z     vdW  Elec       q    Type
REMARK                         _______ _______ _______ _____ _____    ______ ____
ROOT
ATOM      1  S   UNL     1       3.995   5.197  18.179  0.00  0.00    +0.000 S 
ATOM      2  O   UNL     1       3.112   4.243  17.537  0.00  0.00    +0.000 OA
ATOM      3  O   UNL     1       4.707   4.870  19.392  0.00  0.00    +0.000 OA
ENDROOT
BRANCH   1   4
ATOM      4  C   UNL     1       3.014   6.653  18.496  0.00  0.00    +0.000 A 
ATOM      5  C   UNL     1       2.458   6.840  19.764  0.00  0.00    +0.000 A 
ATOM      6  C   UNL     1       1.730   8.002  20.034  0.00  0.00    +0.000 A 
ATOM      7  C   UNL     1       1.569   8.970  19.040  0.00  0.00    +0.000 A 
ATOM      8 CL   UNL     1       0.674  10.398  19.376  0.00  0.00    +0.000 Cl
ATOM      9  C   UNL     1       2.138   8.789  17.778  0.00  0.00    +0.000 A 
ATOM     10  C   UNL     1       2.865   7.627  17.501  0.00  0.00    +0.000 A 
ENDBRANCH   1   4
BRANCH   1  15
ATOM     11  C   UNL     1       6.033   4.626  16.548  0.00  0.00    +0.000 C 
ATOM     12  S   UNL     1       7.498   4.695  17.617  0.00  0.00    +0.000 S 
ATOM     13  C   UNL     1       7.344   6.474  17.870  0.00  0.00    +0.000 C 
ATOM     14  C   UNL     1       5.953   6.904  17.403  0.00  0.00    +0.000 C 
ATOM     15  N   UNL     1       5.129   5.714  17.029  0.00  0.00    +0.000 NA
BRANCH  11  16
ATOM     16  C   UNL     1       6.506   4.891  15.107  0.00  0.00    +0.000 C 
ATOM     17  O   UNL     1       7.601   5.357  14.796  0.00  0.00    +0.000 OA
BRANCH  16  19
ATOM     18  C   UNL     1       6.147   3.704  13.116  0.00  0.00    +0.000 C 
ATOM     19  O   UNL     1       5.583   4.450  14.199  0.00  0.00    +0.000 OA
ENDBRANCH  16  19
ENDBRANCH  11  16
ENDBRANCH   1  15
TORSDOF 4
ENDMDL
MODEL 6
REMARK VINA RESULT:      -6.3      2.094      2.456
REMARK  Name = 
REMARK  5 active torsions:
REMARK  status: ('A' for Active; 'I' for Inactive)
REMARK    1  A    between atoms: C_1  and  O_2
REMARK    2  A    between atoms: O_2  and  C_3
REMARK    3  A    between atoms: C_3  and  C_5
REMARK    4  A    between atoms: N_9  and  S_10
REMARK    5  A    between atoms: S_10  and  C_13
REMARK                            x       y       z     vdW  Elec       q    Type
REMARK                         _______ _______ _______ _____ _____    ______ ____
ROOT
ATOM      1  S   UNL     1       4.370   3.665  18.477  0.00  0.00    +0.000 S 
ATOM      2  O   UNL     1       4.829   2.989  19.675  0.00  0.00    +0.000 OA
ATOM      3  O   UNL     1       4.189   2.958  17.232  0.00  0.00    +0.000 OA
ENDROOT
BRANCH   1   4
ATOM      4  C   UNL     1       5.516   5.001  18.186  0.00  0.00    +0.000 A 
ATOM      5  C   UNL     1       5.182   6.001  17.268  0.00  0.00    +0.000 A 
ATOM      6  C   UNL     1       6.054   7.075  17.071  0.00  0.00    +0.000 A 
ATOM      7  C   UNL     1       7.245   7.148  17.796  0.00  0.00    +0.000 A 
ATOM      8 CL   UNL     1       8.314   8.472  17.551  0.00  0.00    +0.000 Cl
ATOM      9  C   UNL     1       7.571   6.156  18.722  0.00  0.00    +0.000 A 
ATOM     10  C   UNL     1       6.705   5.077  18.922  0.00  0.00    +0.000 A 
ENDBRANCH   1   4
BRANCH   1  15
ATOM     11  C   UNL     1       2.887   5.047  20.218  0.00  0.00    +0.000 C 
ATOM     12  S   UNL     1       2.152   3.779  21.290  0.00  0.00    +0.000 S 
ATOM     13  C   UNL     1       1.138   3.109  19.957  0.00  0.00    +0.000 C 
ATOM     14  C   UNL     1       1.664   3.664  18.632  0.00  0.00    +0.000 C 
ATOM     15  N   UNL     1       2.914   4.453  18.848  0.00  0.00    +0.000 NA
BRANCH  11  16
ATOM     16  C   UNL     1       1.967   6.280  20.273  0.00  0.00    +0.000 C 
ATOM     17  O   UNL     1       1.057   6.449  21.084  0.00  0.00    +0.000 OA
BRANCH  16  19
ATOM     18  C   UNL     1       1.668   8.470  19.488  0.00  0.00    +0.000 C 
ATOM     19  O   UNL     1       2.352   7.220  19.357  0.00  0.00    +0.000 OA
ENDBRANCH  16  19
ENDBRANCH  11  16
ENDBRANCH   1  15
TORSDOF 4
ENDMDL
MODEL 7
REMARK VINA RESULT:      -6.2      1.907      2.818
REMARK  Name = 
REMARK  5 active torsions:
REMARK  status: ('A' for Active; 'I' for Inactive)
REMARK    1  A    between atoms: C_1  and  O_2
REMARK    2  A    between atoms: O_2  and  C_3
REMARK    3  A    between atoms: C_3  and  C_5
REMARK    4  A    between atoms: N_9  and  S_10
REMARK    5  A    between atoms: S_10  and  C_13
REMARK                            x       y       z     vdW  Elec       q    Type
REMARK                         _______ _______ _______ _____ _____    ______ ____
ROOT
ATOM      1  S   UNL     1       5.360   4.946  18.143  0.00  0.00    +0.000 S 
ATOM      2  O   UNL     1       4.942   6.324  18.309  0.00  0.00    +0.000 OA
ATOM      3  O   UNL     1       6.407   4.370  18.953  0.00  0.00    +0.000 OA
ENDROOT
BRANCH   1   4
ATOM      4  C   UNL     1       5.832   4.769  16.432  0.00  0.00    +0.000 A 
ATOM      5  C   UNL     1       7.107   5.177  16.029  0.00  0.00    +0.000 A 
ATOM      6  C   UNL     1       7.500   4.996  14.700  0.00  0.00    +0.000 A 
ATOM      7  C   UNL     1       6.624   4.403  13.788  0.00  0.00    +0.000 A 
ATOM      8 CL   UNL     1       7.114   4.182  12.155  0.00  0.00    +0.000 Cl
ATOM      9  C   UNL     1       5.358   3.983  14.195  0.00  0.00    +0.000 A 
ATOM     10  C   UNL     1       4.956   4.164  15.522  0.00  0.00    +0.000 A 
ENDBRANCH   1   4
BRANCH   1  15
ATOM     11  C   UNL     1       2.785   4.685  18.807  0.00  0.00    +0.000 C 
ATOM     12  S   UNL     1       2.806   4.445  20.606  0.00  0.00    +0.000 S 
ATOM     13  C   UNL     1       3.612   2.837  20.475  0.00  0.00    +0.000 C 
ATOM     14  C   UNL     1       4.161   2.693  19.055  0.00  0.00    +0.000 C 
ATOM     15  N   UNL     1       3.985   3.963  18.288  0.00  0.00    +0.000 NA
BRANCH  11  16
ATOM     16  C   UNL     1       1.483   4.055  18.278  0.00  0.00    +0.000 C 
ATOM     17  O   UNL     1       1.120   4.064  17.103  0.00  0.00    +0.000 OA
BRANCH  16  19
ATOM     18  C   UNL     1       0.479   2.042  18.941  0.00  0.00    +0.000 C 
ATOM     19  O   UNL     1       0.820   3.392  19.272  0.00  0.00    +0.000 OA
ENDBRANCH  16  19
ENDBRANCH  11  16
ENDBRANCH   1  15
TORSDOF 4
ENDMDL
MODEL 8
REMARK VINA RESULT:      -6.1      1.930      3.014
REMARK  Name = 
REMARK  5 active torsions:
REMARK  status: ('A' for Active; 'I' for Inactive)
REMARK    1  A    between atoms: C_1  and  O_2
REMARK    2  A    between atoms: O_2  and  C_3
REMARK    3  A    between atoms: C_3  and  C_5
REMARK    4  A    between atoms: N_9  and  S_10
REMARK    5  A    between atoms: S_10  and  C_13
REMARK                            x       y       z     vdW  Elec       q    Type
REMARK                         _______ _______ _______ _____ _____    ______ ____
ROOT
ATOM      1  S   UNL     1       5.359   5.028  17.981  0.00  0.00    +0.000 S 
ATOM      2  O   UNL     1       4.927   6.411  18.027  0.00  0.00    +0.000 OA
ATOM      3  O   UNL     1       6.389   4.528  18.861  0.00  0.00    +0.000 OA
ENDROOT
BRANCH   1   4
ATOM      4  C   UNL     1       5.877   4.720  16.303  0.00  0.00    +0.000 A 
ATOM      5  C   UNL     1       4.996   4.088  15.420  0.00  0.00    +0.000 A 
ATOM      6  C   UNL     1       5.378   3.887  14.091  0.00  0.00    +0.000 A 
ATOM      7  C   UNL     1       6.629   4.325  13.651  0.00  0.00    +0.000 A 
ATOM      8 CL   UNL     1       7.093   4.078  12.015  0.00  0.00    +0.000 Cl
ATOM      9  C   UNL     1       7.501   4.969  14.530  0.00  0.00    +0.000 A 
ATOM     10  C   UNL     1       7.127   5.170  15.862  0.00  0.00    +0.000 A 
ENDBRANCH   1   4
BRANCH   1  15
ATOM     11  C   UNL     1       2.811   4.765  18.745  0.00  0.00    +0.000 C 
ATOM     12  S   UNL     1       2.904   4.503  20.539  0.00  0.00    +0.000 S 
ATOM     13  C   UNL     1       3.699   2.894  20.356  0.00  0.00    +0.000 C 
ATOM     14  C   UNL     1       4.191   2.766  18.914  0.00  0.00    +0.000 C 
ATOM     15  N   UNL     1       3.988   4.046  18.170  0.00  0.00    +0.000 NA
BRANCH  11  16
ATOM     16  C   UNL     1       1.488   4.144  18.260  0.00  0.00    +0.000 C 
ATOM     17  O   UNL     1       1.092   4.143  17.096  0.00  0.00    +0.000 OA
BRANCH  16  19
ATOM     18  C   UNL     1       0.549   2.130  19.009  0.00  0.00    +0.000 C 
ATOM     19  O   UNL     1       0.844   3.503  19.282  0.00  0.00    +0.000 OA
ENDBRANCH  16  19
ENDBRANCH  11  16
ENDBRANCH   1  15
TORSDOF 4
ENDMDL
MODEL 9
REMARK VINA RESULT:      -6.0      2.155      2.326
REMARK  Name = 
REMARK  5 active torsions:
REMARK  status: ('A' for Active; 'I' for Inactive)
REMARK    1  A    between atoms: C_1  and  O_2
REMARK    2  A    between atoms: O_2  and  C_3
REMARK    3  A    between atoms: C_3  and  C_5
REMARK    4  A    between atoms: N_9  and  S_10
REMARK    5  A    between atoms: S_10  and  C_13
REMARK                            x       y       z     vdW  Elec       q    Type
REMARK                         _______ _______ _______ _____ _____    ______ ____
ROOT
ATOM      1  S   UNL     1       4.447   3.747  18.495  0.00  0.00    +0.000 S 
ATOM      2  O   UNL     1       4.927   3.060  19.678  0.00  0.00    +0.000 OA
ATOM      3  O   UNL     1       4.302   3.065  17.231  0.00  0.00    +0.000 OA
ENDROOT
BRANCH   1   4
ATOM      4  C   UNL     1       5.538   5.136  18.245  0.00  0.00    +0.000 A 
ATOM      5  C   UNL     1       6.737   5.201  18.959  0.00  0.00    +0.000 A 
ATOM      6  C   UNL     1       7.619   6.262  18.732  0.00  0.00    +0.000 A 
ATOM      7  C   UNL     1       7.301   7.242  17.789  0.00  0.00    +0.000 A 
ATOM      8 CL   UNL     1       8.389   8.544  17.512  0.00  0.00    +0.000 Cl
ATOM      9  C   UNL     1       6.110   7.168  17.067  0.00  0.00    +0.000 A 
ATOM     10  C   UNL     1       5.222   6.112  17.292  0.00  0.00    +0.000 A 
ENDBRANCH   1   4
BRANCH   1  15
ATOM     11  C   UNL     1       2.890   5.002  20.269  0.00  0.00    +0.000 C 
ATOM     12  S   UNL     1       2.191   3.665  21.279  0.00  0.00    +0.000 S 
ATOM     13  C   UNL     1       1.220   3.012  19.906  0.00  0.00    +0.000 C 
ATOM     14  C   UNL     1       1.741   3.638  18.612  0.00  0.00    +0.000 C 
ATOM     15  N   UNL     1       2.958   4.464  18.876  0.00  0.00    +0.000 NA
BRANCH  11  16
ATOM     16  C   UNL     1       1.923   6.197  20.359  0.00  0.00    +0.000 C 
ATOM     17  O   UNL     1       0.869   6.207  20.993  0.00  0.00    +0.000 OA
BRANCH  16  19
ATOM     18  C   UNL     1       1.565   8.426  19.727  0.00  0.00    +0.000 C 
ATOM     19  O   UNL     1       2.435   7.290  19.717  0.00  0.00    +0.000 OA
ENDBRANCH  16  19
ENDBRANCH  11  16
ENDBRANCH   1  15
TORSDOF 4
ENDMDL
