MODEL 1
REMARK VINA RESULT:      -8.7      0.000      0.000
REMARK  Name = 
REMARK  6 active torsions:
REMARK  status: ('A' for Active; 'I' for Inactive)
REMARK    1  A    between atoms: C_2  and  C_3
REMARK    2  A    between atoms: C_3  and  C_4
REMARK    3  A    between atoms: C_4  and  C_5
REMARK    4  A    between atoms: C_5  and  C_6
REMARK    5  A    between atoms: N_12  and  C_13
REMARK    6  A    between atoms: N_17  and  C_18
REMARK                            x       y       z     vdW  Elec       q    Type
REMARK                         _______ _______ _______ _____ _____    ______ ____
ROOT
ATOM      1  O   UNL     1       7.429   6.315  16.214  0.00  0.00    +0.000 OA
ATOM      2  C   UNL     1       7.142   6.928  17.235  0.00  0.00    +0.000 C 
ATOM      3  N   UNL     1       5.848   7.076  17.686  0.00  0.00    +0.000 N 
ATOM      4  H   UNL     1       5.694   7.637  18.516  0.00  0.00    +0.000 HD
ENDROOT
BRANCH   3   5
ATOM      5  C   UNL     1       4.687   6.596  16.934  0.00  0.00    +0.000 C 
ATOM      6  C   UNL     1       3.522   7.559  17.096  0.00  0.00    +0.000 C 
ATOM      7  C   UNL     1       2.806   7.029  18.313  0.00  0.00    +0.000 C 
ATOM      8  O   UNL     1       2.015   7.714  18.951  0.00  0.00    +0.000 OA
ATOM      9  N   UNL     1       3.160   5.683  18.485  0.00  0.00    +0.000 N 
ATOM     10  C   UNL     1       4.101   5.280  17.458  0.00  0.00    +0.000 C 
BRANCH   9  11
ATOM     11  C   UNL     1       2.554   4.766  19.393  0.00  0.00    +0.000 A 
ATOM     12  C   UNL     1       2.994   4.646  20.721  0.00  0.00    +0.000 A 
ATOM     13  C   UNL     1       2.365   3.784  21.626  0.00  0.00    +0.000 A 
ATOM     14  C   UNL     1       1.290   3.019  21.208  0.00  0.00    +0.000 A 
ATOM     15  F   UNL     1       0.678   2.203  22.076  0.00  0.00    +0.000 F 
ATOM     16  C   UNL     1       0.842   3.093  19.898  0.00  0.00    +0.000 A 
ATOM     17  C   UNL     1       1.471   3.963  18.995  0.00  0.00    +0.000 A 
ENDBRANCH   9  11
ENDBRANCH   3   5
BRANCH   2  18
ATOM     18  C   UNL     1       8.172   7.643  18.097  0.00  0.00    +0.000 C 
BRANCH  18  19
ATOM     19  C   UNL     1       8.144   9.169  17.939  0.00  0.00    +0.000 C 
BRANCH  19  20
ATOM     20  C   UNL     1       9.102   9.884  18.898  0.00  0.00    +0.000 C 
BRANCH  20  21
ATOM     21  C   UNL     1       9.716  11.152  18.355  0.00  0.00    +0.000 A 
ATOM     22  C   UNL     1       8.887  12.208  17.945  0.00  0.00    +0.000 A 
ATOM     23  C   UNL     1       9.434  13.416  17.504  0.00  0.00    +0.000 A 
ATOM     24  C   UNL     1      10.816  13.579  17.463  0.00  0.00    +0.000 A 
ATOM     25  C   UNL     1      11.651  12.538  17.864  0.00  0.00    +0.000 A 
ATOM     26  C   UNL     1      11.104  11.331  18.311  0.00  0.00    +0.000 A 
ENDBRANCH  20  21
ENDBRANCH  19  20
ENDBRANCH  18  19
ENDBRANCH   2  18
TORSDOF 6
ENDMDL
MODEL 2
REMARK VINA RESULT:      -8.5      2.402      2.939
REMARK  Name = 
REMARK  6 active torsions:
REMARK  status: ('A' for Active; 'I' for Inactive)
REMARK    1  A    between atoms: C_2  and  C_3
REMARK    2  A    between atoms: C_3  and  C_4
REMARK    3  A    between atoms: C_4  and  C_5
REMARK    4  A    between atoms: C_5  and  C_6
REMARK    5  A    between atoms: N_12  and  C_13
REMARK    6  A    between atoms: N_17  and  C_18
REMARK                            x       y       z     vdW  Elec       q    Type
REMARK                         _______ _______ _______ _____ _____    ______ ____
ROOT
ATOM      1  O   UNL     1       7.958   6.588  18.960  0.00  0.00    +0.000 OA
ATOM      2  C   UNL     1       7.635   7.135  17.912  0.00  0.00    +0.000 C 
ATOM      3  N   UNL     1       7.298   6.438  16.772  0.00  0.00    +0.000 N 
ATOM      4  H   UNL     1       7.086   6.968  15.934  0.00  0.00    +0.000 HD
ENDROOT
BRANCH   3   5
ATOM      5  C   UNL     1       7.386   4.979  16.678  0.00  0.00    +0.000 C 
ATOM      6  C   UNL     1       6.960   4.515  15.295  0.00  0.00    +0.000 C 
ATOM      7  C   UNL     1       5.475   4.298  15.448  0.00  0.00    +0.000 C 
ATOM      8  O   UNL     1       4.724   4.239  14.482  0.00  0.00    +0.000 OA
ATOM      9  N   UNL     1       5.192   4.120  16.811  0.00  0.00    +0.000 N 
ATOM     10  C   UNL     1       6.409   4.231  17.592  0.00  0.00    +0.000 C 
BRANCH   9  11
ATOM     11  C   UNL     1       3.948   3.693  17.359  0.00  0.00    +0.000 A 
ATOM     12  C   UNL     1       2.880   4.585  17.545  0.00  0.00    +0.000 A 
ATOM     13  C   UNL     1       1.642   4.155  18.034  0.00  0.00    +0.000 A 
ATOM     14  C   UNL     1       1.459   2.821  18.357  0.00  0.00    +0.000 A 
ATOM     15  F   UNL     1       0.272   2.404  18.813  0.00  0.00    +0.000 F 
ATOM     16  C   UNL     1       2.498   1.914  18.209  0.00  0.00    +0.000 A 
ATOM     17  C   UNL     1       3.736   2.348  17.712  0.00  0.00    +0.000 A 
ENDBRANCH   9  11
ENDBRANCH   3   5
BRANCH   2  18
ATOM     18  C   UNL     1       7.619   8.645  17.729  0.00  0.00    +0.000 C 
BRANCH  18  19
ATOM     19  C   UNL     1       9.005   9.289  17.865  0.00  0.00    +0.000 C 
BRANCH  19  20
ATOM     20  C   UNL     1       9.089  10.283  19.027  0.00  0.00    +0.000 C 
BRANCH  20  21
ATOM     21  C   UNL     1      10.254  11.242  18.962  0.00  0.00    +0.000 A 
ATOM     22  C   UNL     1      10.721  11.688  17.715  0.00  0.00    +0.000 A 
ATOM     23  C   UNL     1      11.752  12.627  17.634  0.00  0.00    +0.000 A 
ATOM     24  C   UNL     1      12.332  13.127  18.797  0.00  0.00    +0.000 A 
ATOM     25  C   UNL     1      11.880  12.691  20.040  0.00  0.00    +0.000 A 
ATOM     26  C   UNL     1      10.844  11.754  20.124  0.00  0.00    +0.000 A 
ENDBRANCH  20  21
ENDBRANCH  19  20
ENDBRANCH  18  19
ENDBRANCH   2  18
TORSDOF 6
ENDMDL
MODEL 3
REMARK VINA RESULT:      -8.5      2.439      3.109
REMARK  Name = 
REMARK  6 active torsions:
REMARK  status: ('A' for Active; 'I' for Inactive)
REMARK    1  A    between atoms: C_2  and  C_3
REMARK    2  A    between atoms: C_3  and  C_4
REMARK    3  A    between atoms: C_4  and  C_5
REMARK    4  A    between atoms: C_5  and  C_6
REMARK    5  A    between atoms: N_12  and  C_13
REMARK    6  A    between atoms: N_17  and  C_18
REMARK                            x       y       z     vdW  Elec       q    Type
REMARK                         _______ _______ _______ _____ _____    ______ ____
ROOT
ATOM      1  O   UNL     1       8.119   6.605  18.932  0.00  0.00    +0.000 OA
ATOM      2  C   UNL     1       7.773   7.152  17.892  0.00  0.00    +0.000 C 
ATOM      3  N   UNL     1       7.374   6.456  16.771  0.00  0.00    +0.000 N 
ATOM      4  H   UNL     1       7.145   6.984  15.937  0.00  0.00    +0.000 HD
ENDROOT
BRANCH   3   5
ATOM      5  C   UNL     1       7.420   4.994  16.688  0.00  0.00    +0.000 C 
ATOM      6  C   UNL     1       7.015   4.535  15.297  0.00  0.00    +0.000 C 
ATOM      7  C   UNL     1       5.520   4.364  15.414  0.00  0.00    +0.000 C 
ATOM      8  O   UNL     1       4.792   4.322  14.430  0.00  0.00    +0.000 OA
ATOM      9  N   UNL     1       5.198   4.204  16.770  0.00  0.00    +0.000 N 
ATOM     10  C   UNL     1       6.398   4.282  17.581  0.00  0.00    +0.000 C 
BRANCH   9  11
ATOM     11  C   UNL     1       3.928   3.818  17.289  0.00  0.00    +0.000 A 
ATOM     12  C   UNL     1       3.603   2.470  17.514  0.00  0.00    +0.000 A 
ATOM     13  C   UNL     1       2.376   2.095  18.072  0.00  0.00    +0.000 A 
ATOM     14  C   UNL     1       1.450   3.068  18.404  0.00  0.00    +0.000 A 
ATOM     15  F   UNL     1       0.280   2.714  18.951  0.00  0.00    +0.000 F 
ATOM     16  C   UNL     1       1.725   4.408  18.176  0.00  0.00    +0.000 A 
ATOM     17  C   UNL     1       2.959   4.781  17.621  0.00  0.00    +0.000 A 
ENDBRANCH   9  11
ENDBRANCH   3   5
BRANCH   2  18
ATOM     18  C   UNL     1       7.790   8.661  17.696  0.00  0.00    +0.000 C 
BRANCH  18  19
ATOM     19  C   UNL     1       8.797   9.380  18.603  0.00  0.00    +0.000 C 
BRANCH  19  20
ATOM     20  C   UNL     1       9.180  10.770  18.083  0.00  0.00    +0.000 C 
BRANCH  20  21
ATOM     21  C   UNL     1       9.369  11.819  19.152  0.00  0.00    +0.000 A 
ATOM     22  C   UNL     1       9.025  13.154  18.889  0.00  0.00    +0.000 A 
ATOM     23  C   UNL     1       9.127  14.128  19.885  0.00  0.00    +0.000 A 
ATOM     24  C   UNL     1       9.579  13.779  21.156  0.00  0.00    +0.000 A 
ATOM     25  C   UNL     1       9.925  12.458  21.430  0.00  0.00    +0.000 A 
ATOM     26  C   UNL     1       9.818  11.481  20.435  0.00  0.00    +0.000 A 
ENDBRANCH  20  21
ENDBRANCH  19  20
ENDBRANCH  18  19
ENDBRANCH   2  18
TORSDOF 6
ENDMDL
MODEL 4
REMARK VINA RESULT:      -8.4      2.346      2.860
REMARK  Name = 
REMARK  6 active torsions:
REMARK  status: ('A' for Active; 'I' for Inactive)
REMARK    1  A    between atoms: C_2  and  C_3
REMARK    2  A    between atoms: C_3  and  C_4
REMARK    3  A    between atoms: C_4  and  C_5
REMARK    4  A    between atoms: C_5  and  C_6
REMARK    5  A    between atoms: N_12  and  C_13
REMARK    6  A    between atoms: N_17  and  C_18
REMARK                            x       y       z     vdW  Elec       q    Type
REMARK                         _______ _______ _______ _____ _____    ______ ____
ROOT
ATOM      1  O   UNL     1       8.185   6.734  18.949  0.00  0.00    +0.000 OA
ATOM      2  C   UNL     1       7.757   7.273  17.936  0.00  0.00    +0.000 C 
ATOM      3  N   UNL     1       7.324   6.568  16.834  0.00  0.00    +0.000 N 
ATOM      4  H   UNL     1       7.025   7.092  16.020  0.00  0.00    +0.000 HD
ENDROOT
BRANCH   3   5
ATOM      5  C   UNL     1       7.425   5.110  16.735  0.00  0.00    +0.000 C 
ATOM      6  C   UNL     1       7.040   4.651  15.339  0.00  0.00    +0.000 C 
ATOM      7  C   UNL     1       5.554   4.422  15.450  0.00  0.00    +0.000 C 
ATOM      8  O   UNL     1       4.830   4.363  14.464  0.00  0.00    +0.000 OA
ATOM      9  N   UNL     1       5.235   4.235  16.804  0.00  0.00    +0.000 N 
ATOM     10  C   UNL     1       6.430   4.350  17.618  0.00  0.00    +0.000 C 
BRANCH   9  11
ATOM     11  C   UNL     1       3.980   3.795  17.316  0.00  0.00    +0.000 A 
ATOM     12  C   UNL     1       3.745   2.446  17.630  0.00  0.00    +0.000 A 
ATOM     13  C   UNL     1       2.530   2.023  18.182  0.00  0.00    +0.000 A 
ATOM     14  C   UNL     1       1.527   2.948  18.417  0.00  0.00    +0.000 A 
ATOM     15  F   UNL     1       0.369   2.548  18.957  0.00  0.00    +0.000 F 
ATOM     16  C   UNL     1       1.713   4.284  18.098  0.00  0.00    +0.000 A 
ATOM     17  C   UNL     1       2.935   4.705  17.551  0.00  0.00    +0.000 A 
ENDBRANCH   9  11
ENDBRANCH   3   5
BRANCH   2  18
ATOM     18  C   UNL     1       7.700   8.782  17.753  0.00  0.00    +0.000 C 
BRANCH  18  19
ATOM     19  C   UNL     1       9.048   9.475  17.993  0.00  0.00    +0.000 C 
BRANCH  19  20
ATOM     20  C   UNL     1       9.007  10.471  19.156  0.00  0.00    +0.000 C 
BRANCH  20  21
ATOM     21  C   UNL     1       9.989  11.614  19.049  0.00  0.00    +0.000 A 
ATOM     22  C   UNL     1       9.715  12.692  18.193  0.00  0.00    +0.000 A 
ATOM     23  C   UNL     1      10.575  13.791  18.130  0.00  0.00    +0.000 A 
ATOM     24  C   UNL     1      11.722  13.822  18.919  0.00  0.00    +0.000 A 
ATOM     25  C   UNL     1      12.008  12.758  19.772  0.00  0.00    +0.000 A 
ATOM     26  C   UNL     1      11.145  11.660  19.839  0.00  0.00    +0.000 A 
ENDBRANCH  20  21
ENDBRANCH  19  20
ENDBRANCH  18  19
ENDBRANCH   2  18
TORSDOF 6
ENDMDL
MODEL 5
REMARK VINA RESULT:      -8.1      2.301      2.946
REMARK  Name = 
REMARK  6 active torsions:
REMARK  status: ('A' for Active; 'I' for Inactive)
REMARK    1  A    between atoms: C_2  and  C_3
REMARK    2  A    between atoms: C_3  and  C_4
REMARK    3  A    between atoms: C_4  and  C_5
REMARK    4  A    between atoms: C_5  and  C_6
REMARK    5  A    between atoms: N_12  and  C_13
REMARK    6  A    between atoms: N_17  and  C_18
REMARK                            x       y       z     vdW  Elec       q    Type
REMARK                         _______ _______ _______ _____ _____    ______ ____
ROOT
ATOM      1  O   UNL     1       8.490   7.059  18.926  0.00  0.00    +0.000 OA
ATOM      2  C   UNL     1       7.960   7.524  17.925  0.00  0.00    +0.000 C 
ATOM      3  N   UNL     1       7.427   6.742  16.922  0.00  0.00    +0.000 N 
ATOM      4  H   UNL     1       7.046   7.208  16.106  0.00  0.00    +0.000 HD
ENDROOT
BRANCH   3   5
ATOM      5  C   UNL     1       7.532   5.282  16.915  0.00  0.00    +0.000 C 
ATOM      6  C   UNL     1       7.210   4.739  15.533  0.00  0.00    +0.000 C 
ATOM      7  C   UNL     1       5.719   4.514  15.592  0.00  0.00    +0.000 C 
ATOM      8  O   UNL     1       5.040   4.394  14.580  0.00  0.00    +0.000 OA
ATOM      9  N   UNL     1       5.341   4.407  16.939  0.00  0.00    +0.000 N 
ATOM     10  C   UNL     1       6.498   4.573  17.797  0.00  0.00    +0.000 C 
BRANCH   9  11
ATOM     11  C   UNL     1       4.064   3.996  17.420  0.00  0.00    +0.000 A 
ATOM     12  C   UNL     1       3.113   4.927  17.870  0.00  0.00    +0.000 A 
ATOM     13  C   UNL     1       1.840   4.527  18.294  0.00  0.00    +0.000 A 
ATOM     14  C   UNL     1       1.506   3.184  18.283  0.00  0.00    +0.000 A 
ATOM     15  F   UNL     1       0.285   2.800  18.675  0.00  0.00    +0.000 F 
ATOM     16  C   UNL     1       2.426   2.233  17.868  0.00  0.00    +0.000 A 
ATOM     17  C   UNL     1       3.699   2.639  17.438  0.00  0.00    +0.000 A 
ENDBRANCH   9  11
ENDBRANCH   3   5
BRANCH   2  18
ATOM     18  C   UNL     1       7.871   9.017  17.644  0.00  0.00    +0.000 C 
BRANCH  18  19
ATOM     19  C   UNL     1       8.397   9.885  18.795  0.00  0.00    +0.000 C 
BRANCH  19  20
ATOM     20  C   UNL     1       9.865  10.285  18.616  0.00  0.00    +0.000 C 
BRANCH  20  21
ATOM     21  C   UNL     1      10.087  11.724  18.214  0.00  0.00    +0.000 A 
ATOM     22  C   UNL     1      11.202  12.067  17.434  0.00  0.00    +0.000 A 
ATOM     23  C   UNL     1      11.390  13.379  16.993  0.00  0.00    +0.000 A 
ATOM     24  C   UNL     1      10.467  14.365  17.331  0.00  0.00    +0.000 A 
ATOM     25  C   UNL     1       9.356  14.039  18.107  0.00  0.00    +0.000 A 
ATOM     26  C   UNL     1       9.164  12.725  18.544  0.00  0.00    +0.000 A 
ENDBRANCH  20  21
ENDBRANCH  19  20
ENDBRANCH  18  19
ENDBRANCH   2  18
TORSDOF 6
ENDMDL
MODEL 6
REMARK VINA RESULT:      -7.9      1.017      1.396
REMARK  Name = 
REMARK  6 active torsions:
REMARK  status: ('A' for Active; 'I' for Inactive)
REMARK    1  A    between atoms: C_2  and  C_3
REMARK    2  A    between atoms: C_3  and  C_4
REMARK    3  A    between atoms: C_4  and  C_5
REMARK    4  A    between atoms: C_5  and  C_6
REMARK    5  A    between atoms: N_12  and  C_13
REMARK    6  A    between atoms: N_17  and  C_18
REMARK                            x       y       z     vdW  Elec       q    Type
REMARK                         _______ _______ _______ _____ _____    ______ ____
ROOT
ATOM      1  O   UNL     1       7.486   6.254  16.295  0.00  0.00    +0.000 OA
ATOM      2  C   UNL     1       7.206   6.964  17.253  0.00  0.00    +0.000 C 
ATOM      3  N   UNL     1       5.912   7.181  17.677  0.00  0.00    +0.000 N 
ATOM      4  H   UNL     1       5.764   7.819  18.451  0.00  0.00    +0.000 HD
ENDROOT
BRANCH   3   5
ATOM      5  C   UNL     1       4.745   6.660  16.962  0.00  0.00    +0.000 C 
ATOM      6  C   UNL     1       3.534   7.539  17.222  0.00  0.00    +0.000 C 
ATOM      7  C   UNL     1       2.914   6.916  18.448  0.00  0.00    +0.000 C 
ATOM      8  O   UNL     1       2.116   7.522  19.153  0.00  0.00    +0.000 OA
ATOM      9  N   UNL     1       3.358   5.589  18.542  0.00  0.00    +0.000 N 
ATOM     10  C   UNL     1       4.269   5.289  17.454  0.00  0.00    +0.000 C 
BRANCH   9  11
ATOM     11  C   UNL     1       2.857   4.598  19.436  0.00  0.00    +0.000 A 
ATOM     12  C   UNL     1       3.682   3.586  19.952  0.00  0.00    +0.000 A 
ATOM     13  C   UNL     1       3.203   2.645  20.870  0.00  0.00    +0.000 A 
ATOM     14  C   UNL     1       1.881   2.700  21.277  0.00  0.00    +0.000 A 
ATOM     15  F   UNL     1       1.422   1.809  22.165  0.00  0.00    +0.000 F 
ATOM     16  C   UNL     1       1.028   3.670  20.773  0.00  0.00    +0.000 A 
ATOM     17  C   UNL     1       1.515   4.615  19.857  0.00  0.00    +0.000 A 
ENDBRANCH   9  11
ENDBRANCH   3   5
BRANCH   2  18
ATOM     18  C   UNL     1       8.245   7.732  18.056  0.00  0.00    +0.000 C 
BRANCH  18  19
ATOM     19  C   UNL     1       7.913   9.222  18.214  0.00  0.00    +0.000 C 
BRANCH  19  20
ATOM     20  C   UNL     1       8.961  10.136  17.569  0.00  0.00    +0.000 C 
BRANCH  20  21
ATOM     21  C   UNL     1       9.807  10.919  18.545  0.00  0.00    +0.000 A 
ATOM     22  C   UNL     1      10.879  11.693  18.074  0.00  0.00    +0.000 A 
ATOM     23  C   UNL     1      11.632  12.478  18.950  0.00  0.00    +0.000 A 
ATOM     24  C   UNL     1      11.325  12.495  20.308  0.00  0.00    +0.000 A 
ATOM     25  C   UNL     1      10.265  11.730  20.789  0.00  0.00    +0.000 A 
ATOM     26  C   UNL     1       9.507  10.947  19.913  0.00  0.00    +0.000 A 
ENDBRANCH  20  21
ENDBRANCH  19  20
ENDBRANCH  18  19
ENDBRANCH   2  18
TORSDOF 6
ENDMDL
MODEL 7
REMARK VINA RESULT:      -7.8      2.208      2.991
REMARK  Name = 
REMARK  6 active torsions:
REMARK  status: ('A' for Active; 'I' for Inactive)
REMARK    1  A    between atoms: C_2  and  C_3
REMARK    2  A    between atoms: C_3  and  C_4
REMARK    3  A    between atoms: C_4  and  C_5
REMARK    4  A    between atoms: C_5  and  C_6
REMARK    5  A    between atoms: N_12  and  C_13
REMARK    6  A    between atoms: N_17  and  C_18
REMARK                            x       y       z     vdW  Elec       q    Type
REMARK                         _______ _______ _______ _____ _____    ______ ____
ROOT
ATOM      1  O   UNL     1       8.405   6.966  19.114  0.00  0.00    +0.000 OA
ATOM      2  C   UNL     1       7.993   7.400  18.046  0.00  0.00    +0.000 C 
ATOM      3  N   UNL     1       7.480   6.593  17.053  0.00  0.00    +0.000 N 
ATOM      4  H   UNL     1       7.202   7.028  16.181  0.00  0.00    +0.000 HD
ENDROOT
BRANCH   3   5
ATOM      5  C   UNL     1       7.467   5.131  17.146  0.00  0.00    +0.000 C 
ATOM      6  C   UNL     1       6.995   4.526  15.834  0.00  0.00    +0.000 C 
ATOM      7  C   UNL     1       5.501   4.433  16.018  0.00  0.00    +0.000 C 
ATOM      8  O   UNL     1       4.737   4.303  15.070  0.00  0.00    +0.000 OA
ATOM      9  N   UNL     1       5.222   4.449  17.393  0.00  0.00    +0.000 N 
ATOM     10  C   UNL     1       6.453   4.574  18.150  0.00  0.00    +0.000 C 
BRANCH   9  11
ATOM     11  C   UNL     1       3.958   4.182  17.995  0.00  0.00    +0.000 A 
ATOM     12  C   UNL     1       2.878   5.071  17.865  0.00  0.00    +0.000 A 
ATOM     13  C   UNL     1       1.623   4.783  18.412  0.00  0.00    +0.000 A 
ATOM     14  C   UNL     1       1.434   3.602  19.108  0.00  0.00    +0.000 A 
ATOM     15  F   UNL     1       0.231   3.317  19.621  0.00  0.00    +0.000 F 
ATOM     16  C   UNL     1       2.483   2.710  19.277  0.00  0.00    +0.000 A 
ATOM     17  C   UNL     1       3.738   2.999  18.722  0.00  0.00    +0.000 A 
ENDBRANCH   9  11
ENDBRANCH   3   5
BRANCH   2  18
ATOM     18  C   UNL     1       8.047   8.872  17.665  0.00  0.00    +0.000 C 
BRANCH  18  19
ATOM     19  C   UNL     1       8.946   9.705  18.588  0.00  0.00    +0.000 C 
BRANCH  19  20
ATOM     20  C   UNL     1       9.551  10.926  17.885  0.00  0.00    +0.000 C 
BRANCH  20  21
ATOM     21  C   UNL     1       8.807  12.221  18.109  0.00  0.00    +0.000 A 
ATOM     22  C   UNL     1       9.094  13.004  19.238  0.00  0.00    +0.000 A 
ATOM     23  C   UNL     1       8.468  14.238  19.430  0.00  0.00    +0.000 A 
ATOM     24  C   UNL     1       7.544  14.701  18.498  0.00  0.00    +0.000 A 
ATOM     25  C   UNL     1       7.247  13.933  17.374  0.00  0.00    +0.000 A 
ATOM     26  C   UNL     1       7.877  12.700  17.178  0.00  0.00    +0.000 A 
ENDBRANCH  20  21
ENDBRANCH  19  20
ENDBRANCH  18  19
ENDBRANCH   2  18
TORSDOF 6
ENDMDL
MODEL 8
REMARK VINA RESULT:      -7.8      5.207      7.414
REMARK  Name = 
REMARK  6 active torsions:
REMARK  status: ('A' for Active; 'I' for Inactive)
REMARK    1  A    between atoms: C_2  and  C_3
REMARK    2  A    between atoms: C_3  and  C_4
REMARK    3  A    between atoms: C_4  and  C_5
REMARK    4  A    between atoms: C_5  and  C_6
REMARK    5  A    between atoms: N_12  and  C_13
REMARK    6  A    between atoms: N_17  and  C_18
REMARK                            x       y       z     vdW  Elec       q    Type
REMARK                         _______ _______ _______ _____ _____    ______ ____
ROOT
ATOM      1  O   UNL     1       7.276   4.956  18.691  0.00  0.00    +0.000 OA
ATOM      2  C   UNL     1       6.675   4.552  17.702  0.00  0.00    +0.000 C 
ATOM      3  N   UNL     1       5.370   4.111  17.743  0.00  0.00    +0.000 N 
ATOM      4  H   UNL     1       4.961   3.752  16.888  0.00  0.00    +0.000 HD
ENDROOT
BRANCH   3   5
ATOM      5  C   UNL     1       4.610   3.995  18.990  0.00  0.00    +0.000 C 
ATOM      6  C   UNL     1       3.263   3.343  18.724  0.00  0.00    +0.000 C 
ATOM      7  C   UNL     1       2.366   4.518  18.425  0.00  0.00    +0.000 C 
ATOM      8  O   UNL     1       1.294   4.387  17.848  0.00  0.00    +0.000 OA
ATOM      9  N   UNL     1       2.949   5.671  18.974  0.00  0.00    +0.000 N 
ATOM     10  C   UNL     1       4.210   5.338  19.609  0.00  0.00    +0.000 C 
BRANCH   9  11
ATOM     11  C   UNL     1       2.330   6.949  19.087  0.00  0.00    +0.000 A 
ATOM     12  C   UNL     1       1.776   7.394  20.299  0.00  0.00    +0.000 A 
ATOM     13  C   UNL     1       1.216   8.670  20.424  0.00  0.00    +0.000 A 
ATOM     14  C   UNL     1       1.192   9.517  19.330  0.00  0.00    +0.000 A 
ATOM     15  F   UNL     1       0.668  10.743  19.450  0.00  0.00    +0.000 F 
ATOM     16  C   UNL     1       1.708   9.105  18.110  0.00  0.00    +0.000 A 
ATOM     17  C   UNL     1       2.275   7.827  17.991  0.00  0.00    +0.000 A 
ENDBRANCH   9  11
ENDBRANCH   3   5
BRANCH   2  18
ATOM     18  C   UNL     1       7.313   4.440  16.326  0.00  0.00    +0.000 C 
BRANCH  18  19
ATOM     19  C   UNL     1       6.362   3.880  15.259  0.00  0.00    +0.000 C 
BRANCH  19  20
ATOM     20  C   UNL     1       6.692   4.378  13.848  0.00  0.00    +0.000 C 
BRANCH  20  21
ATOM     21  C   UNL     1       6.060   3.583  12.730  0.00  0.00    +0.000 A 
ATOM     22  C   UNL     1       6.783   2.547  12.116  0.00  0.00    +0.000 A 
ATOM     23  C   UNL     1       6.194   1.754  11.128  0.00  0.00    +0.000 A 
ATOM     24  C   UNL     1       4.878   1.991  10.738  0.00  0.00    +0.000 A 
ATOM     25  C   UNL     1       4.150   3.016  11.338  0.00  0.00    +0.000 A 
ATOM     26  C   UNL     1       4.737   3.808  12.331  0.00  0.00    +0.000 A 
ENDBRANCH  20  21
ENDBRANCH  19  20
ENDBRANCH  18  19
ENDBRANCH   2  18
TORSDOF 6
ENDMDL
MODEL 9
REMARK VINA RESULT:      -7.8      1.493      1.792
REMARK  Name = 
REMARK  6 active torsions:
REMARK  status: ('A' for Active; 'I' for Inactive)
REMARK    1  A    between atoms: C_2  and  C_3
REMARK    2  A    between atoms: C_3  and  C_4
REMARK    3  A    between atoms: C_4  and  C_5
REMARK    4  A    between atoms: C_5  and  C_6
REMARK    5  A    between atoms: N_12  and  C_13
REMARK    6  A    between atoms: N_17  and  C_18
REMARK                            x       y       z     vdW  Elec       q    Type
REMARK                         _______ _______ _______ _____ _____    ______ ____
ROOT
ATOM      1  O   UNL     1       7.919   7.093  16.406  0.00  0.00    +0.000 OA
ATOM      2  C   UNL     1       7.650   7.039  17.600  0.00  0.00    +0.000 C 
ATOM      3  N   UNL     1       6.709   6.178  18.121  0.00  0.00    +0.000 N 
ATOM      4  H   UNL     1       6.516   6.228  19.115  0.00  0.00    +0.000 HD
ENDROOT
BRANCH   3   5
ATOM      5  C   UNL     1       5.873   5.314  17.284  0.00  0.00    +0.000 C 
ATOM      6  C   UNL     1       4.686   6.096  16.746  0.00  0.00    +0.000 C 
ATOM      7  C   UNL     1       3.632   5.889  17.805  0.00  0.00    +0.000 C 
ATOM      8  O   UNL     1       2.652   6.619  17.898  0.00  0.00    +0.000 OA
ATOM      9  N   UNL     1       3.959   4.738  18.537  0.00  0.00    +0.000 N 
ATOM     10  C   UNL     1       5.197   4.168  18.043  0.00  0.00    +0.000 C 
BRANCH   9  11
ATOM     11  C   UNL     1       3.124   4.086  19.491  0.00  0.00    +0.000 A 
ATOM     12  C   UNL     1       3.640   3.152  20.404  0.00  0.00    +0.000 A 
ATOM     13  C   UNL     1       2.830   2.551  21.374  0.00  0.00    +0.000 A 
ATOM     14  C   UNL     1       1.485   2.869  21.434  0.00  0.00    +0.000 A 
ATOM     15  F   UNL     1       0.710   2.305  22.369  0.00  0.00    +0.000 F 
ATOM     16  C   UNL     1       0.933   3.769  20.535  0.00  0.00    +0.000 A 
ATOM     17  C   UNL     1       1.750   4.375  19.568  0.00  0.00    +0.000 A 
ENDBRANCH   9  11
ENDBRANCH   3   5
BRANCH   2  18
ATOM     18  C   UNL     1       8.284   7.950  18.641  0.00  0.00    +0.000 C 
BRANCH  18  19
ATOM     19  C   UNL     1       8.201   9.438  18.278  0.00  0.00    +0.000 C 
BRANCH  19  20
ATOM     20  C   UNL     1       9.578  10.101  18.161  0.00  0.00    +0.000 C 
BRANCH  20  21
ATOM     21  C   UNL     1       9.879  11.130  19.224  0.00  0.00    +0.000 A 
ATOM     22  C   UNL     1      10.739  12.201  18.934  0.00  0.00    +0.000 A 
ATOM     23  C   UNL     1      10.977  13.202  19.880  0.00  0.00    +0.000 A 
ATOM     24  C   UNL     1      10.363  13.140  21.128  0.00  0.00    +0.000 A 
ATOM     25  C   UNL     1       9.509  12.082  21.430  0.00  0.00    +0.000 A 
ATOM     26  C   UNL     1       9.266  11.082  20.483  0.00  0.00    +0.000 A 
ENDBRANCH  20  21
ENDBRANCH  19  20
ENDBRANCH  18  19
ENDBRANCH   2  18
TORSDOF 6
ENDMDL
