MODEL 1
REMARK VINA RESULT:      -8.3      0.000      0.000
REMARK  Name = 
REMARK  14 active torsions:
REMARK  status: ('A' for Active; 'I' for Inactive)
REMARK    1  A    between atoms: C_1  and  C_2
REMARK    2  A    between atoms: C_2  and  C_3
REMARK    3  A    between atoms: C_3  and  C_4
REMARK    4  A    between atoms: C_4  and  C_5
REMARK    5  A    between atoms: C_5  and  N_6
REMARK    6  A    between atoms: N_9  and  C_10
REMARK    7  A    between atoms: C_11  and  O_12
REMARK    8  A    between atoms: O_12  and  C_13
REMARK    9  A    between atoms: C_13  and  C_14
REMARK   10  A    between atoms: C_14  and  C_15
REMARK   11  A    between atoms: C_15  and  N_16
REMARK   12  A    between atoms: C_19  and  C_20
REMARK   13  A    between atoms: C_26  and  C_27
REMARK   14  A    between atoms: C_31  and  N_32
REMARK                            x       y       z     vdW  Elec       q    Type
REMARK                         _______ _______ _______ _____ _____    ______ ____
ROOT
ATOM      1  C   UNL     1       3.477   4.330  19.704  0.00  0.00    +0.000 A 
ATOM      2  C   UNL     1       2.490   5.280  20.075  0.00  0.00    +0.000 A 
ATOM      3  C   UNL     1       1.217   4.847  20.490  0.00  0.00    +0.000 A 
ATOM      4  C   UNL     1       0.885   3.497  20.499  0.00  0.00    +0.000 A 
ATOM      5  C   UNL     1       1.836   2.550  20.137  0.00  0.00    +0.000 A 
ATOM      6  C   UNL     1       3.122   2.959  19.760  0.00  0.00    +0.000 A 
ENDROOT
BRANCH   1  10
ATOM      7  N   UNL     1       6.363   5.397  17.776  0.00  0.00    +0.000 N 
ATOM      8  C   UNL     1       5.054   5.046  17.994  0.00  0.00    +0.000 C 
ATOM      9  O   UNL     1       4.213   5.021  17.083  0.00  0.00    +0.000 OA
ATOM     10  N   UNL     1       4.778   4.718  19.295  0.00  0.00    +0.000 N 
ATOM     11  H   UNL     1       7.054   4.904  18.329  0.00  0.00    +0.000 HD
ATOM     12  H   UNL     1       5.447   5.008  19.998  0.00  0.00    +0.000 HD
BRANCH   7  13
ATOM     13  C   UNL     1       6.740   5.760  16.424  0.00  0.00    +0.000 C 
BRANCH  13  14
ATOM     14  C   UNL     1       6.873   4.554  15.507  0.00  0.00    +0.000 C 
BRANCH  14  15
ATOM     15  C   UNL     1       6.144   4.794  14.185  0.00  0.00    +0.000 C 
BRANCH  15  17
ATOM     16  C   UNL     1       6.987   3.912  11.982  0.00  0.00    +0.000 C 
ATOM     17  C   UNL     1       6.244   3.578  13.265  0.00  0.00    +0.000 C 
ENDBRANCH  15  17
ENDBRANCH  14  15
ENDBRANCH  13  14
ENDBRANCH   7  13
ENDBRANCH   1  10
BRANCH   6  18
ATOM     18  N   UNL     1       4.114   1.909  19.540  0.00  0.00    +0.000 N 
ATOM     19  O   UNL     1       3.932   1.134  18.611  0.00  0.00    +0.000 OA
ATOM     20  O   UNL     1       5.065   1.849  20.361  0.00  0.00    +0.000 OA
ENDBRANCH   6  18
BRANCH   2  21
ATOM     21  O   UNL     1       2.573   6.651  20.066  0.00  0.00    +0.000 OA
BRANCH  21  22
ATOM     22  C   UNL     1       2.242   7.346  18.874  0.00  0.00    +0.000 C 
BRANCH  22  23
ATOM     23  C   UNL     1       1.828   8.780  19.138  0.00  0.00    +0.000 C 
BRANCH  23  24
ATOM     24  C   UNL     1       1.129   8.822  20.483  0.00  0.00    +0.000 C 
BRANCH  24  25
ATOM     25  N   UNL     1       0.321  10.001  20.694  0.00  0.00    +0.000 N 
ATOM     26  C   UNL     1       0.014  10.943  19.757  0.00  0.00    +0.000 A 
ATOM     27  N   UNL     1      -0.725  11.904  20.268  0.00  0.00    +0.000 NA
ATOM     28  C   UNL     1      -0.848  11.590  21.598  0.00  0.00    +0.000 A 
ATOM     29  C   UNL     1      -0.235  10.385  21.892  0.00  0.00    +0.000 A 
ATOM     30  C   UNL     1      -0.141   9.590  23.138  0.00  0.00    +0.000 C 
BRANCH  28  31
ATOM     31  C   UNL     1      -1.536  12.436  22.546  0.00  0.00    +0.000 A 
ATOM     32  C   UNL     1      -0.925  13.596  23.026  0.00  0.00    +0.000 A 
ATOM     33  C   UNL     1      -1.590  14.396  23.953  0.00  0.00    +0.000 A 
ATOM     34  C   UNL     1      -2.865  14.045  24.394  0.00  0.00    +0.000 A 
ATOM     35  C   UNL     1      -3.482  12.893  23.920  0.00  0.00    +0.000 A 
ATOM     36  C   UNL     1      -2.808  12.082  23.019  0.00  0.00    +0.000 A 
ENDBRANCH  28  31
ENDBRANCH  24  25
ENDBRANCH  23  24
ENDBRANCH  22  23
ENDBRANCH  21  22
ENDBRANCH   2  21
TORSDOF 12
ENDMDL
MODEL 2
REMARK VINA RESULT:      -8.1      1.322      1.769
REMARK  Name = 
REMARK  14 active torsions:
REMARK  status: ('A' for Active; 'I' for Inactive)
REMARK    1  A    between atoms: C_1  and  C_2
REMARK    2  A    between atoms: C_2  and  C_3
REMARK    3  A    between atoms: C_3  and  C_4
REMARK    4  A    between atoms: C_4  and  C_5
REMARK    5  A    between atoms: C_5  and  N_6
REMARK    6  A    between atoms: N_9  and  C_10
REMARK    7  A    between atoms: C_11  and  O_12
REMARK    8  A    between atoms: O_12  and  C_13
REMARK    9  A    between atoms: C_13  and  C_14
REMARK   10  A    between atoms: C_14  and  C_15
REMARK   11  A    between atoms: C_15  and  N_16
REMARK   12  A    between atoms: C_19  and  C_20
REMARK   13  A    between atoms: C_26  and  C_27
REMARK   14  A    between atoms: C_31  and  N_32
REMARK                            x       y       z     vdW  Elec       q    Type
REMARK                         _______ _______ _______ _____ _____    ______ ____
ROOT
ATOM      1  C   UNL     1       2.787   5.091  18.434  0.00  0.00    +0.000 A 
ATOM      2  C   UNL     1       2.506   6.221  19.246  0.00  0.00    +0.000 A 
ATOM      3  C   UNL     1       1.818   6.060  20.463  0.00  0.00    +0.000 A 
ATOM      4  C   UNL     1       1.360   4.812  20.870  0.00  0.00    +0.000 A 
ATOM      5  C   UNL     1       1.621   3.693  20.087  0.00  0.00    +0.000 A 
ATOM      6  C   UNL     1       2.340   3.827  18.892  0.00  0.00    +0.000 A 
ENDROOT
BRANCH   1  10
ATOM      7  N   UNL     1       5.364   5.172  15.877  0.00  0.00    +0.000 N 
ATOM      8  C   UNL     1       4.848   5.028  17.141  0.00  0.00    +0.000 C 
ATOM      9  O   UNL     1       5.560   4.775  18.124  0.00  0.00    +0.000 OA
ATOM     10  N   UNL     1       3.491   5.202  17.208  0.00  0.00    +0.000 N 
ATOM     11  H   UNL     1       4.915   5.865  15.289  0.00  0.00    +0.000 HD
ATOM     12  H   UNL     1       2.974   5.152  16.339  0.00  0.00    +0.000 HD
BRANCH   7  13
ATOM     13  C   UNL     1       6.795   5.003  15.718  0.00  0.00    +0.000 C 
BRANCH  13  14
ATOM     14  C   UNL     1       7.188   4.630  14.297  0.00  0.00    +0.000 C 
BRANCH  14  15
ATOM     15  C   UNL     1       6.075   3.832  13.617  0.00  0.00    +0.000 C 
BRANCH  15  17
ATOM     16  C   UNL     1       5.780   2.218  11.707  0.00  0.00    +0.000 C 
ATOM     17  C   UNL     1       6.423   3.517  12.164  0.00  0.00    +0.000 C 
ENDBRANCH  15  17
ENDBRANCH  14  15
ENDBRANCH  13  14
ENDBRANCH   7  13
ENDBRANCH   1  10
BRANCH   6  18
ATOM     18  N   UNL     1       2.710   2.595  18.199  0.00  0.00    +0.000 N 
ATOM     19  O   UNL     1       3.465   1.819  18.771  0.00  0.00    +0.000 OA
ATOM     20  O   UNL     1       2.261   2.445  17.033  0.00  0.00    +0.000 OA
ENDBRANCH   6  18
BRANCH   2  21
ATOM     21  O   UNL     1       2.793   7.543  19.005  0.00  0.00    +0.000 OA
BRANCH  21  22
ATOM     22  C   UNL     1       2.180   8.182  17.897  0.00  0.00    +0.000 C 
BRANCH  22  23
ATOM     23  C   UNL     1       1.735   9.595  18.219  0.00  0.00    +0.000 C 
BRANCH  23  24
ATOM     24  C   UNL     1       0.325   9.522  18.773  0.00  0.00    +0.000 C 
BRANCH  24  25
ATOM     25  N   UNL     1       0.165  10.147  20.067  0.00  0.00    +0.000 N 
ATOM     26  C   UNL     1       0.810   9.793  21.215  0.00  0.00    +0.000 A 
ATOM     27  N   UNL     1       0.433  10.544  22.226  0.00  0.00    +0.000 NA
ATOM     28  C   UNL     1      -0.533  11.374  21.715  0.00  0.00    +0.000 A 
ATOM     29  C   UNL     1      -0.699  11.175  20.355  0.00  0.00    +0.000 A 
ATOM     30  C   UNL     1      -1.550  11.848  19.345  0.00  0.00    +0.000 C 
BRANCH  28  31
ATOM     31  C   UNL     1      -1.266  12.321  22.521  0.00  0.00    +0.000 A 
ATOM     32  C   UNL     1      -0.745  13.594  22.759  0.00  0.00    +0.000 A 
ATOM     33  C   UNL     1      -1.452  14.496  23.552  0.00  0.00    +0.000 A 
ATOM     34  C   UNL     1      -2.682  14.132  24.099  0.00  0.00    +0.000 A 
ATOM     35  C   UNL     1      -3.210  12.867  23.865  0.00  0.00    +0.000 A 
ATOM     36  C   UNL     1      -2.492  11.961  23.100  0.00  0.00    +0.000 A 
ENDBRANCH  28  31
ENDBRANCH  24  25
ENDBRANCH  23  24
ENDBRANCH  22  23
ENDBRANCH  21  22
ENDBRANCH   2  21
TORSDOF 12
ENDMDL
MODEL 3
REMARK VINA RESULT:      -8.0      1.009      1.100
REMARK  Name = 
REMARK  14 active torsions:
REMARK  status: ('A' for Active; 'I' for Inactive)
REMARK    1  A    between atoms: C_1  and  C_2
REMARK    2  A    between atoms: C_2  and  C_3
REMARK    3  A    between atoms: C_3  and  C_4
REMARK    4  A    between atoms: C_4  and  C_5
REMARK    5  A    between atoms: C_5  and  N_6
REMARK    6  A    between atoms: N_9  and  C_10
REMARK    7  A    between atoms: C_11  and  O_12
REMARK    8  A    between atoms: O_12  and  C_13
REMARK    9  A    between atoms: C_13  and  C_14
REMARK   10  A    between atoms: C_14  and  C_15
REMARK   11  A    between atoms: C_15  and  N_16
REMARK   12  A    between atoms: C_19  and  C_20
REMARK   13  A    between atoms: C_26  and  C_27
REMARK   14  A    between atoms: C_31  and  N_32
REMARK                            x       y       z     vdW  Elec       q    Type
REMARK                         _______ _______ _______ _____ _____    ______ ____
ROOT
ATOM      1  C   UNL     1       3.865   4.104  19.425  0.00  0.00    +0.000 A 
ATOM      2  C   UNL     1       3.137   5.241  19.865  0.00  0.00    +0.000 A 
ATOM      3  C   UNL     1       2.101   5.092  20.805  0.00  0.00    +0.000 A 
ATOM      4  C   UNL     1       1.739   3.838  21.283  0.00  0.00    +0.000 A 
ATOM      5  C   UNL     1       2.437   2.711  20.862  0.00  0.00    +0.000 A 
ATOM      6  C   UNL     1       3.499   2.844  19.957  0.00  0.00    +0.000 A 
ENDROOT
BRANCH   1  10
ATOM      7  N   UNL     1       5.858   4.182  16.390  0.00  0.00    +0.000 N 
ATOM      8  C   UNL     1       4.720   4.049  17.146  0.00  0.00    +0.000 C 
ATOM      9  O   UNL     1       3.614   3.798  16.644  0.00  0.00    +0.000 OA
ATOM     10  N   UNL     1       4.927   4.208  18.491  0.00  0.00    +0.000 N 
ATOM     11  H   UNL     1       6.714   3.842  16.811  0.00  0.00    +0.000 HD
ATOM     12  H   UNL     1       5.790   4.654  18.777  0.00  0.00    +0.000 HD
BRANCH   7  13
ATOM     13  C   UNL     1       5.725   4.029  14.954  0.00  0.00    +0.000 C 
BRANCH  13  14
ATOM     14  C   UNL     1       7.007   4.364  14.207  0.00  0.00    +0.000 C 
BRANCH  14  15
ATOM     15  C   UNL     1       6.786   4.301  12.695  0.00  0.00    +0.000 C 
BRANCH  15  17
ATOM     16  C   UNL     1       6.102   2.156  11.566  0.00  0.00    +0.000 C 
ATOM     17  C   UNL     1       5.625   3.374  12.340  0.00  0.00    +0.000 C 
ENDBRANCH  15  17
ENDBRANCH  14  15
ENDBRANCH  13  14
ENDBRANCH   7  13
ENDBRANCH   1  10
BRANCH   6  18
ATOM     18  N   UNL     1       4.284   1.644  19.677  0.00  0.00    +0.000 N 
ATOM     19  O   UNL     1       3.939   0.940  18.737  0.00  0.00    +0.000 OA
ATOM     20  O   UNL     1       5.236   1.396  20.461  0.00  0.00    +0.000 OA
ENDBRANCH   6  18
BRANCH   2  21
ATOM     21  O   UNL     1       3.270   6.550  19.472  0.00  0.00    +0.000 OA
BRANCH  21  22
ATOM     22  C   UNL     1       2.616   6.977  18.287  0.00  0.00    +0.000 C 
BRANCH  22  23
ATOM     23  C   UNL     1       2.032   8.369  18.419  0.00  0.00    +0.000 C 
BRANCH  23  24
ATOM     24  C   UNL     1       1.530   8.529  19.842  0.00  0.00    +0.000 C 
BRANCH  24  25
ATOM     25  N   UNL     1       0.702   9.695  20.050  0.00  0.00    +0.000 N 
ATOM     26  C   UNL     1       0.244  10.538  19.081  0.00  0.00    +0.000 A 
ATOM     27  N   UNL     1      -0.469  11.516  19.596  0.00  0.00    +0.000 NA
ATOM     28  C   UNL     1      -0.418  11.319  20.953  0.00  0.00    +0.000 A 
ATOM     29  C   UNL     1       0.279  10.166  21.270  0.00  0.00    +0.000 A 
ATOM     30  C   UNL     1       0.556   9.490  22.558  0.00  0.00    +0.000 C 
BRANCH  28  31
ATOM     31  C   UNL     1      -1.022  12.223  21.904  0.00  0.00    +0.000 A 
ATOM     32  C   UNL     1      -0.369  13.402  22.267  0.00  0.00    +0.000 A 
ATOM     33  C   UNL     1      -0.953  14.260  23.197  0.00  0.00    +0.000 A 
ATOM     34  C   UNL     1      -2.191  13.947  23.757  0.00  0.00    +0.000 A 
ATOM     35  C   UNL     1      -2.850  12.776  23.400  0.00  0.00    +0.000 A 
ATOM     36  C   UNL     1      -2.255  11.909  22.495  0.00  0.00    +0.000 A 
ENDBRANCH  28  31
ENDBRANCH  24  25
ENDBRANCH  23  24
ENDBRANCH  22  23
ENDBRANCH  21  22
ENDBRANCH   2  21
TORSDOF 12
ENDMDL
MODEL 4
REMARK VINA RESULT:      -7.9      0.957      1.681
REMARK  Name = 
REMARK  14 active torsions:
REMARK  status: ('A' for Active; 'I' for Inactive)
REMARK    1  A    between atoms: C_1  and  C_2
REMARK    2  A    between atoms: C_2  and  C_3
REMARK    3  A    between atoms: C_3  and  C_4
REMARK    4  A    between atoms: C_4  and  C_5
REMARK    5  A    between atoms: C_5  and  N_6
REMARK    6  A    between atoms: N_9  and  C_10
REMARK    7  A    between atoms: C_11  and  O_12
REMARK    8  A    between atoms: O_12  and  C_13
REMARK    9  A    between atoms: C_13  and  C_14
REMARK   10  A    between atoms: C_14  and  C_15
REMARK   11  A    between atoms: C_15  and  N_16
REMARK   12  A    between atoms: C_19  and  C_20
REMARK   13  A    between atoms: C_26  and  C_27
REMARK   14  A    between atoms: C_31  and  N_32
REMARK                            x       y       z     vdW  Elec       q    Type
REMARK                         _______ _______ _______ _____ _____    ______ ____
ROOT
ATOM      1  C   UNL     1       3.579   4.311  19.734  0.00  0.00    +0.000 A 
ATOM      2  C   UNL     1       2.653   5.319  20.112  0.00  0.00    +0.000 A 
ATOM      3  C   UNL     1       1.349   4.964  20.506  0.00  0.00    +0.000 A 
ATOM      4  C   UNL     1       0.928   3.639  20.489  0.00  0.00    +0.000 A 
ATOM      5  C   UNL     1       1.819   2.637  20.119  0.00  0.00    +0.000 A 
ATOM      6  C   UNL     1       3.134   2.967  19.762  0.00  0.00    +0.000 A 
ENDROOT
BRANCH   1  10
ATOM      7  N   UNL     1       6.545   5.258  17.864  0.00  0.00    +0.000 N 
ATOM      8  C   UNL     1       5.211   4.999  18.064  0.00  0.00    +0.000 C 
ATOM      9  O   UNL     1       4.372   5.093  17.156  0.00  0.00    +0.000 OA
ATOM     10  N   UNL     1       4.908   4.619  19.345  0.00  0.00    +0.000 N 
ATOM     11  H   UNL     1       7.194   4.681  18.386  0.00  0.00    +0.000 HD
ATOM     12  H   UNL     1       5.596   4.814  20.062  0.00  0.00    +0.000 HD
BRANCH   7  13
ATOM     13  C   UNL     1       6.952   5.668  16.534  0.00  0.00    +0.000 C 
BRANCH  13  14
ATOM     14  C   UNL     1       7.184   4.489  15.602  0.00  0.00    +0.000 C 
BRANCH  14  15
ATOM     15  C   UNL     1       6.778   4.841  14.171  0.00  0.00    +0.000 C 
BRANCH  15  17
ATOM     16  C   UNL     1       6.248   3.395  12.177  0.00  0.00    +0.000 C 
ATOM     17  C   UNL     1       5.835   3.790  13.585  0.00  0.00    +0.000 C 
ENDBRANCH  15  17
ENDBRANCH  14  15
ENDBRANCH  13  14
ENDBRANCH   7  13
ENDBRANCH   1  10
BRANCH   6  18
ATOM     18  N   UNL     1       4.056   1.857  19.533  0.00  0.00    +0.000 N 
ATOM     19  O   UNL     1       5.044   1.775  20.250  0.00  0.00    +0.000 OA
ATOM     20  O   UNL     1       3.788   1.089  18.573  0.00  0.00    +0.000 OA
ENDBRANCH   6  18
BRANCH   2  21
ATOM     21  O   UNL     1       2.827   6.681  20.128  0.00  0.00    +0.000 OA
BRANCH  21  22
ATOM     22  C   UNL     1       1.724   7.513  19.808  0.00  0.00    +0.000 C 
BRANCH  22  23
ATOM     23  C   UNL     1       1.269   8.350  20.987  0.00  0.00    +0.000 C 
BRANCH  23  24
ATOM     24  C   UNL     1       0.532   9.559  20.442  0.00  0.00    +0.000 C 
BRANCH  24  25
ATOM     25  N   UNL     1      -0.188  10.314  21.442  0.00  0.00    +0.000 N 
ATOM     26  C   UNL     1      -0.294   9.998  22.764  0.00  0.00    +0.000 A 
ATOM     27  N   UNL     1      -1.032  10.876  23.408  0.00  0.00    +0.000 NA
ATOM     28  C   UNL     1      -1.458  11.757  22.446  0.00  0.00    +0.000 A 
ATOM     29  C   UNL     1      -0.918  11.454  21.209  0.00  0.00    +0.000 A 
ATOM     30  C   UNL     1      -1.011  12.120  19.889  0.00  0.00    +0.000 C 
BRANCH  28  31
ATOM     31  C   UNL     1      -2.360  12.851  22.724  0.00  0.00    +0.000 A 
ATOM     32  C   UNL     1      -3.741  12.656  22.663  0.00  0.00    +0.000 A 
ATOM     33  C   UNL     1      -4.603  13.721  22.916  0.00  0.00    +0.000 A 
ATOM     34  C   UNL     1      -4.089  14.976  23.239  0.00  0.00    +0.000 A 
ATOM     35  C   UNL     1      -2.715  15.179  23.305  0.00  0.00    +0.000 A 
ATOM     36  C   UNL     1      -1.858  14.125  23.025  0.00  0.00    +0.000 A 
ENDBRANCH  28  31
ENDBRANCH  24  25
ENDBRANCH  23  24
ENDBRANCH  22  23
ENDBRANCH  21  22
ENDBRANCH   2  21
TORSDOF 12
ENDMDL
MODEL 5
REMARK VINA RESULT:      -7.8      0.729      1.284
REMARK  Name = 
REMARK  14 active torsions:
REMARK  status: ('A' for Active; 'I' for Inactive)
REMARK    1  A    between atoms: C_1  and  C_2
REMARK    2  A    between atoms: C_2  and  C_3
REMARK    3  A    between atoms: C_3  and  C_4
REMARK    4  A    between atoms: C_4  and  C_5
REMARK    5  A    between atoms: C_5  and  N_6
REMARK    6  A    between atoms: N_9  and  C_10
REMARK    7  A    between atoms: C_11  and  O_12
REMARK    8  A    between atoms: O_12  and  C_13
REMARK    9  A    between atoms: C_13  and  C_14
REMARK   10  A    between atoms: C_14  and  C_15
REMARK   11  A    between atoms: C_15  and  N_16
REMARK   12  A    between atoms: C_19  and  C_20
REMARK   13  A    between atoms: C_26  and  C_27
REMARK   14  A    between atoms: C_31  and  N_32
REMARK                            x       y       z     vdW  Elec       q    Type
REMARK                         _______ _______ _______ _____ _____    ______ ____
ROOT
ATOM      1  C   UNL     1       3.403   4.446  19.650  0.00  0.00    +0.000 A 
ATOM      2  C   UNL     1       2.439   5.402  20.066  0.00  0.00    +0.000 A 
ATOM      3  C   UNL     1       1.232   4.976  20.650  0.00  0.00    +0.000 A 
ATOM      4  C   UNL     1       0.938   3.624  20.787  0.00  0.00    +0.000 A 
ATOM      5  C   UNL     1       1.867   2.672  20.383  0.00  0.00    +0.000 A 
ATOM      6  C   UNL     1       3.092   3.077  19.837  0.00  0.00    +0.000 A 
ENDROOT
BRANCH   1  10
ATOM      7  N   UNL     1       6.024   5.445  17.344  0.00  0.00    +0.000 N 
ATOM      8  C   UNL     1       4.756   5.089  17.731  0.00  0.00    +0.000 C 
ATOM      9  O   UNL     1       3.815   5.005  16.928  0.00  0.00    +0.000 OA
ATOM     10  N   UNL     1       4.640   4.828  19.071  0.00  0.00    +0.000 N 
ATOM     11  H   UNL     1       6.784   4.991  17.836  0.00  0.00    +0.000 HD
ATOM     12  H   UNL     1       5.381   5.164  19.675  0.00  0.00    +0.000 HD
BRANCH   7  13
ATOM     13  C   UNL     1       6.234   5.739  15.939  0.00  0.00    +0.000 C 
BRANCH  13  14
ATOM     14  C   UNL     1       7.067   4.679  15.235  0.00  0.00    +0.000 C 
BRANCH  14  15
ATOM     15  C   UNL     1       6.173   3.728  14.438  0.00  0.00    +0.000 C 
BRANCH  15  17
ATOM     16  C   UNL     1       5.343   3.234  12.112  0.00  0.00    +0.000 C 
ATOM     17  C   UNL     1       6.487   3.789  12.944  0.00  0.00    +0.000 C 
ENDBRANCH  15  17
ENDBRANCH  14  15
ENDBRANCH  13  14
ENDBRANCH   7  13
ENDBRANCH   1  10
BRANCH   6  18
ATOM     18  N   UNL     1       4.080   2.032  19.577  0.00  0.00    +0.000 N 
ATOM     19  O   UNL     1       5.031   1.939  20.340  0.00  0.00    +0.000 OA
ATOM     20  O   UNL     1       3.902   1.331  18.547  0.00  0.00    +0.000 OA
ENDBRANCH   6  18
BRANCH   2  21
ATOM     21  O   UNL     1       2.486   6.770  19.956  0.00  0.00    +0.000 OA
BRANCH  21  22
ATOM     22  C   UNL     1       1.759   7.555  20.888  0.00  0.00    +0.000 C 
BRANCH  22  23
ATOM     23  C   UNL     1       1.350   8.898  20.318  0.00  0.00    +0.000 C 
BRANCH  23  24
ATOM     24  C   UNL     1      -0.164   8.985  20.373  0.00  0.00    +0.000 C 
BRANCH  24  25
ATOM     25  N   UNL     1      -0.670  10.304  20.677  0.00  0.00    +0.000 N 
ATOM     26  C   UNL     1      -0.962  11.281  19.772  0.00  0.00    +0.000 A 
ATOM     27  N   UNL     1      -1.387  12.373  20.367  0.00  0.00    +0.000 NA
ATOM     28  C   UNL     1      -1.312  12.101  21.710  0.00  0.00    +0.000 A 
ATOM     29  C   UNL     1      -0.900  10.799  21.938  0.00  0.00    +0.000 A 
ATOM     30  C   UNL     1      -0.726  10.010  23.180  0.00  0.00    +0.000 C 
BRANCH  28  31
ATOM     31  C   UNL     1      -1.626  13.073  22.731  0.00  0.00    +0.000 A 
ATOM     32  C   UNL     1      -2.828  12.988  23.436  0.00  0.00    +0.000 A 
ATOM     33  C   UNL     1      -3.130  13.940  24.408  0.00  0.00    +0.000 A 
ATOM     34  C   UNL     1      -2.230  14.970  24.682  0.00  0.00    +0.000 A 
ATOM     35  C   UNL     1      -1.030  15.061  23.987  0.00  0.00    +0.000 A 
ATOM     36  C   UNL     1      -0.743  14.129  23.001  0.00  0.00    +0.000 A 
ENDBRANCH  28  31
ENDBRANCH  24  25
ENDBRANCH  23  24
ENDBRANCH  22  23
ENDBRANCH  21  22
ENDBRANCH   2  21
TORSDOF 12
ENDMDL
MODEL 6
REMARK VINA RESULT:      -7.7      2.048      2.713
REMARK  Name = 
REMARK  14 active torsions:
REMARK  status: ('A' for Active; 'I' for Inactive)
REMARK    1  A    between atoms: C_1  and  C_2
REMARK    2  A    between atoms: C_2  and  C_3
REMARK    3  A    between atoms: C_3  and  C_4
REMARK    4  A    between atoms: C_4  and  C_5
REMARK    5  A    between atoms: C_5  and  N_6
REMARK    6  A    between atoms: N_9  and  C_10
REMARK    7  A    between atoms: C_11  and  O_12
REMARK    8  A    between atoms: O_12  and  C_13
REMARK    9  A    between atoms: C_13  and  C_14
REMARK   10  A    between atoms: C_14  and  C_15
REMARK   11  A    between atoms: C_15  and  N_16
REMARK   12  A    between atoms: C_19  and  C_20
REMARK   13  A    between atoms: C_26  and  C_27
REMARK   14  A    between atoms: C_31  and  N_32
REMARK                            x       y       z     vdW  Elec       q    Type
REMARK                         _______ _______ _______ _____ _____    ______ ____
ROOT
ATOM      1  C   UNL     1       3.464   4.311  19.671  0.00  0.00    +0.000 A 
ATOM      2  C   UNL     1       2.545   5.279  20.153  0.00  0.00    +0.000 A 
ATOM      3  C   UNL     1       1.312   4.870  20.695  0.00  0.00    +0.000 A 
ATOM      4  C   UNL     1       0.951   3.529  20.728  0.00  0.00    +0.000 A 
ATOM      5  C   UNL     1       1.836   2.564  20.259  0.00  0.00    +0.000 A 
ATOM      6  C   UNL     1       3.085   2.948  19.752  0.00  0.00    +0.000 A 
ENDROOT
BRANCH   1  10
ATOM      7  N   UNL     1       6.159   5.323  17.457  0.00  0.00    +0.000 N 
ATOM      8  C   UNL     1       4.872   4.997  17.808  0.00  0.00    +0.000 C 
ATOM      9  O   UNL     1       3.941   4.990  16.988  0.00  0.00    +0.000 OA
ATOM     10  N   UNL     1       4.724   4.674  19.131  0.00  0.00    +0.000 N 
ATOM     11  H   UNL     1       6.893   4.816  17.937  0.00  0.00    +0.000 HD
ATOM     12  H   UNL     1       5.467   4.950  19.761  0.00  0.00    +0.000 HD
BRANCH   7  13
ATOM     13  C   UNL     1       6.402   5.679  16.073  0.00  0.00    +0.000 C 
BRANCH  13  14
ATOM     14  C   UNL     1       7.101   4.574  15.296  0.00  0.00    +0.000 C 
BRANCH  14  15
ATOM     15  C   UNL     1       6.098   3.780  14.459  0.00  0.00    +0.000 C 
BRANCH  15  17
ATOM     16  C   UNL     1       5.251   3.405  12.117  0.00  0.00    +0.000 C 
ATOM     17  C   UNL     1       6.420   3.871  12.969  0.00  0.00    +0.000 C 
ENDBRANCH  15  17
ENDBRANCH  14  15
ENDBRANCH  13  14
ENDBRANCH   7  13
ENDBRANCH   1  10
BRANCH   6  18
ATOM     18  N   UNL     1       4.022   1.878  19.419  0.00  0.00    +0.000 N 
ATOM     19  O   UNL     1       3.758   1.161  18.463  0.00  0.00    +0.000 OA
ATOM     20  O   UNL     1       5.015   1.740  20.179  0.00  0.00    +0.000 OA
ENDBRANCH   6  18
BRANCH   2  21
ATOM     21  O   UNL     1       2.659   6.648  20.147  0.00  0.00    +0.000 OA
BRANCH  21  22
ATOM     22  C   UNL     1       1.484   7.430  20.008  0.00  0.00    +0.000 C 
BRANCH  22  23
ATOM     23  C   UNL     1       1.339   8.457  21.113  0.00  0.00    +0.000 C 
BRANCH  23  24
ATOM     24  C   UNL     1       0.020   9.177  20.908  0.00  0.00    +0.000 C 
BRANCH  24  25
ATOM     25  N   UNL     1       0.104  10.615  21.032  0.00  0.00    +0.000 N 
ATOM     26  C   UNL     1      -0.238  11.348  22.129  0.00  0.00    +0.000 A 
ATOM     27  N   UNL     1      -0.063  12.634  21.919  0.00  0.00    +0.000 NA
ATOM     28  C   UNL     1       0.356  12.729  20.616  0.00  0.00    +0.000 A 
ATOM     29  C   UNL     1       0.506  11.479  20.041  0.00  0.00    +0.000 A 
ATOM     30  C   UNL     1       0.986  11.043  18.709  0.00  0.00    +0.000 C 
BRANCH  28  31
ATOM     31  C   UNL     1       0.598  13.991  19.956  0.00  0.00    +0.000 A 
ATOM     32  C   UNL     1       1.893  14.506  19.876  0.00  0.00    +0.000 A 
ATOM     33  C   UNL     1       2.115  15.731  19.251  0.00  0.00    +0.000 A 
ATOM     34  C   UNL     1       1.048  16.438  18.699  0.00  0.00    +0.000 A 
ATOM     35  C   UNL     1      -0.246  15.932  18.771  0.00  0.00    +0.000 A 
ATOM     36  C   UNL     1      -0.468  14.726  19.417  0.00  0.00    +0.000 A 
ENDBRANCH  28  31
ENDBRANCH  24  25
ENDBRANCH  23  24
ENDBRANCH  22  23
ENDBRANCH  21  22
ENDBRANCH   2  21
TORSDOF 12
ENDMDL
MODEL 7
REMARK VINA RESULT:      -7.7      1.351      1.691
REMARK  Name = 
REMARK  14 active torsions:
REMARK  status: ('A' for Active; 'I' for Inactive)
REMARK    1  A    between atoms: C_1  and  C_2
REMARK    2  A    between atoms: C_2  and  C_3
REMARK    3  A    between atoms: C_3  and  C_4
REMARK    4  A    between atoms: C_4  and  C_5
REMARK    5  A    between atoms: C_5  and  N_6
REMARK    6  A    between atoms: N_9  and  C_10
REMARK    7  A    between atoms: C_11  and  O_12
REMARK    8  A    between atoms: O_12  and  C_13
REMARK    9  A    between atoms: C_13  and  C_14
REMARK   10  A    between atoms: C_14  and  C_15
REMARK   11  A    between atoms: C_15  and  N_16
REMARK   12  A    between atoms: C_19  and  C_20
REMARK   13  A    between atoms: C_26  and  C_27
REMARK   14  A    between atoms: C_31  and  N_32
REMARK                            x       y       z     vdW  Elec       q    Type
REMARK                         _______ _______ _______ _____ _____    ______ ____
ROOT
ATOM      1  C   UNL     1       2.669   4.585  18.709  0.00  0.00    +0.000 A 
ATOM      2  C   UNL     1       2.344   5.570  19.679  0.00  0.00    +0.000 A 
ATOM      3  C   UNL     1       1.775   5.185  20.908  0.00  0.00    +0.000 A 
ATOM      4  C   UNL     1       1.478   3.854  21.178  0.00  0.00    +0.000 A 
ATOM      5  C   UNL     1       1.786   2.875  20.240  0.00  0.00    +0.000 A 
ATOM      6  C   UNL     1       2.390   3.233  19.027  0.00  0.00    +0.000 A 
ENDROOT
BRANCH   1  10
ATOM      7  N   UNL     1       5.007   5.207  16.001  0.00  0.00    +0.000 N 
ATOM      8  C   UNL     1       4.611   4.843  17.264  0.00  0.00    +0.000 C 
ATOM      9  O   UNL     1       5.417   4.488  18.137  0.00  0.00    +0.000 OA
ATOM     10  N   UNL     1       3.258   4.923  17.464  0.00  0.00    +0.000 N 
ATOM     11  H   UNL     1       4.477   5.952  15.566  0.00  0.00    +0.000 HD
ATOM     12  H   UNL     1       2.670   4.973  16.641  0.00  0.00    +0.000 HD
BRANCH   7  13
ATOM     13  C   UNL     1       6.425   5.151  15.705  0.00  0.00    +0.000 C 
BRANCH  13  14
ATOM     14  C   UNL     1       6.742   4.262  14.513  0.00  0.00    +0.000 C 
BRANCH  14  15
ATOM     15  C   UNL     1       5.645   4.364  13.452  0.00  0.00    +0.000 C 
BRANCH  15  17
ATOM     16  C   UNL     1       4.529   3.167  11.538  0.00  0.00    +0.000 C 
ATOM     17  C   UNL     1       5.768   3.251  12.414  0.00  0.00    +0.000 C 
ENDBRANCH  15  17
ENDBRANCH  14  15
ENDBRANCH  13  14
ENDBRANCH   7  13
ENDBRANCH   1  10
BRANCH   6  18
ATOM     18  N   UNL     1       2.825   2.144  18.156  0.00  0.00    +0.000 N 
ATOM     19  O   UNL     1       3.700   1.394  18.568  0.00  0.00    +0.000 OA
ATOM     20  O   UNL     1       2.297   2.088  17.015  0.00  0.00    +0.000 OA
ENDBRANCH   6  18
BRANCH   2  21
ATOM     21  O   UNL     1       2.476   6.934  19.595  0.00  0.00    +0.000 OA
BRANCH  21  22
ATOM     22  C   UNL     1       1.758   7.747  20.509  0.00  0.00    +0.000 C 
BRANCH  22  23
ATOM     23  C   UNL     1       1.163   8.974  19.847  0.00  0.00    +0.000 C 
BRANCH  23  24
ATOM     24  C   UNL     1       1.194  10.106  20.856  0.00  0.00    +0.000 C 
BRANCH  24  25
ATOM     25  N   UNL     1      -0.010  10.905  20.886  0.00  0.00    +0.000 N 
ATOM     26  C   UNL     1      -0.429  11.764  19.914  0.00  0.00    +0.000 A 
ATOM     27  N   UNL     1      -1.555  12.354  20.250  0.00  0.00    +0.000 NA
ATOM     28  C   UNL     1      -1.838  11.894  21.511  0.00  0.00    +0.000 A 
ATOM     29  C   UNL     1      -0.908  10.956  21.926  0.00  0.00    +0.000 A 
ATOM     30  C   UNL     1      -0.802  10.130  23.151  0.00  0.00    +0.000 C 
BRANCH  28  31
ATOM     31  C   UNL     1      -2.969  12.353  22.283  0.00  0.00    +0.000 A 
ATOM     32  C   UNL     1      -2.920  12.341  23.678  0.00  0.00    +0.000 A 
ATOM     33  C   UNL     1      -4.023  12.771  24.414  0.00  0.00    +0.000 A 
ATOM     34  C   UNL     1      -5.169  13.221  23.759  0.00  0.00    +0.000 A 
ATOM     35  C   UNL     1      -5.225  13.239  22.370  0.00  0.00    +0.000 A 
ATOM     36  C   UNL     1      -4.138  12.785  21.639  0.00  0.00    +0.000 A 
ENDBRANCH  28  31
ENDBRANCH  24  25
ENDBRANCH  23  24
ENDBRANCH  22  23
ENDBRANCH  21  22
ENDBRANCH   2  21
TORSDOF 12
ENDMDL
MODEL 8
REMARK VINA RESULT:      -7.7      6.718     11.597
REMARK  Name = 
REMARK  14 active torsions:
REMARK  status: ('A' for Active; 'I' for Inactive)
REMARK    1  A    between atoms: C_1  and  C_2
REMARK    2  A    between atoms: C_2  and  C_3
REMARK    3  A    between atoms: C_3  and  C_4
REMARK    4  A    between atoms: C_4  and  C_5
REMARK    5  A    between atoms: C_5  and  N_6
REMARK    6  A    between atoms: N_9  and  C_10
REMARK    7  A    between atoms: C_11  and  O_12
REMARK    8  A    between atoms: O_12  and  C_13
REMARK    9  A    between atoms: C_13  and  C_14
REMARK   10  A    between atoms: C_14  and  C_15
REMARK   11  A    between atoms: C_15  and  N_16
REMARK   12  A    between atoms: C_19  and  C_20
REMARK   13  A    between atoms: C_26  and  C_27
REMARK   14  A    between atoms: C_31  and  N_32
REMARK                            x       y       z     vdW  Elec       q    Type
REMARK                         _______ _______ _______ _____ _____    ______ ____
ROOT
ATOM      1  C   UNL     1      10.014  13.030  18.468  0.00  0.00    +0.000 A 
ATOM      2  C   UNL     1       9.931  11.789  19.153  0.00  0.00    +0.000 A 
ATOM      3  C   UNL     1      11.033  11.319  19.891  0.00  0.00    +0.000 A 
ATOM      4  C   UNL     1      12.230  12.025  19.926  0.00  0.00    +0.000 A 
ATOM      5  C   UNL     1      12.333  13.240  19.259  0.00  0.00    +0.000 A 
ATOM      6  C   UNL     1      11.233  13.746  18.552  0.00  0.00    +0.000 A 
ENDROOT
BRANCH   1  10
ATOM      7  N   UNL     1       6.928  14.660  17.463  0.00  0.00    +0.000 N 
ATOM      8  C   UNL     1       7.897  14.224  18.333  0.00  0.00    +0.000 C 
ATOM      9  O   UNL     1       7.829  14.419  19.556  0.00  0.00    +0.000 OA
ATOM     10  N   UNL     1       8.925  13.553  17.725  0.00  0.00    +0.000 N 
ATOM     11  H   UNL     1       6.738  14.058  16.671  0.00  0.00    +0.000 HD
ATOM     12  H   UNL     1       9.023  13.664  16.723  0.00  0.00    +0.000 HD
BRANCH   7  13
ATOM     13  C   UNL     1       5.804  15.382  18.025  0.00  0.00    +0.000 C 
BRANCH  13  14
ATOM     14  C   UNL     1       4.511  14.583  17.982  0.00  0.00    +0.000 C 
BRANCH  14  15
ATOM     15  C   UNL     1       3.334  15.474  17.584  0.00  0.00    +0.000 C 
BRANCH  15  17
ATOM     16  C   UNL     1       2.069  17.260  18.830  0.00  0.00    +0.000 C 
ATOM     17  C   UNL     1       2.442  15.787  18.783  0.00  0.00    +0.000 C 
ENDBRANCH  15  17
ENDBRANCH  14  15
ENDBRANCH  13  14
ENDBRANCH   7  13
ENDBRANCH   1  10
BRANCH   6  18
ATOM     18  N   UNL     1      11.361  15.095  18.004  0.00  0.00    +0.000 N 
ATOM     19  O   UNL     1      11.537  16.018  18.788  0.00  0.00    +0.000 OA
ATOM     20  O   UNL     1      11.227  15.214  16.759  0.00  0.00    +0.000 OA
ENDBRANCH   6  18
BRANCH   2  21
ATOM     21  O   UNL     1       8.886  10.899  19.191  0.00  0.00    +0.000 OA
BRANCH  21  22
ATOM     22  C   UNL     1       8.709  10.009  18.101  0.00  0.00    +0.000 C 
BRANCH  22  23
ATOM     23  C   UNL     1       8.556   8.569  18.549  0.00  0.00    +0.000 C 
BRANCH  23  24
ATOM     24  C   UNL     1       7.652   7.867  17.553  0.00  0.00    +0.000 C 
BRANCH  24  25
ATOM     25  N   UNL     1       7.049   6.653  18.054  0.00  0.00    +0.000 N 
ATOM     26  C   UNL     1       7.632   5.757  18.901  0.00  0.00    +0.000 A 
ATOM     27  N   UNL     1       6.829   4.747  19.155  0.00  0.00    +0.000 NA
ATOM     28  C   UNL     1       5.710   4.980  18.395  0.00  0.00    +0.000 A 
ATOM     29  C   UNL     1       5.801   6.185  17.720  0.00  0.00    +0.000 A 
ATOM     30  C   UNL     1       4.854   6.911  16.842  0.00  0.00    +0.000 C 
BRANCH  28  31
ATOM     31  C   UNL     1       4.597   4.062  18.328  0.00  0.00    +0.000 A 
ATOM     32  C   UNL     1       4.408   3.112  19.334  0.00  0.00    +0.000 A 
ATOM     33  C   UNL     1       3.341   2.220  19.252  0.00  0.00    +0.000 A 
ATOM     34  C   UNL     1       2.458   2.280  18.174  0.00  0.00    +0.000 A 
ATOM     35  C   UNL     1       2.637   3.225  17.169  0.00  0.00    +0.000 A 
ATOM     36  C   UNL     1       3.716   4.094  17.238  0.00  0.00    +0.000 A 
ENDBRANCH  28  31
ENDBRANCH  24  25
ENDBRANCH  23  24
ENDBRANCH  22  23
ENDBRANCH  21  22
ENDBRANCH   2  21
TORSDOF 12
ENDMDL
MODEL 9
REMARK VINA RESULT:      -7.7      1.260      1.868
REMARK  Name = 
REMARK  14 active torsions:
REMARK  status: ('A' for Active; 'I' for Inactive)
REMARK    1  A    between atoms: C_1  and  C_2
REMARK    2  A    between atoms: C_2  and  C_3
REMARK    3  A    between atoms: C_3  and  C_4
REMARK    4  A    between atoms: C_4  and  C_5
REMARK    5  A    between atoms: C_5  and  N_6
REMARK    6  A    between atoms: N_9  and  C_10
REMARK    7  A    between atoms: C_11  and  O_12
REMARK    8  A    between atoms: O_12  and  C_13
REMARK    9  A    between atoms: C_13  and  C_14
REMARK   10  A    between atoms: C_14  and  C_15
REMARK   11  A    between atoms: C_15  and  N_16
REMARK   12  A    between atoms: C_19  and  C_20
REMARK   13  A    between atoms: C_26  and  C_27
REMARK   14  A    between atoms: C_31  and  N_32
REMARK                            x       y       z     vdW  Elec       q    Type
REMARK                         _______ _______ _______ _____ _____    ______ ____
ROOT
ATOM      1  C   UNL     1       3.133   4.408  18.649  0.00  0.00    +0.000 A 
ATOM      2  C   UNL     1       2.488   5.641  18.934  0.00  0.00    +0.000 A 
ATOM      3  C   UNL     1       1.905   5.854  20.198  0.00  0.00    +0.000 A 
ATOM      4  C   UNL     1       1.905   4.858  21.167  0.00  0.00    +0.000 A 
ATOM      5  C   UNL     1       2.529   3.643  20.907  0.00  0.00    +0.000 A 
ATOM      6  C   UNL     1       3.150   3.426  19.670  0.00  0.00    +0.000 A 
ENDROOT
BRANCH   1  10
ATOM      7  N   UNL     1       5.485   4.170  15.893  0.00  0.00    +0.000 N 
ATOM      8  C   UNL     1       5.054   4.488  17.157  0.00  0.00    +0.000 C 
ATOM      9  O   UNL     1       5.790   5.037  17.991  0.00  0.00    +0.000 OA
ATOM     10  N   UNL     1       3.747   4.154  17.397  0.00  0.00    +0.000 N 
ATOM     11  H   UNL     1       4.798   4.259  15.153  0.00  0.00    +0.000 HD
ATOM     12  H   UNL     1       3.313   3.494  16.763  0.00  0.00    +0.000 HD
BRANCH   7  13
ATOM     13  C   UNL     1       6.858   4.489  15.557  0.00  0.00    +0.000 C 
BRANCH  13  14
ATOM     14  C   UNL     1       7.056   4.744  14.070  0.00  0.00    +0.000 C 
BRANCH  14  15
ATOM     15  C   UNL     1       5.861   4.229  13.268  0.00  0.00    +0.000 C 
BRANCH  15  17
ATOM     16  C   UNL     1       5.109   2.621  11.481  0.00  0.00    +0.000 C 
ATOM     17  C   UNL     1       6.302   3.265  12.168  0.00  0.00    +0.000 C 
ENDBRANCH  15  17
ENDBRANCH  14  15
ENDBRANCH  13  14
ENDBRANCH   7  13
ENDBRANCH   1  10
BRANCH   6  18
ATOM     18  N   UNL     1       3.915   2.190  19.520  0.00  0.00    +0.000 N 
ATOM     19  O   UNL     1       3.533   1.376  18.689  0.00  0.00    +0.000 OA
ATOM     20  O   UNL     1       4.890   2.030  20.299  0.00  0.00    +0.000 OA
ENDBRANCH   6  18
BRANCH   2  21
ATOM     21  O   UNL     1       2.302   6.723  18.109  0.00  0.00    +0.000 OA
BRANCH  21  22
ATOM     22  C   UNL     1       2.605   8.018  18.604  0.00  0.00    +0.000 C 
BRANCH  22  23
ATOM     23  C   UNL     1       1.858   9.109  17.862  0.00  0.00    +0.000 C 
BRANCH  23  24
ATOM     24  C   UNL     1       0.458   9.189  18.442  0.00  0.00    +0.000 C 
BRANCH  24  25
ATOM     25  N   UNL     1       0.383   9.871  19.714  0.00  0.00    +0.000 N 
ATOM     26  C   UNL     1       1.020   9.503  20.861  0.00  0.00    +0.000 A 
ATOM     27  N   UNL     1       0.733  10.320  21.851  0.00  0.00    +0.000 NA
ATOM     28  C   UNL     1      -0.167  11.213  21.328  0.00  0.00    +0.000 A 
ATOM     29  C   UNL     1      -0.381  10.982  19.980  0.00  0.00    +0.000 A 
ATOM     30  C   UNL     1      -1.192  11.690  18.962  0.00  0.00    +0.000 C 
BRANCH  28  31
ATOM     31  C   UNL     1      -0.796  12.250  22.112  0.00  0.00    +0.000 A 
ATOM     32  C   UNL     1      -2.004  12.001  22.766  0.00  0.00    +0.000 A 
ATOM     33  C   UNL     1      -2.612  13.013  23.508  0.00  0.00    +0.000 A 
ATOM     34  C   UNL     1      -2.011  14.267  23.604  0.00  0.00    +0.000 A 
ATOM     35  C   UNL     1      -0.806  14.523  22.958  0.00  0.00    +0.000 A 
ATOM     36  C   UNL     1      -0.217  13.524  22.198  0.00  0.00    +0.000 A 
ENDBRANCH  28  31
ENDBRANCH  24  25
ENDBRANCH  23  24
ENDBRANCH  22  23
ENDBRANCH  21  22
ENDBRANCH   2  21
TORSDOF 12
ENDMDL
