MODEL 1
REMARK VINA RESULT:      -7.7      0.000      0.000
REMARK  Name = 
REMARK  4 active torsions:
REMARK  status: ('A' for Active; 'I' for Inactive)
REMARK    1  A    between atoms: C_1  and  C_2
REMARK    2  A    between atoms: C_8  and  N_9
REMARK    3  A    between atoms: N_12  and  C_13
REMARK    4  A    between atoms: C_13  and  C_14
REMARK                            x       y       z     vdW  Elec       q    Type
REMARK                         _______ _______ _______ _____ _____    ______ ____
ROOT
ATOM      1  N   UNL     1       2.732   7.088  18.986  0.00  0.00    +0.000 N 
ATOM      2  C   UNL     1       3.022   8.055  17.934  0.00  0.00    +0.000 C 
ATOM      3  C   UNL     1       1.787   8.900  17.630  0.00  0.00    +0.000 C 
ATOM      4  N   UNL     1       1.317   9.554  18.841  0.00  0.00    +0.000 N 
ATOM      5  C   UNL     1       1.297   8.859  20.049  0.00  0.00    +0.000 C 
ATOM      6  O   UNL     1       0.861   9.333  21.090  0.00  0.00    +0.000 OA
ATOM      7  C   UNL     1       1.875   7.420  20.047  0.00  0.00    +0.000 C 
ATOM      8  O   UNL     1       1.571   6.666  20.965  0.00  0.00    +0.000 OA
ENDROOT
BRANCH   1  16
ATOM      9  C   UNL     1       1.208   4.934  17.669  0.00  0.00    +0.000 C 
ATOM     10  C   UNL     1       2.553   4.703  18.305  0.00  0.00    +0.000 A 
ATOM     11  C   UNL     1       3.173   3.436  18.270  0.00  0.00    +0.000 A 
ATOM     12 CL   UNL     1       2.407   2.045  17.579  0.00  0.00    +0.000 Cl
ATOM     13  C   UNL     1       4.461   3.243  18.783  0.00  0.00    +0.000 A 
ATOM     14  C   UNL     1       5.159   4.307  19.339  0.00  0.00    +0.000 A 
ATOM     15  C   UNL     1       4.567   5.565  19.387  0.00  0.00    +0.000 A 
ATOM     16  C   UNL     1       3.269   5.773  18.891  0.00  0.00    +0.000 A 
ENDBRANCH   1  16
BRANCH   4  17
ATOM     17  C   UNL     1       0.676  10.860  18.748  0.00  0.00    +0.000 C 
BRANCH  17  18
ATOM     18  C   UNL     1      -0.810  10.771  18.467  0.00  0.00    +0.000 A 
ATOM     19  C   UNL     1      -1.259   9.907  17.445  0.00  0.00    +0.000 A 
ATOM     20  C   UNL     1      -2.609   9.838  17.097  0.00  0.00    +0.000 A 
ATOM     21  C   UNL     1      -3.526  10.640  17.760  0.00  0.00    +0.000 A 
ATOM     22  F   UNL     1      -4.819  10.589  17.417  0.00  0.00    +0.000 F 
ATOM     23  C   UNL     1      -3.117  11.500  18.771  0.00  0.00    +0.000 A 
ATOM     24  C   UNL     1      -1.767  11.563  19.126  0.00  0.00    +0.000 A 
ATOM     25 CL   UNL     1      -1.341  12.652  20.397  0.00  0.00    +0.000 Cl
ENDBRANCH  17  18
ENDBRANCH   4  17
TORSDOF 3
ENDMDL
MODEL 2
REMARK VINA RESULT:      -7.3      5.711      8.560
REMARK  Name = 
REMARK  4 active torsions:
REMARK  status: ('A' for Active; 'I' for Inactive)
REMARK    1  A    between atoms: C_1  and  C_2
REMARK    2  A    between atoms: C_8  and  N_9
REMARK    3  A    between atoms: N_12  and  C_13
REMARK    4  A    between atoms: C_13  and  C_14
REMARK                            x       y       z     vdW  Elec       q    Type
REMARK                         _______ _______ _______ _____ _____    ______ ____
ROOT
ATOM      1  N   UNL     1       4.473   4.895  18.317  0.00  0.00    +0.000 N 
ATOM      2  C   UNL     1       4.104   4.986  16.908  0.00  0.00    +0.000 C 
ATOM      3  C   UNL     1       5.106   5.854  16.150  0.00  0.00    +0.000 C 
ATOM      4  N   UNL     1       6.451   5.328  16.316  0.00  0.00    +0.000 N 
ATOM      5  C   UNL     1       6.871   4.861  17.561  0.00  0.00    +0.000 C 
ATOM      6  O   UNL     1       8.007   4.460  17.780  0.00  0.00    +0.000 OA
ATOM      7  C   UNL     1       5.821   4.848  18.703  0.00  0.00    +0.000 C 
ATOM      8  O   UNL     1       6.218   4.782  19.861  0.00  0.00    +0.000 OA
ENDROOT
BRANCH   1  16
ATOM      9  C   UNL     1       3.646   2.433  19.715  0.00  0.00    +0.000 C 
ATOM     10  C   UNL     1       2.997   3.767  19.971  0.00  0.00    +0.000 A 
ATOM     11  C   UNL     1       1.972   3.913  20.930  0.00  0.00    +0.000 A 
ATOM     12 CL   UNL     1       1.328   2.570  21.813  0.00  0.00    +0.000 Cl
ATOM     13  C   UNL     1       1.431   5.168  21.230  0.00  0.00    +0.000 A 
ATOM     14  C   UNL     1       1.900   6.304  20.584  0.00  0.00    +0.000 A 
ATOM     15  C   UNL     1       2.908   6.186  19.633  0.00  0.00    +0.000 A 
ATOM     16  C   UNL     1       3.451   4.931  19.308  0.00  0.00    +0.000 A 
ENDBRANCH   1  16
BRANCH   4  17
ATOM     17  C   UNL     1       7.420   5.482  15.238  0.00  0.00    +0.000 C 
BRANCH  17  18
ATOM     18  C   UNL     1       7.043   4.711  13.990  0.00  0.00    +0.000 A 
ATOM     19  C   UNL     1       6.084   3.680  14.091  0.00  0.00    +0.000 A 
ATOM     20  C   UNL     1       5.750   2.892  12.988  0.00  0.00    +0.000 A 
ATOM     21  C   UNL     1       6.379   3.119  11.772  0.00  0.00    +0.000 A 
ATOM     22  F   UNL     1       6.074   2.353  10.717  0.00  0.00    +0.000 F 
ATOM     23  C   UNL     1       7.326   4.126  11.640  0.00  0.00    +0.000 A 
ATOM     24  C   UNL     1       7.654   4.921  12.741  0.00  0.00    +0.000 A 
ATOM     25 CL   UNL     1       8.835   6.156  12.491  0.00  0.00    +0.000 Cl
ENDBRANCH  17  18
ENDBRANCH   4  17
TORSDOF 3
ENDMDL
MODEL 3
REMARK VINA RESULT:      -7.2      2.530      3.341
REMARK  Name = 
REMARK  4 active torsions:
REMARK  status: ('A' for Active; 'I' for Inactive)
REMARK    1  A    between atoms: C_1  and  C_2
REMARK    2  A    between atoms: C_8  and  N_9
REMARK    3  A    between atoms: N_12  and  C_13
REMARK    4  A    between atoms: C_13  and  C_14
REMARK                            x       y       z     vdW  Elec       q    Type
REMARK                         _______ _______ _______ _____ _____    ______ ____
ROOT
ATOM      1  N   UNL     1       2.757   7.060  18.954  0.00  0.00    +0.000 N 
ATOM      2  C   UNL     1       2.923   8.062  17.906  0.00  0.00    +0.000 C 
ATOM      3  C   UNL     1       1.610   8.805  17.667  0.00  0.00    +0.000 C 
ATOM      4  N   UNL     1       1.140   9.402  18.906  0.00  0.00    +0.000 N 
ATOM      5  C   UNL     1       1.228   8.693  20.103  0.00  0.00    +0.000 C 
ATOM      6  O   UNL     1       0.798   9.116  21.169  0.00  0.00    +0.000 OA
ATOM      7  C   UNL     1       1.922   7.306  20.054  0.00  0.00    +0.000 C 
ATOM      8  O   UNL     1       1.718   6.518  20.971  0.00  0.00    +0.000 OA
ENDROOT
BRANCH   1  16
ATOM      9  C   UNL     1       1.332   4.783  17.735  0.00  0.00    +0.000 C 
ATOM     10  C   UNL     1       2.733   4.668  18.275  0.00  0.00    +0.000 A 
ATOM     11  C   UNL     1       3.454   3.458  18.191  0.00  0.00    +0.000 A 
ATOM     12 CL   UNL     1       2.763   2.006  17.549  0.00  0.00    +0.000 Cl
ATOM     13  C   UNL     1       4.787   3.376  18.613  0.00  0.00    +0.000 A 
ATOM     14  C   UNL     1       5.429   4.496  19.124  0.00  0.00    +0.000 A 
ATOM     15  C   UNL     1       4.738   5.699  19.218  0.00  0.00    +0.000 A 
ATOM     16  C   UNL     1       3.395   5.795  18.815  0.00  0.00    +0.000 A 
ENDBRANCH   1  16
BRANCH   4  17
ATOM     17  C   UNL     1       0.391  10.653  18.861  0.00  0.00    +0.000 C 
BRANCH  17  18
ATOM     18  C   UNL     1       1.253  11.867  19.137  0.00  0.00    +0.000 A 
ATOM     19  C   UNL     1       2.228  12.240  18.186  0.00  0.00    +0.000 A 
ATOM     20  C   UNL     1       3.095  13.308  18.421  0.00  0.00    +0.000 A 
ATOM     21  C   UNL     1       3.006  14.011  19.613  0.00  0.00    +0.000 A 
ATOM     22  F   UNL     1       3.849  15.024  19.849  0.00  0.00    +0.000 F 
ATOM     23  C   UNL     1       2.058  13.669  20.569  0.00  0.00    +0.000 A 
ATOM     24  C   UNL     1       1.183  12.606  20.331  0.00  0.00    +0.000 A 
ATOM     25 CL   UNL     1       0.029  12.251  21.565  0.00  0.00    +0.000 Cl
ENDBRANCH  17  18
ENDBRANCH   4  17
TORSDOF 3
ENDMDL
MODEL 4
REMARK VINA RESULT:      -7.2      3.912      7.985
REMARK  Name = 
REMARK  4 active torsions:
REMARK  status: ('A' for Active; 'I' for Inactive)
REMARK    1  A    between atoms: C_1  and  C_2
REMARK    2  A    between atoms: C_8  and  N_9
REMARK    3  A    between atoms: N_12  and  C_13
REMARK    4  A    between atoms: C_13  and  C_14
REMARK                            x       y       z     vdW  Elec       q    Type
REMARK                         _______ _______ _______ _____ _____    ______ ____
ROOT
ATOM      1  N   UNL     1       2.344   7.008  19.443  0.00  0.00    +0.000 N 
ATOM      2  C   UNL     1       3.357   7.220  18.416  0.00  0.00    +0.000 C 
ATOM      3  C   UNL     1       4.506   6.229  18.586  0.00  0.00    +0.000 C 
ATOM      4  N   UNL     1       4.000   4.866  18.563  0.00  0.00    +0.000 N 
ATOM      5  C   UNL     1       2.818   4.547  19.228  0.00  0.00    +0.000 C 
ATOM      6  O   UNL     1       2.369   3.410  19.294  0.00  0.00    +0.000 OA
ATOM      7  C   UNL     1       2.046   5.714  19.898  0.00  0.00    +0.000 C 
ATOM      8  O   UNL     1       1.218   5.447  20.763  0.00  0.00    +0.000 OA
ENDROOT
BRANCH   1  16
ATOM      9  C   UNL     1       1.205   9.152  17.769  0.00  0.00    +0.000 C 
ATOM     10  C   UNL     1       1.188   9.203  19.274  0.00  0.00    +0.000 A 
ATOM     11  C   UNL     1       0.588  10.277  19.965  0.00  0.00    +0.000 A 
ATOM     12 CL   UNL     1      -0.091  11.645  19.148  0.00  0.00    +0.000 Cl
ATOM     13  C   UNL     1       0.495  10.281  21.362  0.00  0.00    +0.000 A 
ATOM     14  C   UNL     1       0.995   9.215  22.099  0.00  0.00    +0.000 A 
ATOM     15  C   UNL     1       1.593   8.147  21.440  0.00  0.00    +0.000 A 
ATOM     16  C   UNL     1       1.710   8.134  20.039  0.00  0.00    +0.000 A 
ENDBRANCH   1  16
BRANCH   4  17
ATOM     17  C   UNL     1       4.835   3.800  18.021  0.00  0.00    +0.000 C 
BRANCH  17  18
ATOM     18  C   UNL     1       5.544   4.197  16.743  0.00  0.00    +0.000 A 
ATOM     19  C   UNL     1       4.851   4.087  15.517  0.00  0.00    +0.000 A 
ATOM     20  C   UNL     1       5.478   4.372  14.304  0.00  0.00    +0.000 A 
ATOM     21  C   UNL     1       6.809   4.762  14.299  0.00  0.00    +0.000 A 
ATOM     22  F   UNL     1       7.419   5.019  13.135  0.00  0.00    +0.000 F 
ATOM     23  C   UNL     1       7.519   4.881  15.487  0.00  0.00    +0.000 A 
ATOM     24  C   UNL     1       6.889   4.604  16.703  0.00  0.00    +0.000 A 
ATOM     25 CL   UNL     1       7.838   4.783  18.135  0.00  0.00    +0.000 Cl
ENDBRANCH  17  18
ENDBRANCH   4  17
TORSDOF 3
ENDMDL
MODEL 5
REMARK VINA RESULT:      -7.2      5.361      7.058
REMARK  Name = 
REMARK  4 active torsions:
REMARK  status: ('A' for Active; 'I' for Inactive)
REMARK    1  A    between atoms: C_1  and  C_2
REMARK    2  A    between atoms: C_8  and  N_9
REMARK    3  A    between atoms: N_12  and  C_13
REMARK    4  A    between atoms: C_13  and  C_14
REMARK                            x       y       z     vdW  Elec       q    Type
REMARK                         _______ _______ _______ _____ _____    ______ ____
ROOT
ATOM      1  N   UNL     1       6.318   5.314  15.688  0.00  0.00    +0.000 N 
ATOM      2  C   UNL     1       5.135   6.143  15.894  0.00  0.00    +0.000 C 
ATOM      3  C   UNL     1       4.361   5.672  17.123  0.00  0.00    +0.000 C 
ATOM      4  N   UNL     1       5.226   5.676  18.292  0.00  0.00    +0.000 N 
ATOM      5  C   UNL     1       6.540   5.225  18.191  0.00  0.00    +0.000 C 
ATOM      6  O   UNL     1       7.301   5.150  19.149  0.00  0.00    +0.000 OA
ATOM      7  C   UNL     1       7.043   4.818  16.782  0.00  0.00    +0.000 C 
ATOM      8  O   UNL     1       8.040   4.107  16.699  0.00  0.00    +0.000 OA
ENDROOT
BRANCH   1  16
ATOM      9  C   UNL     1       4.921   3.131  14.280  0.00  0.00    +0.000 C 
ATOM     10  C   UNL     1       6.075   3.882  13.669  0.00  0.00    +0.000 A 
ATOM     11  C   UNL     1       6.527   3.597  12.364  0.00  0.00    +0.000 A 
ATOM     12 CL   UNL     1       5.856   2.319  11.406  0.00  0.00    +0.000 Cl
ATOM     13  C   UNL     1       7.540   4.354  11.764  0.00  0.00    +0.000 A 
ATOM     14  C   UNL     1       8.123   5.411  12.451  0.00  0.00    +0.000 A 
ATOM     15  C   UNL     1       7.696   5.709  13.741  0.00  0.00    +0.000 A 
ATOM     16  C   UNL     1       6.691   4.949  14.363  0.00  0.00    +0.000 A 
ENDBRANCH   1  16
BRANCH   4  17
ATOM     17  C   UNL     1       4.656   5.955  19.605  0.00  0.00    +0.000 C 
BRANCH  17  18
ATOM     18  C   UNL     1       3.467   5.075  19.932  0.00  0.00    +0.000 A 
ATOM     19  C   UNL     1       3.626   3.673  19.888  0.00  0.00    +0.000 A 
ATOM     20  C   UNL     1       2.547   2.816  20.112  0.00  0.00    +0.000 A 
ATOM     21  C   UNL     1       1.294   3.350  20.373  0.00  0.00    +0.000 A 
ATOM     22  F   UNL     1       0.254   2.530  20.571  0.00  0.00    +0.000 F 
ATOM     23  C   UNL     1       1.105   4.725  20.425  0.00  0.00    +0.000 A 
ATOM     24  C   UNL     1       2.186   5.583  20.209  0.00  0.00    +0.000 A 
ATOM     25 CL   UNL     1       1.869   7.279  20.297  0.00  0.00    +0.000 Cl
ENDBRANCH  17  18
ENDBRANCH   4  17
TORSDOF 3
ENDMDL
MODEL 6
REMARK VINA RESULT:      -7.2      2.874      7.756
REMARK  Name = 
REMARK  4 active torsions:
REMARK  status: ('A' for Active; 'I' for Inactive)
REMARK    1  A    between atoms: C_1  and  C_2
REMARK    2  A    between atoms: C_8  and  N_9
REMARK    3  A    between atoms: N_12  and  C_13
REMARK    4  A    between atoms: C_13  and  C_14
REMARK                            x       y       z     vdW  Elec       q    Type
REMARK                         _______ _______ _______ _____ _____    ______ ____
ROOT
ATOM      1  N   UNL     1       1.084   9.689  19.391  0.00  0.00    +0.000 N 
ATOM      2  C   UNL     1       1.290   9.077  20.699  0.00  0.00    +0.000 C 
ATOM      3  C   UNL     1       1.387   7.559  20.568  0.00  0.00    +0.000 C 
ATOM      4  N   UNL     1       2.446   7.202  19.639  0.00  0.00    +0.000 N 
ATOM      5  C   UNL     1       2.617   7.926  18.461  0.00  0.00    +0.000 C 
ATOM      6  O   UNL     1       3.453   7.642  17.611  0.00  0.00    +0.000 OA
ATOM      7  C   UNL     1       1.698   9.157  18.247  0.00  0.00    +0.000 C 
ATOM      8  O   UNL     1       1.571   9.602  17.111  0.00  0.00    +0.000 OA
ENDROOT
BRANCH   1  16
ATOM      9  C   UNL     1       2.116  12.445  19.181  0.00  0.00    +0.000 C 
ATOM     10  C   UNL     1       0.644  12.131  19.210  0.00  0.00    +0.000 A 
ATOM     11  C   UNL     1      -0.326  13.150  19.102  0.00  0.00    +0.000 A 
ATOM     12 CL   UNL     1       0.094  14.827  19.017  0.00  0.00    +0.000 Cl
ATOM     13  C   UNL     1      -1.692  12.849  19.040  0.00  0.00    +0.000 A 
ATOM     14  C   UNL     1      -2.120  11.528  19.083  0.00  0.00    +0.000 A 
ATOM     15  C   UNL     1      -1.183  10.507  19.192  0.00  0.00    +0.000 A 
ATOM     16  C   UNL     1       0.191  10.792  19.271  0.00  0.00    +0.000 A 
ENDBRANCH   1  16
BRANCH   4  17
ATOM     17  C   UNL     1       3.192   5.965  19.842  0.00  0.00    +0.000 C 
BRANCH  17  18
ATOM     18  C   UNL     1       2.420   4.734  19.415  0.00  0.00    +0.000 A 
ATOM     19  C   UNL     1       1.379   4.262  20.243  0.00  0.00    +0.000 A 
ATOM     20  C   UNL     1       0.682   3.092  19.934  0.00  0.00    +0.000 A 
ATOM     21  C   UNL     1       1.025   2.374  18.798  0.00  0.00    +0.000 A 
ATOM     22  F   UNL     1       0.370   1.243  18.508  0.00  0.00    +0.000 F 
ATOM     23  C   UNL     1       2.044   2.812  17.961  0.00  0.00    +0.000 A 
ATOM     24  C   UNL     1       2.735   3.987  18.266  0.00  0.00    +0.000 A 
ATOM     25 CL   UNL     1       3.983   4.468  17.171  0.00  0.00    +0.000 Cl
ENDBRANCH  17  18
ENDBRANCH   4  17
TORSDOF 3
ENDMDL
MODEL 7
REMARK VINA RESULT:      -7.0      2.905      7.663
REMARK  Name = 
REMARK  4 active torsions:
REMARK  status: ('A' for Active; 'I' for Inactive)
REMARK    1  A    between atoms: C_1  and  C_2
REMARK    2  A    between atoms: C_8  and  N_9
REMARK    3  A    between atoms: N_12  and  C_13
REMARK    4  A    between atoms: C_13  and  C_14
REMARK                            x       y       z     vdW  Elec       q    Type
REMARK                         _______ _______ _______ _____ _____    ______ ____
ROOT
ATOM      1  N   UNL     1       0.994   9.615  19.557  0.00  0.00    +0.000 N 
ATOM      2  C   UNL     1       1.185   8.918  20.825  0.00  0.00    +0.000 C 
ATOM      3  C   UNL     1       1.351   7.419  20.589  0.00  0.00    +0.000 C 
ATOM      4  N   UNL     1       2.453   7.174  19.673  0.00  0.00    +0.000 N 
ATOM      5  C   UNL     1       2.629   7.988  18.556  0.00  0.00    +0.000 C 
ATOM      6  O   UNL     1       3.503   7.801  17.718  0.00  0.00    +0.000 OA
ATOM      7  C   UNL     1       1.665   9.193  18.400  0.00  0.00    +0.000 C 
ATOM      8  O   UNL     1       1.555   9.714  17.295  0.00  0.00    +0.000 OA
ENDROOT
BRANCH   1  16
ATOM      9  C   UNL     1       1.808  12.370  20.227  0.00  0.00    +0.000 C 
ATOM     10  C   UNL     1       0.397  12.014  19.838  0.00  0.00    +0.000 A 
ATOM     11  C   UNL     1      -0.608  12.999  19.741  0.00  0.00    +0.000 A 
ATOM     12 CL   UNL     1      -0.324  14.659  20.140  0.00  0.00    +0.000 Cl
ATOM     13  C   UNL     1      -1.896  12.680  19.295  0.00  0.00    +0.000 A 
ATOM     14  C   UNL     1      -2.209  11.376  18.935  0.00  0.00    +0.000 A 
ATOM     15  C   UNL     1      -1.235  10.387  19.025  0.00  0.00    +0.000 A 
ATOM     16  C   UNL     1       0.058  10.686  19.486  0.00  0.00    +0.000 A 
ENDBRANCH   1  16
BRANCH   4  17
ATOM     17  C   UNL     1       3.245   5.957  19.813  0.00  0.00    +0.000 C 
BRANCH  17  18
ATOM     18  C   UNL     1       2.476   4.706  19.440  0.00  0.00    +0.000 A 
ATOM     19  C   UNL     1       2.124   4.501  18.088  0.00  0.00    +0.000 A 
ATOM     20  C   UNL     1       1.356   3.402  17.700  0.00  0.00    +0.000 A 
ATOM     21  C   UNL     1       0.921   2.500  18.659  0.00  0.00    +0.000 A 
ATOM     22  F   UNL     1       0.170   1.455  18.292  0.00  0.00    +0.000 F 
ATOM     23  C   UNL     1       1.251   2.673  19.997  0.00  0.00    +0.000 A 
ATOM     24  C   UNL     1       2.027   3.768  20.386  0.00  0.00    +0.000 A 
ATOM     25 CL   UNL     1       2.399   3.907  22.067  0.00  0.00    +0.000 Cl
ENDBRANCH  17  18
ENDBRANCH   4  17
TORSDOF 3
ENDMDL
MODEL 8
REMARK VINA RESULT:      -7.0      1.371      1.853
REMARK  Name = 
REMARK  4 active torsions:
REMARK  status: ('A' for Active; 'I' for Inactive)
REMARK    1  A    between atoms: C_1  and  C_2
REMARK    2  A    between atoms: C_8  and  N_9
REMARK    3  A    between atoms: N_12  and  C_13
REMARK    4  A    between atoms: C_13  and  C_14
REMARK                            x       y       z     vdW  Elec       q    Type
REMARK                         _______ _______ _______ _____ _____    ______ ____
ROOT
ATOM      1  N   UNL     1       2.550   7.084  18.535  0.00  0.00    +0.000 N 
ATOM      2  C   UNL     1       2.640   8.294  17.725  0.00  0.00    +0.000 C 
ATOM      3  C   UNL     1       1.427   9.189  17.969  0.00  0.00    +0.000 C 
ATOM      4  N   UNL     1       1.310   9.502  19.384  0.00  0.00    +0.000 N 
ATOM      5  C   UNL     1       1.539   8.514  20.340  0.00  0.00    +0.000 C 
ATOM      6  O   UNL     1       1.402   8.697  21.543  0.00  0.00    +0.000 OA
ATOM      7  C   UNL     1       2.002   7.125  19.826  0.00  0.00    +0.000 C 
ATOM      8  O   UNL     1       1.880   6.157  20.568  0.00  0.00    +0.000 OA
ENDROOT
BRANCH   1  16
ATOM      9  C   UNL     1       5.313   6.699  17.575  0.00  0.00    +0.000 C 
ATOM     10  C   UNL     1       4.260   5.628  17.466  0.00  0.00    +0.000 A 
ATOM     11  C   UNL     1       4.557   4.360  16.923  0.00  0.00    +0.000 A 
ATOM     12 CL   UNL     1       6.112   3.970  16.269  0.00  0.00    +0.000 Cl
ATOM     13  C   UNL     1       3.602   3.337  16.903  0.00  0.00    +0.000 A 
ATOM     14  C   UNL     1       2.334   3.554  17.424  0.00  0.00    +0.000 A 
ATOM     15  C   UNL     1       2.016   4.796  17.962  0.00  0.00    +0.000 A 
ATOM     16  C   UNL     1       2.958   5.840  17.975  0.00  0.00    +0.000 A 
ENDBRANCH   1  16
BRANCH   4  17
ATOM     17  C   UNL     1       0.756  10.787  19.792  0.00  0.00    +0.000 C 
BRANCH  17  18
ATOM     18  C   UNL     1      -0.676  10.983  19.338  0.00  0.00    +0.000 A 
ATOM     19  C   UNL     1      -1.147  10.242  18.232  0.00  0.00    +0.000 A 
ATOM     20  C   UNL     1      -2.435  10.434  17.729  0.00  0.00    +0.000 A 
ATOM     21  C   UNL     1      -3.264  11.377  18.317  0.00  0.00    +0.000 A 
ATOM     22  F   UNL     1      -4.493  11.577  17.825  0.00  0.00    +0.000 F 
ATOM     23  C   UNL     1      -2.831  12.122  19.407  0.00  0.00    +0.000 A 
ATOM     24  C   UNL     1      -1.546  11.924  19.917  0.00  0.00    +0.000 A 
ATOM     25 CL   UNL     1      -1.086  12.884  21.277  0.00  0.00    +0.000 Cl
ENDBRANCH  17  18
ENDBRANCH   4  17
TORSDOF 3
ENDMDL
MODEL 9
REMARK VINA RESULT:      -6.9      2.871      7.523
REMARK  Name = 
REMARK  4 active torsions:
REMARK  status: ('A' for Active; 'I' for Inactive)
REMARK    1  A    between atoms: C_1  and  C_2
REMARK    2  A    between atoms: C_8  and  N_9
REMARK    3  A    between atoms: N_12  and  C_13
REMARK    4  A    between atoms: C_13  and  C_14
REMARK                            x       y       z     vdW  Elec       q    Type
REMARK                         _______ _______ _______ _____ _____    ______ ____
ROOT
ATOM      1  N   UNL     1       0.933   9.817  19.728  0.00  0.00    +0.000 N 
ATOM      2  C   UNL     1       1.188   9.124  20.986  0.00  0.00    +0.000 C 
ATOM      3  C   UNL     1       1.304   7.619  20.751  0.00  0.00    +0.000 C 
ATOM      4  N   UNL     1       2.341   7.343  19.771  0.00  0.00    +0.000 N 
ATOM      5  C   UNL     1       2.465   8.147  18.639  0.00  0.00    +0.000 C 
ATOM      6  O   UNL     1       3.279   7.934  17.749  0.00  0.00    +0.000 OA
ATOM      7  C   UNL     1       1.521   9.372  18.534  0.00  0.00    +0.000 C 
ATOM      8  O   UNL     1       1.352   9.889  17.434  0.00  0.00    +0.000 OA
ENDROOT
BRANCH   1  16
ATOM      9  C   UNL     1      -1.776   9.492  18.606  0.00  0.00    +0.000 C 
ATOM     10  C   UNL     1      -1.273  10.806  19.141  0.00  0.00    +0.000 A 
ATOM     11  C   UNL     1      -2.095  11.952  19.163  0.00  0.00    +0.000 A 
ATOM     12 CL   UNL     1      -3.697  11.960  18.506  0.00  0.00    +0.000 Cl
ATOM     13  C   UNL     1      -1.656  13.150  19.741  0.00  0.00    +0.000 A 
ATOM     14  C   UNL     1      -0.392  13.230  20.309  0.00  0.00    +0.000 A 
ATOM     15  C   UNL     1       0.438  12.114  20.297  0.00  0.00    +0.000 A 
ATOM     16  C   UNL     1       0.019  10.909  19.707  0.00  0.00    +0.000 A 
ENDBRANCH   1  16
BRANCH   4  17
ATOM     17  C   UNL     1       3.112   6.110  19.869  0.00  0.00    +0.000 C 
BRANCH  17  18
ATOM     18  C   UNL     1       2.333   4.889  19.423  0.00  0.00    +0.000 A 
ATOM     19  C   UNL     1       1.328   4.376  20.271  0.00  0.00    +0.000 A 
ATOM     20  C   UNL     1       0.628   3.214  19.941  0.00  0.00    +0.000 A 
ATOM     21  C   UNL     1       0.932   2.545  18.765  0.00  0.00    +0.000 A 
ATOM     22  F   UNL     1       0.275   1.420  18.455  0.00  0.00    +0.000 F 
ATOM     23  C   UNL     1       1.915   3.024  17.909  0.00  0.00    +0.000 A 
ATOM     24  C   UNL     1       2.610   4.192  18.234  0.00  0.00    +0.000 A 
ATOM     25 CL   UNL     1       3.811   4.726  17.114  0.00  0.00    +0.000 Cl
ENDBRANCH  17  18
ENDBRANCH   4  17
TORSDOF 3
ENDMDL
