MODEL 1
REMARK VINA RESULT:      -9.2      0.000      0.000
REMARK  Name = 
REMARK  7 active torsions:
REMARK  status: ('A' for Active; 'I' for Inactive)
REMARK    1  A    between atoms: C_1  and  O_2
REMARK    2  A    between atoms: O_2  and  C_3
REMARK    3  A    between atoms: C_6  and  C_7
REMARK    4  A    between atoms: C_8  and  C_9
REMARK    5  A    between atoms: C_13  and  C_14
REMARK    6  A    between atoms: N_16  and  C_17
REMARK    7  A    between atoms: N_16  and  C_18
REMARK                            x       y       z     vdW  Elec       q    Type
REMARK                         _______ _______ _______ _____ _____    ______ ____
ROOT
ATOM      1  C   UNL     1       3.652   5.105  19.287  0.00  0.00    +0.000 A 
ATOM      2  C   UNL     1       2.710   6.059  19.668  0.00  0.00    +0.000 A 
ATOM      3  O   UNL     1       1.957   5.585  20.700  0.00  0.00    +0.000 OA
ATOM      4  C   UNL     1       2.340   4.311  20.945  0.00  0.00    +0.000 A 
ATOM      5  N   UNL     1       1.747   3.554  21.882  0.00  0.00    +0.000 NA
ATOM      6  C   UNL     1       2.266   2.329  21.917  0.00  0.00    +0.000 A 
ATOM      7  N   UNL     1       3.268   1.834  21.169  0.00  0.00    +0.000 NA
ATOM      8  C   UNL     1       3.845   2.635  20.249  0.00  0.00    +0.000 A 
ATOM      9  N   UNL     1       4.876   2.061  19.516  0.00  0.00    +0.000 N 
ATOM     10  C   UNL     1       3.381   3.948  20.102  0.00  0.00    +0.000 A 
ATOM     11  H   UNL     1       5.161   1.186  19.939  0.00  0.00    +0.000 HD
ATOM     12  H   UNL     1       5.627   2.696  19.284  0.00  0.00    +0.000 HD
ENDROOT
BRANCH   1  16
ATOM     13  C   UNL     1       6.560   5.650  16.192  0.00  0.00    +0.000 A 
ATOM     14  C   UNL     1       5.393   4.935  15.945  0.00  0.00    +0.000 A 
ATOM     15  C   UNL     1       4.421   4.803  16.940  0.00  0.00    +0.000 A 
ATOM     16  C   UNL     1       4.640   5.304  18.231  0.00  0.00    +0.000 A 
ATOM     17  C   UNL     1       5.847   5.970  18.486  0.00  0.00    +0.000 A 
ATOM     18  C   UNL     1       6.787   6.170  17.468  0.00  0.00    +0.000 A 
BRANCH  13  20
ATOM     19  C   UNL     1       7.114   4.921  14.027  0.00  0.00    +0.000 C 
ATOM     20  O   UNL     1       7.439   5.729  15.151  0.00  0.00    +0.000 OA
ENDBRANCH  13  20
ENDBRANCH   1  16
BRANCH   2  21
ATOM     21  C   UNL     1       2.278   7.370  19.179  0.00  0.00    +0.000 A 
ATOM     22  C   UNL     1       2.647   7.826  17.910  0.00  0.00    +0.000 A 
ATOM     23  C   UNL     1       2.293   9.111  17.490  0.00  0.00    +0.000 A 
ATOM     24  C   UNL     1       1.608   9.962  18.361  0.00  0.00    +0.000 A 
ATOM     25  C   UNL     1       1.243   9.536  19.645  0.00  0.00    +0.000 A 
ATOM     26  C   UNL     1       1.534   8.220  20.013  0.00  0.00    +0.000 A 
BRANCH  25  27
ATOM     27  C   UNL     1       0.523  10.506  20.523  0.00  0.00    +0.000 C 
ATOM     28  O   UNL     1       1.104  10.815  21.568  0.00  0.00    +0.000 OA
ATOM     29  N   UNL     1      -0.747  11.019  20.222  0.00  0.00    +0.000 N 
ATOM     30  C   UNL     1      -1.525  10.813  19.010  0.00  0.00    +0.000 C 
ATOM     31  C   UNL     1      -1.333  11.962  21.160  0.00  0.00    +0.000 C 
ENDBRANCH  25  27
ENDBRANCH   2  21
TORSDOF 4
ENDMDL
MODEL 2
REMARK VINA RESULT:      -8.9      0.794      1.070
REMARK  Name = 
REMARK  7 active torsions:
REMARK  status: ('A' for Active; 'I' for Inactive)
REMARK    1  A    between atoms: C_1  and  O_2
REMARK    2  A    between atoms: O_2  and  C_3
REMARK    3  A    between atoms: C_6  and  C_7
REMARK    4  A    between atoms: C_8  and  C_9
REMARK    5  A    between atoms: C_13  and  C_14
REMARK    6  A    between atoms: N_16  and  C_17
REMARK    7  A    between atoms: N_16  and  C_18
REMARK                            x       y       z     vdW  Elec       q    Type
REMARK                         _______ _______ _______ _____ _____    ______ ____
ROOT
ATOM      1  C   UNL     1       3.657   5.119  19.226  0.00  0.00    +0.000 A 
ATOM      2  C   UNL     1       2.720   6.076  19.612  0.00  0.00    +0.000 A 
ATOM      3  O   UNL     1       1.980   5.609  20.657  0.00  0.00    +0.000 OA
ATOM      4  C   UNL     1       2.366   4.337  20.906  0.00  0.00    +0.000 A 
ATOM      5  N   UNL     1       1.785   3.587  21.856  0.00  0.00    +0.000 NA
ATOM      6  C   UNL     1       2.304   2.362  21.893  0.00  0.00    +0.000 A 
ATOM      7  N   UNL     1       3.296   1.861  21.135  0.00  0.00    +0.000 NA
ATOM      8  C   UNL     1       3.861   2.656  20.203  0.00  0.00    +0.000 A 
ATOM      9  N   UNL     1       4.882   2.076  19.460  0.00  0.00    +0.000 N 
ATOM     10  C   UNL     1       3.396   3.968  20.053  0.00  0.00    +0.000 A 
ATOM     11  H   UNL     1       5.172   1.205  19.886  0.00  0.00    +0.000 HD
ATOM     12  H   UNL     1       5.631   2.709  19.214  0.00  0.00    +0.000 HD
ENDROOT
BRANCH   1  16
ATOM     13  C   UNL     1       6.525   5.642  16.090  0.00  0.00    +0.000 A 
ATOM     14  C   UNL     1       5.361   4.912  15.868  0.00  0.00    +0.000 A 
ATOM     15  C   UNL     1       4.402   4.787  16.875  0.00  0.00    +0.000 A 
ATOM     16  C   UNL     1       4.631   5.311  18.156  0.00  0.00    +0.000 A 
ATOM     17  C   UNL     1       5.834   5.991  18.387  0.00  0.00    +0.000 A 
ATOM     18  C   UNL     1       6.762   6.183  17.355  0.00  0.00    +0.000 A 
BRANCH  13  20
ATOM     19  C   UNL     1       7.096   4.838  13.957  0.00  0.00    +0.000 C 
ATOM     20  O   UNL     1       7.391   5.712  15.038  0.00  0.00    +0.000 OA
ENDBRANCH  13  20
ENDBRANCH   1  16
BRANCH   2  21
ATOM     21  C   UNL     1       2.282   7.384  19.119  0.00  0.00    +0.000 A 
ATOM     22  C   UNL     1       2.760   7.898  17.911  0.00  0.00    +0.000 A 
ATOM     23  C   UNL     1       2.394   9.182  17.494  0.00  0.00    +0.000 A 
ATOM     24  C   UNL     1       1.583   9.973  18.313  0.00  0.00    +0.000 A 
ATOM     25  C   UNL     1       1.106   9.487  19.538  0.00  0.00    +0.000 A 
ATOM     26  C   UNL     1       1.416   8.173  19.895  0.00  0.00    +0.000 A 
BRANCH  25  27
ATOM     27  C   UNL     1       0.255  10.394  20.364  0.00  0.00    +0.000 C 
ATOM     28  O   UNL     1      -0.384  11.247  19.737  0.00  0.00    +0.000 OA
ATOM     29  N   UNL     1       0.194  10.329  21.763  0.00  0.00    +0.000 N 
ATOM     30  C   UNL     1       0.821   9.347  22.635  0.00  0.00    +0.000 C 
ATOM     31  C   UNL     1      -0.682  11.267  22.445  0.00  0.00    +0.000 C 
ENDBRANCH  25  27
ENDBRANCH   2  21
TORSDOF 4
ENDMDL
MODEL 3
REMARK VINA RESULT:      -8.4      0.721      1.270
REMARK  Name = 
REMARK  7 active torsions:
REMARK  status: ('A' for Active; 'I' for Inactive)
REMARK    1  A    between atoms: C_1  and  O_2
REMARK    2  A    between atoms: O_2  and  C_3
REMARK    3  A    between atoms: C_6  and  C_7
REMARK    4  A    between atoms: C_8  and  C_9
REMARK    5  A    between atoms: C_13  and  C_14
REMARK    6  A    between atoms: N_16  and  C_17
REMARK    7  A    between atoms: N_16  and  C_18
REMARK                            x       y       z     vdW  Elec       q    Type
REMARK                         _______ _______ _______ _____ _____    ______ ____
ROOT
ATOM      1  C   UNL     1       3.618   5.019  19.303  0.00  0.00    +0.000 A 
ATOM      2  C   UNL     1       2.696   5.994  19.678  0.00  0.00    +0.000 A 
ATOM      3  O   UNL     1       1.951   5.551  20.730  0.00  0.00    +0.000 OA
ATOM      4  C   UNL     1       2.320   4.277  20.995  0.00  0.00    +0.000 A 
ATOM      5  N   UNL     1       1.730   3.547  21.956  0.00  0.00    +0.000 NA
ATOM      6  C   UNL     1       2.233   2.316  22.007  0.00  0.00    +0.000 A 
ATOM      7  N   UNL     1       3.216   1.792  21.255  0.00  0.00    +0.000 NA
ATOM      8  C   UNL     1       3.791   2.566  20.311  0.00  0.00    +0.000 A 
ATOM      9  N   UNL     1       4.802   1.963  19.575  0.00  0.00    +0.000 N 
ATOM     10  C   UNL     1       3.344   3.882  20.145  0.00  0.00    +0.000 A 
ATOM     11  H   UNL     1       5.081   1.093  20.011  0.00  0.00    +0.000 HD
ATOM     12  H   UNL     1       5.559   2.582  19.320  0.00  0.00    +0.000 HD
ENDROOT
BRANCH   1  16
ATOM     13  C   UNL     1       6.469   5.541  16.152  0.00  0.00    +0.000 A 
ATOM     14  C   UNL     1       6.693   6.102  17.405  0.00  0.00    +0.000 A 
ATOM     15  C   UNL     1       5.788   5.887  18.447  0.00  0.00    +0.000 A 
ATOM     16  C   UNL     1       4.594   5.184  18.229  0.00  0.00    +0.000 A 
ATOM     17  C   UNL     1       4.350   4.676  16.947  0.00  0.00    +0.000 A 
ATOM     18  C   UNL     1       5.294   4.825  15.922  0.00  0.00    +0.000 A 
BRANCH  13  20
ATOM     19  C   UNL     1       7.311   5.032  14.017  0.00  0.00    +0.000 C 
ATOM     20  O   UNL     1       7.419   5.802  15.207  0.00  0.00    +0.000 OA
ENDBRANCH  13  20
ENDBRANCH   1  16
BRANCH   2  21
ATOM     21  C   UNL     1       2.275   7.301  19.169  0.00  0.00    +0.000 A 
ATOM     22  C   UNL     1       2.680   7.751  17.909  0.00  0.00    +0.000 A 
ATOM     23  C   UNL     1       2.335   9.033  17.472  0.00  0.00    +0.000 A 
ATOM     24  C   UNL     1       1.622   9.887  18.318  0.00  0.00    +0.000 A 
ATOM     25  C   UNL     1       1.220   9.467  19.592  0.00  0.00    +0.000 A 
ATOM     26  C   UNL     1       1.504   8.154  19.976  0.00  0.00    +0.000 A 
BRANCH  25  27
ATOM     27  C   UNL     1       0.472  10.439  20.444  0.00  0.00    +0.000 C 
ATOM     28  O   UNL     1      -0.452   9.965  21.113  0.00  0.00    +0.000 OA
ATOM     29  N   UNL     1       0.755  11.812  20.473  0.00  0.00    +0.000 N 
ATOM     30  C   UNL     1       1.846  12.509  19.807  0.00  0.00    +0.000 C 
ATOM     31  C   UNL     1      -0.045  12.647  21.352  0.00  0.00    +0.000 C 
ENDBRANCH  25  27
ENDBRANCH   2  21
TORSDOF 4
ENDMDL
MODEL 4
REMARK VINA RESULT:      -7.9      3.224      5.962
REMARK  Name = 
REMARK  7 active torsions:
REMARK  status: ('A' for Active; 'I' for Inactive)
REMARK    1  A    between atoms: C_1  and  O_2
REMARK    2  A    between atoms: O_2  and  C_3
REMARK    3  A    between atoms: C_6  and  C_7
REMARK    4  A    between atoms: C_8  and  C_9
REMARK    5  A    between atoms: C_13  and  C_14
REMARK    6  A    between atoms: N_16  and  C_17
REMARK    7  A    between atoms: N_16  and  C_18
REMARK                            x       y       z     vdW  Elec       q    Type
REMARK                         _______ _______ _______ _____ _____    ______ ____
ROOT
ATOM      1  C   UNL     1       6.263   4.987  15.791  0.00  0.00    +0.000 A 
ATOM      2  C   UNL     1       5.102   4.266  16.063  0.00  0.00    +0.000 A 
ATOM      3  O   UNL     1       4.767   3.500  14.988  0.00  0.00    +0.000 OA
ATOM      4  C   UNL     1       5.644   3.768  13.994  0.00  0.00    +0.000 A 
ATOM      5  N   UNL     1       5.548   3.198  12.782  0.00  0.00    +0.000 NA
ATOM      6  C   UNL     1       6.496   3.642  11.960  0.00  0.00    +0.000 A 
ATOM      7  N   UNL     1       7.475   4.523  12.226  0.00  0.00    +0.000 NA
ATOM      8  C   UNL     1       7.543   5.060  13.462  0.00  0.00    +0.000 A 
ATOM      9  N   UNL     1       8.582   5.958  13.670  0.00  0.00    +0.000 N 
ATOM     10  C   UNL     1       6.594   4.685  14.421  0.00  0.00    +0.000 A 
ATOM     11  H   UNL     1       9.245   5.908  12.907  0.00  0.00    +0.000 HD
ATOM     12  H   UNL     1       8.984   5.925  14.597  0.00  0.00    +0.000 HD
ENDROOT
BRANCH   1  16
ATOM     13  C   UNL     1       8.204   7.619  18.555  0.00  0.00    +0.000 A 
ATOM     14  C   UNL     1       7.645   8.116  17.382  0.00  0.00    +0.000 A 
ATOM     15  C   UNL     1       6.966   7.265  16.507  0.00  0.00    +0.000 A 
ATOM     16  C   UNL     1       6.914   5.883  16.742  0.00  0.00    +0.000 A 
ATOM     17  C   UNL     1       7.534   5.386  17.896  0.00  0.00    +0.000 A 
ATOM     18  C   UNL     1       8.147   6.249  18.813  0.00  0.00    +0.000 A 
BRANCH  13  20
ATOM     19  C   UNL     1       8.954   9.835  18.782  0.00  0.00    +0.000 C 
ATOM     20  O   UNL     1       8.834   8.535  19.346  0.00  0.00    +0.000 OA
ENDBRANCH  13  20
ENDBRANCH   1  16
BRANCH   2  21
ATOM     21  C   UNL     1       4.127   4.208  17.154  0.00  0.00    +0.000 A 
ATOM     22  C   UNL     1       3.499   3.008  17.498  0.00  0.00    +0.000 A 
ATOM     23  C   UNL     1       2.512   2.985  18.488  0.00  0.00    +0.000 A 
ATOM     24  C   UNL     1       2.117   4.176  19.103  0.00  0.00    +0.000 A 
ATOM     25  C   UNL     1       2.718   5.395  18.762  0.00  0.00    +0.000 A 
ATOM     26  C   UNL     1       3.759   5.382  17.831  0.00  0.00    +0.000 A 
BRANCH  25  27
ATOM     27  C   UNL     1       2.236   6.628  19.453  0.00  0.00    +0.000 C 
ATOM     28  O   UNL     1       1.888   6.481  20.630  0.00  0.00    +0.000 OA
ATOM     29  N   UNL     1       2.139   7.876  18.821  0.00  0.00    +0.000 N 
ATOM     30  C   UNL     1       2.572   8.227  17.477  0.00  0.00    +0.000 C 
ATOM     31  C   UNL     1       1.660   8.997  19.612  0.00  0.00    +0.000 C 
ENDBRANCH  25  27
ENDBRANCH   2  21
TORSDOF 4
ENDMDL
MODEL 5
REMARK VINA RESULT:      -7.5      1.611      1.948
REMARK  Name = 
REMARK  7 active torsions:
REMARK  status: ('A' for Active; 'I' for Inactive)
REMARK    1  A    between atoms: C_1  and  O_2
REMARK    2  A    between atoms: O_2  and  C_3
REMARK    3  A    between atoms: C_6  and  C_7
REMARK    4  A    between atoms: C_8  and  C_9
REMARK    5  A    between atoms: C_13  and  C_14
REMARK    6  A    between atoms: N_16  and  C_17
REMARK    7  A    between atoms: N_16  and  C_18
REMARK                            x       y       z     vdW  Elec       q    Type
REMARK                         _______ _______ _______ _____ _____    ______ ____
ROOT
ATOM      1  C   UNL     1       3.155   5.295  18.839  0.00  0.00    +0.000 A 
ATOM      2  C   UNL     1       2.090   6.074  19.287  0.00  0.00    +0.000 A 
ATOM      3  O   UNL     1       1.089   5.274  19.751  0.00  0.00    +0.000 OA
ATOM      4  C   UNL     1       1.452   3.988  19.541  0.00  0.00    +0.000 A 
ATOM      5  N   UNL     1       0.649   2.958  19.853  0.00  0.00    +0.000 NA
ATOM      6  C   UNL     1       1.202   1.793  19.524  0.00  0.00    +0.000 A 
ATOM      7  N   UNL     1       2.408   1.578  18.971  0.00  0.00    +0.000 NA
ATOM      8  C   UNL     1       3.189   2.641  18.688  0.00  0.00    +0.000 A 
ATOM      9  N   UNL     1       4.423   2.346  18.123  0.00  0.00    +0.000 N 
ATOM     10  C   UNL     1       2.718   3.928  18.974  0.00  0.00    +0.000 A 
ATOM     11  H   UNL     1       4.617   1.356  18.205  0.00  0.00    +0.000 HD
ATOM     12  H   UNL     1       5.173   2.960  18.413  0.00  0.00    +0.000 HD
ENDROOT
BRANCH   1  16
ATOM     13  C   UNL     1       6.812   6.916  17.314  0.00  0.00    +0.000 A 
ATOM     14  C   UNL     1       6.786   6.274  18.548  0.00  0.00    +0.000 A 
ATOM     15  C   UNL     1       5.604   5.699  19.020  0.00  0.00    +0.000 A 
ATOM     16  C   UNL     1       4.402   5.838  18.310  0.00  0.00    +0.000 A 
ATOM     17  C   UNL     1       4.428   6.540  17.098  0.00  0.00    +0.000 A 
ATOM     18  C   UNL     1       5.629   7.049  16.586  0.00  0.00    +0.000 A 
BRANCH  13  20
ATOM     19  C   UNL     1       8.361   8.668  17.557  0.00  0.00    +0.000 C 
ATOM     20  O   UNL     1       8.018   7.433  16.940  0.00  0.00    +0.000 OA
ENDBRANCH  13  20
ENDBRANCH   1  16
BRANCH   2  21
ATOM     21  C   UNL     1       1.751   7.499  19.288  0.00  0.00    +0.000 A 
ATOM     22  C   UNL     1       2.055   8.315  18.194  0.00  0.00    +0.000 A 
ATOM     23  C   UNL     1       1.798   9.688  18.244  0.00  0.00    +0.000 A 
ATOM     24  C   UNL     1       1.277  10.256  19.410  0.00  0.00    +0.000 A 
ATOM     25  C   UNL     1       0.981   9.462  20.526  0.00  0.00    +0.000 A 
ATOM     26  C   UNL     1       1.169   8.082  20.425  0.00  0.00    +0.000 A 
BRANCH  25  27
ATOM     27  C   UNL     1       0.438  10.141  21.741  0.00  0.00    +0.000 C 
ATOM     28  O   UNL     1       0.991   9.852  22.807  0.00  0.00    +0.000 OA
ATOM     29  N   UNL     1      -0.650  11.026  21.705  0.00  0.00    +0.000 N 
ATOM     30  C   UNL     1      -1.355  11.520  20.532  0.00  0.00    +0.000 C 
ATOM     31  C   UNL     1      -1.073  11.625  22.960  0.00  0.00    +0.000 C 
ENDBRANCH  25  27
ENDBRANCH   2  21
TORSDOF 4
ENDMDL
MODEL 6
REMARK VINA RESULT:      -7.4      3.320      6.045
REMARK  Name = 
REMARK  7 active torsions:
REMARK  status: ('A' for Active; 'I' for Inactive)
REMARK    1  A    between atoms: C_1  and  O_2
REMARK    2  A    between atoms: O_2  and  C_3
REMARK    3  A    between atoms: C_6  and  C_7
REMARK    4  A    between atoms: C_8  and  C_9
REMARK    5  A    between atoms: C_13  and  C_14
REMARK    6  A    between atoms: N_16  and  C_17
REMARK    7  A    between atoms: N_16  and  C_18
REMARK                            x       y       z     vdW  Elec       q    Type
REMARK                         _______ _______ _______ _____ _____    ______ ____
ROOT
ATOM      1  C   UNL     1       6.322   5.101  15.607  0.00  0.00    +0.000 A 
ATOM      2  C   UNL     1       5.101   4.457  15.797  0.00  0.00    +0.000 A 
ATOM      3  O   UNL     1       4.795   3.705  14.703  0.00  0.00    +0.000 OA
ATOM      4  C   UNL     1       5.757   3.909  13.774  0.00  0.00    +0.000 A 
ATOM      5  N   UNL     1       5.711   3.337  12.560  0.00  0.00    +0.000 NA
ATOM      6  C   UNL     1       6.742   3.712  11.807  0.00  0.00    +0.000 A 
ATOM      7  N   UNL     1       7.755   4.532  12.141  0.00  0.00    +0.000 NA
ATOM      8  C   UNL     1       7.768   5.073  13.377  0.00  0.00    +0.000 A 
ATOM      9  N   UNL     1       8.844   5.905  13.656  0.00  0.00    +0.000 N 
ATOM     10  C   UNL     1       6.730   4.767  14.265  0.00  0.00    +0.000 A 
ATOM     11  H   UNL     1       9.556   5.807  12.943  0.00  0.00    +0.000 HD
ATOM     12  H   UNL     1       9.176   5.854  14.609  0.00  0.00    +0.000 HD
ENDROOT
BRANCH   1  16
ATOM     13  C   UNL     1       8.222   7.627  18.494  0.00  0.00    +0.000 A 
ATOM     14  C   UNL     1       7.743   8.157  17.300  0.00  0.00    +0.000 A 
ATOM     15  C   UNL     1       7.077   7.342  16.383  0.00  0.00    +0.000 A 
ATOM     16  C   UNL     1       6.959   5.960  16.600  0.00  0.00    +0.000 A 
ATOM     17  C   UNL     1       7.500   5.428  17.778  0.00  0.00    +0.000 A 
ATOM     18  C   UNL     1       8.099   6.258  18.734  0.00  0.00    +0.000 A 
BRANCH  13  20
ATOM     19  C   UNL     1       8.943   9.839  18.830  0.00  0.00    +0.000 C 
ATOM     20  O   UNL     1       8.848   8.510  19.326  0.00  0.00    +0.000 OA
ENDBRANCH  13  20
ENDBRANCH   1  16
BRANCH   2  21
ATOM     21  C   UNL     1       4.048   4.470  16.815  0.00  0.00    +0.000 A 
ATOM     22  C   UNL     1       3.297   3.323  17.092  0.00  0.00    +0.000 A 
ATOM     23  C   UNL     1       2.243   3.374  18.009  0.00  0.00    +0.000 A 
ATOM     24  C   UNL     1       1.907   4.587  18.616  0.00  0.00    +0.000 A 
ATOM     25  C   UNL     1       2.632   5.754  18.340  0.00  0.00    +0.000 A 
ATOM     26  C   UNL     1       3.733   5.663  17.485  0.00  0.00    +0.000 A 
BRANCH  25  27
ATOM     27  C   UNL     1       2.206   7.015  19.017  0.00  0.00    +0.000 C 
ATOM     28  O   UNL     1       2.309   8.045  18.343  0.00  0.00    +0.000 OA
ATOM     29  N   UNL     1       1.751   7.060  20.343  0.00  0.00    +0.000 N 
ATOM     30  C   UNL     1       1.507   5.938  21.237  0.00  0.00    +0.000 C 
ATOM     31  C   UNL     1       1.361   8.353  20.879  0.00  0.00    +0.000 C 
ENDBRANCH  25  27
ENDBRANCH   2  21
TORSDOF 4
ENDMDL
MODEL 7
REMARK VINA RESULT:      -7.3      6.659     11.049
REMARK  Name = 
REMARK  7 active torsions:
REMARK  status: ('A' for Active; 'I' for Inactive)
REMARK    1  A    between atoms: C_1  and  O_2
REMARK    2  A    between atoms: O_2  and  C_3
REMARK    3  A    between atoms: C_6  and  C_7
REMARK    4  A    between atoms: C_8  and  C_9
REMARK    5  A    between atoms: C_13  and  C_14
REMARK    6  A    between atoms: N_16  and  C_17
REMARK    7  A    between atoms: N_16  and  C_18
REMARK                            x       y       z     vdW  Elec       q    Type
REMARK                         _______ _______ _______ _____ _____    ______ ____
ROOT
ATOM      1  C   UNL     1      -3.552  13.741  22.498  0.00  0.00    +0.000 A 
ATOM      2  C   UNL     1      -4.725  13.675  21.749  0.00  0.00    +0.000 A 
ATOM      3  O   UNL     1      -5.579  14.665  22.133  0.00  0.00    +0.000 OA
ATOM      4  C   UNL     1      -5.014  15.325  23.170  0.00  0.00    +0.000 A 
ATOM      5  N   UNL     1      -5.638  16.333  23.801  0.00  0.00    +0.000 NA
ATOM      6  C   UNL     1      -4.906  16.801  24.809  0.00  0.00    +0.000 A 
ATOM      7  N   UNL     1      -3.685  16.398  25.202  0.00  0.00    +0.000 NA
ATOM      8  C   UNL     1      -3.089  15.391  24.530  0.00  0.00    +0.000 A 
ATOM      9  N   UNL     1      -1.828  15.029  24.985  0.00  0.00    +0.000 N 
ATOM     10  C   UNL     1      -3.761  14.801  23.452  0.00  0.00    +0.000 A 
ATOM     11  H   UNL     1      -1.476  15.726  25.630  0.00  0.00    +0.000 HD
ATOM     12  H   UNL     1      -1.186  14.748  24.257  0.00  0.00    +0.000 HD
ENDROOT
BRANCH   1  16
ATOM     13  C   UNL     1      -0.196  11.128  22.005  0.00  0.00    +0.000 A 
ATOM     14  C   UNL     1      -1.111  10.916  23.032  0.00  0.00    +0.000 A 
ATOM     15  C   UNL     1      -2.233  11.737  23.160  0.00  0.00    +0.000 A 
ATOM     16  C   UNL     1      -2.413  12.845  22.318  0.00  0.00    +0.000 A 
ATOM     17  C   UNL     1      -1.453  13.085  21.327  0.00  0.00    +0.000 A 
ATOM     18  C   UNL     1      -0.369  12.216  21.149  0.00  0.00    +0.000 A 
BRANCH  13  20
ATOM     19  C   UNL     1       0.536   8.940  21.553  0.00  0.00    +0.000 C 
ATOM     20  O   UNL     1       0.859  10.263  21.963  0.00  0.00    +0.000 OA
ENDBRANCH  13  20
ENDBRANCH   1  16
BRANCH   2  21
ATOM     21  C   UNL     1      -5.290  12.767  20.749  0.00  0.00    +0.000 A 
ATOM     22  C   UNL     1      -6.392  11.959  21.047  0.00  0.00    +0.000 A 
ATOM     23  C   UNL     1      -6.869  11.040  20.107  0.00  0.00    +0.000 A 
ATOM     24  C   UNL     1      -6.212  10.894  18.882  0.00  0.00    +0.000 A 
ATOM     25  C   UNL     1      -5.094  11.679  18.568  0.00  0.00    +0.000 A 
ATOM     26  C   UNL     1      -4.686  12.648  19.487  0.00  0.00    +0.000 A 
BRANCH  25  27
ATOM     27  C   UNL     1      -4.438  11.458  17.245  0.00  0.00    +0.000 C 
ATOM     28  O   UNL     1      -5.032  11.925  16.267  0.00  0.00    +0.000 OA
ATOM     29  N   UNL     1      -3.243  10.740  17.090  0.00  0.00    +0.000 N 
ATOM     30  C   UNL     1      -2.391  10.196  18.137  0.00  0.00    +0.000 C 
ATOM     31  C   UNL     1      -2.707  10.606  15.746  0.00  0.00    +0.000 C 
ENDBRANCH  25  27
ENDBRANCH   2  21
TORSDOF 4
ENDMDL
MODEL 8
REMARK VINA RESULT:      -7.3      2.616      8.604
REMARK  Name = 
REMARK  7 active torsions:
REMARK  status: ('A' for Active; 'I' for Inactive)
REMARK    1  A    between atoms: C_1  and  O_2
REMARK    2  A    between atoms: O_2  and  C_3
REMARK    3  A    between atoms: C_6  and  C_7
REMARK    4  A    between atoms: C_8  and  C_9
REMARK    5  A    between atoms: C_13  and  C_14
REMARK    6  A    between atoms: N_16  and  C_17
REMARK    7  A    between atoms: N_16  and  C_18
REMARK                            x       y       z     vdW  Elec       q    Type
REMARK                         _______ _______ _______ _____ _____    ______ ____
ROOT
ATOM      1  C   UNL     1      -1.201  11.118  19.739  0.00  0.00    +0.000 A 
ATOM      2  C   UNL     1      -0.005  10.502  20.104  0.00  0.00    +0.000 A 
ATOM      3  O   UNL     1       0.379  10.928  21.341  0.00  0.00    +0.000 OA
ATOM      4  C   UNL     1      -0.503  11.867  21.751  0.00  0.00    +0.000 A 
ATOM      5  N   UNL     1      -0.366  12.513  22.921  0.00  0.00    +0.000 NA
ATOM      6  C   UNL     1      -1.330  13.415  23.093  0.00  0.00    +0.000 A 
ATOM      7  N   UNL     1      -2.357  13.695  22.271  0.00  0.00    +0.000 NA
ATOM      8  C   UNL     1      -2.463  13.010  21.113  0.00  0.00    +0.000 A 
ATOM      9  N   UNL     1      -3.550  13.346  20.316  0.00  0.00    +0.000 N 
ATOM     10  C   UNL     1      -1.503  12.039  20.805  0.00  0.00    +0.000 A 
ATOM     11  H   UNL     1      -4.203  13.916  20.838  0.00  0.00    +0.000 HD
ATOM     12  H   UNL     1      -3.957  12.568  19.815  0.00  0.00    +0.000 HD
ENDROOT
BRANCH   1  16
ATOM     13  C   UNL     1      -3.243  10.332  16.059  0.00  0.00    +0.000 A 
ATOM     14  C   UNL     1      -3.312   9.425  17.112  0.00  0.00    +0.000 A 
ATOM     15  C   UNL     1      -2.690   9.708  18.329  0.00  0.00    +0.000 A 
ATOM     16  C   UNL     1      -1.906  10.860  18.487  0.00  0.00    +0.000 A 
ATOM     17  C   UNL     1      -1.793  11.736  17.399  0.00  0.00    +0.000 A 
ATOM     18  C   UNL     1      -2.480  11.492  16.204  0.00  0.00    +0.000 A 
BRANCH  13  20
ATOM     19  C   UNL     1      -3.098   9.981  13.739  0.00  0.00    +0.000 C 
ATOM     20  O   UNL     1      -3.895   9.966  14.917  0.00  0.00    +0.000 OA
ENDBRANCH  13  20
ENDBRANCH   1  16
BRANCH   2  21
ATOM     21  C   UNL     1       0.963   9.611  19.462  0.00  0.00    +0.000 A 
ATOM     22  C   UNL     1       1.559   9.948  18.243  0.00  0.00    +0.000 A 
ATOM     23  C   UNL     1       2.420   9.051  17.605  0.00  0.00    +0.000 A 
ATOM     24  C   UNL     1       2.650   7.791  18.164  0.00  0.00    +0.000 A 
ATOM     25  C   UNL     1       2.050   7.422  19.376  0.00  0.00    +0.000 A 
ATOM     26  C   UNL     1       1.260   8.364  20.038  0.00  0.00    +0.000 A 
BRANCH  25  27
ATOM     27  C   UNL     1       2.334   6.055  19.906  0.00  0.00    +0.000 C 
ATOM     28  O   UNL     1       1.509   5.611  20.711  0.00  0.00    +0.000 OA
ATOM     29  N   UNL     1       3.473   5.316  19.556  0.00  0.00    +0.000 N 
ATOM     30  C   UNL     1       4.492   5.663  18.576  0.00  0.00    +0.000 C 
ATOM     31  C   UNL     1       3.624   3.993  20.138  0.00  0.00    +0.000 C 
ENDBRANCH  25  27
ENDBRANCH   2  21
TORSDOF 4
ENDMDL
MODEL 9
REMARK VINA RESULT:      -7.2      4.175     10.656
REMARK  Name = 
REMARK  7 active torsions:
REMARK  status: ('A' for Active; 'I' for Inactive)
REMARK    1  A    between atoms: C_1  and  O_2
REMARK    2  A    between atoms: O_2  and  C_3
REMARK    3  A    between atoms: C_6  and  C_7
REMARK    4  A    between atoms: C_8  and  C_9
REMARK    5  A    between atoms: C_13  and  C_14
REMARK    6  A    between atoms: N_16  and  C_17
REMARK    7  A    between atoms: N_16  and  C_18
REMARK                            x       y       z     vdW  Elec       q    Type
REMARK                         _______ _______ _______ _____ _____    ______ ____
ROOT
ATOM      1  C   UNL     1      -3.459  12.583  20.155  0.00  0.00    +0.000 A 
ATOM      2  C   UNL     1      -2.560  12.180  19.169  0.00  0.00    +0.000 A 
ATOM      3  O   UNL     1      -3.238  11.680  18.097  0.00  0.00    +0.000 OA
ATOM      4  C   UNL     1      -4.556  11.678  18.401  0.00  0.00    +0.000 A 
ATOM      5  N   UNL     1      -5.484  11.198  17.557  0.00  0.00    +0.000 NA
ATOM      6  C   UNL     1      -6.703  11.267  18.085  0.00  0.00    +0.000 A 
ATOM      7  N   UNL     1      -7.058  11.757  19.286  0.00  0.00    +0.000 NA
ATOM      8  C   UNL     1      -6.095  12.244  20.095  0.00  0.00    +0.000 A 
ATOM      9  N   UNL     1      -6.531  12.739  21.317  0.00  0.00    +0.000 N 
ATOM     10  C   UNL     1      -4.763  12.218  19.662  0.00  0.00    +0.000 A 
ATOM     11  H   UNL     1      -7.539  12.838  21.314  0.00  0.00    +0.000 HD
ATOM     12  H   UNL     1      -6.018  13.544  21.650  0.00  0.00    +0.000 HD
ENDROOT
BRANCH   1  16
ATOM     13  C   UNL     1      -2.268  14.375  23.857  0.00  0.00    +0.000 A 
ATOM     14  C   UNL     1      -2.231  15.107  22.674  0.00  0.00    +0.000 A 
ATOM     15  C   UNL     1      -2.670  14.538  21.477  0.00  0.00    +0.000 A 
ATOM     16  C   UNL     1      -3.066  13.193  21.421  0.00  0.00    +0.000 A 
ATOM     17  C   UNL     1      -3.040  12.448  22.607  0.00  0.00    +0.000 A 
ATOM     18  C   UNL     1      -2.674  13.040  23.822  0.00  0.00    +0.000 A 
BRANCH  13  20
ATOM     19  C   UNL     1      -2.523  16.229  25.279  0.00  0.00    +0.000 C 
ATOM     20  O   UNL     1      -1.828  15.027  24.972  0.00  0.00    +0.000 OA
ENDBRANCH  13  20
ENDBRANCH   1  16
BRANCH   2  21
ATOM     21  C   UNL     1      -1.105  12.073  19.045  0.00  0.00    +0.000 A 
ATOM     22  C   UNL     1      -0.304  13.213  18.931  0.00  0.00    +0.000 A 
ATOM     23  C   UNL     1       1.075  13.091  18.734  0.00  0.00    +0.000 A 
ATOM     24  C   UNL     1       1.648  11.823  18.604  0.00  0.00    +0.000 A 
ATOM     25  C   UNL     1       0.864  10.666  18.696  0.00  0.00    +0.000 A 
ATOM     26  C   UNL     1      -0.497  10.809  18.976  0.00  0.00    +0.000 A 
BRANCH  25  27
ATOM     27  C   UNL     1       1.546   9.347  18.534  0.00  0.00    +0.000 C 
ATOM     28  O   UNL     1       1.985   9.107  17.405  0.00  0.00    +0.000 OA
ATOM     29  N   UNL     1       1.661   8.409  19.571  0.00  0.00    +0.000 N 
ATOM     30  C   UNL     1       1.265   8.569  20.962  0.00  0.00    +0.000 C 
ATOM     31  C   UNL     1       2.356   7.166  19.281  0.00  0.00    +0.000 C 
ENDBRANCH  25  27
ENDBRANCH   2  21
TORSDOF 4
ENDMDL
