MODEL 1
REMARK VINA RESULT:      -7.5      0.000      0.000
REMARK  Name = 
REMARK  4 active torsions:
REMARK  status: ('A' for Active; 'I' for Inactive)
REMARK    1  A    between atoms: C_1  and  O_2
REMARK    2  A    between atoms: O_2  and  C_3
REMARK    3  A    between atoms: C_3  and  C_4
REMARK    4  A    between atoms: C_3  and  C_10
REMARK                            x       y       z     vdW  Elec       q    Type
REMARK                         _______ _______ _______ _____ _____    ______ ____
ROOT
ATOM      1  C   UNL     1       4.601   5.568  18.419  0.00  0.00    +0.000 A 
ATOM      2  C   UNL     1       5.572   5.367  19.391  0.00  0.00    +0.000 A 
ATOM      3  N   UNL     1       6.765   5.469  18.749  0.00  0.00    +0.000 N 
ATOM      4  C   UNL     1       6.592   5.114  17.443  0.00  0.00    +0.000 A 
ATOM      5  C   UNL     1       7.559   4.749  16.495  0.00  0.00    +0.000 A 
ATOM      6  C   UNL     1       7.098   4.386  15.234  0.00  0.00    +0.000 A 
ATOM      7  C   UNL     1       5.750   4.471  14.921  0.00  0.00    +0.000 A 
ATOM      8 CL   UNL     1       5.218   3.964  13.366  0.00  0.00    +0.000 Cl
ATOM      9  C   UNL     1       4.799   4.914  15.859  0.00  0.00    +0.000 A 
ATOM     10  C   UNL     1       5.223   5.203  17.183  0.00  0.00    +0.000 A 
ATOM     11  H   UNL     1       7.669   5.655  19.196  0.00  0.00    +0.000 HD
ENDROOT
BRANCH   1  12
ATOM     12  C   UNL     1       3.242   6.117  18.791  0.00  0.00    +0.000 C 
BRANCH  12  13
ATOM     13  C   UNL     1       2.287   4.997  19.138  0.00  0.00    +0.000 A 
ATOM     14  C   UNL     1       1.926   4.730  20.465  0.00  0.00    +0.000 A 
ATOM     15  C   UNL     1       1.151   3.615  20.792  0.00  0.00    +0.000 A 
ATOM     16  C   UNL     1       0.718   2.754  19.787  0.00  0.00    +0.000 A 
ATOM     17  C   UNL     1       1.068   3.004  18.464  0.00  0.00    +0.000 A 
ATOM     18  C   UNL     1       1.838   4.120  18.134  0.00  0.00    +0.000 A 
ENDBRANCH  12  13
BRANCH  12  20
ATOM     19  C   UNL     1       2.298   8.250  18.255  0.00  0.00    +0.000 C 
ATOM     20  O   UNL     1       2.696   6.976  17.764  0.00  0.00    +0.000 OA
ENDBRANCH  12  20
ENDBRANCH   1  12
TORSDOF 3
ENDMDL
MODEL 2
REMARK VINA RESULT:      -7.4      2.596      6.032
REMARK  Name = 
REMARK  4 active torsions:
REMARK  status: ('A' for Active; 'I' for Inactive)
REMARK    1  A    between atoms: C_1  and  O_2
REMARK    2  A    between atoms: O_2  and  C_3
REMARK    3  A    between atoms: C_3  and  C_4
REMARK    4  A    between atoms: C_3  and  C_10
REMARK                            x       y       z     vdW  Elec       q    Type
REMARK                         _______ _______ _______ _____ _____    ______ ____
ROOT
ATOM      1  C   UNL     1       5.483   5.693  16.416  0.00  0.00    +0.000 A 
ATOM      2  C   UNL     1       5.031   7.004  16.336  0.00  0.00    +0.000 A 
ATOM      3  N   UNL     1       4.139   7.150  17.350  0.00  0.00    +0.000 N 
ATOM      4  C   UNL     1       3.585   5.934  17.626  0.00  0.00    +0.000 A 
ATOM      5  C   UNL     1       2.412   5.643  18.336  0.00  0.00    +0.000 A 
ATOM      6  C   UNL     1       2.050   4.303  18.430  0.00  0.00    +0.000 A 
ATOM      7  C   UNL     1       2.869   3.310  17.915  0.00  0.00    +0.000 A 
ATOM      8 CL   UNL     1       2.358   1.670  18.011  0.00  0.00    +0.000 Cl
ATOM      9  C   UNL     1       4.084   3.612  17.273  0.00  0.00    +0.000 A 
ATOM     10  C   UNL     1       4.437   4.973  17.078  0.00  0.00    +0.000 A 
ATOM     11  H   UNL     1       3.835   8.042  17.753  0.00  0.00    +0.000 HD
ENDROOT
BRANCH   1  12
ATOM     12  C   UNL     1       6.852   5.317  15.897  0.00  0.00    +0.000 C 
BRANCH  12  13
ATOM     13  C   UNL     1       6.775   4.865  14.455  0.00  0.00    +0.000 A 
ATOM     14  C   UNL     1       5.889   3.856  14.054  0.00  0.00    +0.000 A 
ATOM     15  C   UNL     1       5.914   3.350  12.752  0.00  0.00    +0.000 A 
ATOM     16  C   UNL     1       6.825   3.857  11.830  0.00  0.00    +0.000 A 
ATOM     17  C   UNL     1       7.713   4.859  12.212  0.00  0.00    +0.000 A 
ATOM     18  C   UNL     1       7.686   5.369  13.510  0.00  0.00    +0.000 A 
ENDBRANCH  12  13
BRANCH  12  20
ATOM     19  C   UNL     1       7.759   4.787  18.048  0.00  0.00    +0.000 C 
ATOM     20  O   UNL     1       7.502   4.328  16.726  0.00  0.00    +0.000 OA
ENDBRANCH  12  20
ENDBRANCH   1  12
TORSDOF 3
ENDMDL
MODEL 3
REMARK VINA RESULT:      -7.4      2.599      6.012
REMARK  Name = 
REMARK  4 active torsions:
REMARK  status: ('A' for Active; 'I' for Inactive)
REMARK    1  A    between atoms: C_1  and  O_2
REMARK    2  A    between atoms: O_2  and  C_3
REMARK    3  A    between atoms: C_3  and  C_4
REMARK    4  A    between atoms: C_3  and  C_10
REMARK                            x       y       z     vdW  Elec       q    Type
REMARK                         _______ _______ _______ _____ _____    ______ ____
ROOT
ATOM      1  C   UNL     1       5.512   5.673  16.459  0.00  0.00    +0.000 A 
ATOM      2  C   UNL     1       4.969   6.933  16.243  0.00  0.00    +0.000 A 
ATOM      3  N   UNL     1       4.045   7.111  17.223  0.00  0.00    +0.000 N 
ATOM      4  C   UNL     1       3.574   5.890  17.608  0.00  0.00    +0.000 A 
ATOM      5  C   UNL     1       2.409   5.583  18.325  0.00  0.00    +0.000 A 
ATOM      6  C   UNL     1       2.142   4.235  18.545  0.00  0.00    +0.000 A 
ATOM      7  C   UNL     1       3.042   3.260  18.144  0.00  0.00    +0.000 A 
ATOM      8 CL   UNL     1       2.649   1.605  18.392  0.00  0.00    +0.000 Cl
ATOM      9  C   UNL     1       4.247   3.588  17.495  0.00  0.00    +0.000 A 
ATOM     10  C   UNL     1       4.506   4.946  17.172  0.00  0.00    +0.000 A 
ATOM     11  H   UNL     1       3.669   8.013  17.531  0.00  0.00    +0.000 HD
ENDROOT
BRANCH   1  12
ATOM     12  C   UNL     1       6.917   5.352  16.002  0.00  0.00    +0.000 C 
BRANCH  12  13
ATOM     13  C   UNL     1       6.911   4.808  14.590  0.00  0.00    +0.000 A 
ATOM     14  C   UNL     1       7.753   5.334  13.602  0.00  0.00    +0.000 A 
ATOM     15  C   UNL     1       7.651   4.921  12.271  0.00  0.00    +0.000 A 
ATOM     16  C   UNL     1       6.704   3.964  11.915  0.00  0.00    +0.000 A 
ATOM     17  C   UNL     1       5.859   3.432  12.884  0.00  0.00    +0.000 A 
ATOM     18  C   UNL     1       5.963   3.840  14.214  0.00  0.00    +0.000 A 
ENDBRANCH  12  13
BRANCH  12  20
ATOM     19  C   UNL     1       7.724   4.981  18.225  0.00  0.00    +0.000 C 
ATOM     20  O   UNL     1       7.599   4.456  16.908  0.00  0.00    +0.000 OA
ENDBRANCH  12  20
ENDBRANCH   1  12
TORSDOF 3
ENDMDL
MODEL 4
REMARK VINA RESULT:      -7.3      1.451      2.932
REMARK  Name = 
REMARK  4 active torsions:
REMARK  status: ('A' for Active; 'I' for Inactive)
REMARK    1  A    between atoms: C_1  and  O_2
REMARK    2  A    between atoms: O_2  and  C_3
REMARK    3  A    between atoms: C_3  and  C_4
REMARK    4  A    between atoms: C_3  and  C_10
REMARK                            x       y       z     vdW  Elec       q    Type
REMARK                         _______ _______ _______ _____ _____    ______ ____
ROOT
ATOM      1  C   UNL     1       4.141   4.213  18.410  0.00  0.00    +0.000 A 
ATOM      2  C   UNL     1       5.010   4.096  19.486  0.00  0.00    +0.000 A 
ATOM      3  N   UNL     1       6.182   4.649  19.077  0.00  0.00    +0.000 N 
ATOM      4  C   UNL     1       6.274   4.529  17.721  0.00  0.00    +0.000 A 
ATOM      5  C   UNL     1       7.407   4.642  16.903  0.00  0.00    +0.000 A 
ATOM      6  C   UNL     1       7.223   4.426  15.541  0.00  0.00    +0.000 A 
ATOM      7  C   UNL     1       5.957   4.198  15.024  0.00  0.00    +0.000 A 
ATOM      8 CL   UNL     1       5.783   3.887  13.342  0.00  0.00    +0.000 Cl
ATOM      9  C   UNL     1       4.817   4.165  15.848  0.00  0.00    +0.000 A 
ATOM     10  C   UNL     1       4.981   4.288  17.253  0.00  0.00    +0.000 A 
ATOM     11  H   UNL     1       6.931   4.983  19.693  0.00  0.00    +0.000 HD
ENDROOT
BRANCH   1  12
ATOM     12  C   UNL     1       2.647   4.281  18.631  0.00  0.00    +0.000 C 
BRANCH  12  13
ATOM     13  C   UNL     1       2.234   5.664  19.084  0.00  0.00    +0.000 A 
ATOM     14  C   UNL     1       2.428   6.788  18.269  0.00  0.00    +0.000 A 
ATOM     15  C   UNL     1       2.168   8.076  18.742  0.00  0.00    +0.000 A 
ATOM     16  C   UNL     1       1.701   8.255  20.042  0.00  0.00    +0.000 A 
ATOM     17  C   UNL     1       1.504   7.150  20.865  0.00  0.00    +0.000 A 
ATOM     18  C   UNL     1       1.757   5.862  20.392  0.00  0.00    +0.000 A 
ENDBRANCH  12  13
BRANCH  12  20
ATOM     19  C   UNL     1       1.386   2.267  18.917  0.00  0.00    +0.000 C 
ATOM     20  O   UNL     1       2.179   3.265  19.547  0.00  0.00    +0.000 OA
ENDBRANCH  12  20
ENDBRANCH   1  12
TORSDOF 3
ENDMDL
MODEL 5
REMARK VINA RESULT:      -7.2      0.341      1.157
REMARK  Name = 
REMARK  4 active torsions:
REMARK  status: ('A' for Active; 'I' for Inactive)
REMARK    1  A    between atoms: C_1  and  O_2
REMARK    2  A    between atoms: O_2  and  C_3
REMARK    3  A    between atoms: C_3  and  C_4
REMARK    4  A    between atoms: C_3  and  C_10
REMARK                            x       y       z     vdW  Elec       q    Type
REMARK                         _______ _______ _______ _____ _____    ______ ____
ROOT
ATOM      1  C   UNL     1       4.610   5.317  18.388  0.00  0.00    +0.000 A 
ATOM      2  C   UNL     1       5.621   5.146  19.325  0.00  0.00    +0.000 A 
ATOM      3  N   UNL     1       6.785   5.364  18.657  0.00  0.00    +0.000 N 
ATOM      4  C   UNL     1       6.601   5.055  17.342  0.00  0.00    +0.000 A 
ATOM      5  C   UNL     1       7.564   4.804  16.354  0.00  0.00    +0.000 A 
ATOM      6  C   UNL     1       7.095   4.463  15.090  0.00  0.00    +0.000 A 
ATOM      7  C   UNL     1       5.736   4.461  14.815  0.00  0.00    +0.000 A 
ATOM      8 CL   UNL     1       5.198   3.986  13.253  0.00  0.00    +0.000 Cl
ATOM      9  C   UNL     1       4.783   4.792  15.797  0.00  0.00    +0.000 A 
ATOM     10  C   UNL     1       5.222   5.053  17.121  0.00  0.00    +0.000 A 
ATOM     11  H   UNL     1       7.685   5.596  19.090  0.00  0.00    +0.000 HD
ENDROOT
BRANCH   1  12
ATOM     12  C   UNL     1       3.227   5.748  18.818  0.00  0.00    +0.000 C 
BRANCH  12  13
ATOM     13  C   UNL     1       2.386   4.549  19.201  0.00  0.00    +0.000 A 
ATOM     14  C   UNL     1       1.905   3.657  18.233  0.00  0.00    +0.000 A 
ATOM     15  C   UNL     1       1.022   2.630  18.575  0.00  0.00    +0.000 A 
ATOM     16  C   UNL     1       0.616   2.478  19.898  0.00  0.00    +0.000 A 
ATOM     17  C   UNL     1       1.083   3.356  20.871  0.00  0.00    +0.000 A 
ATOM     18  C   UNL     1       1.970   4.379  20.533  0.00  0.00    +0.000 A 
ENDBRANCH  12  13
BRANCH  12  20
ATOM     19  C   UNL     1       2.961   7.923  17.857  0.00  0.00    +0.000 C 
ATOM     20  O   UNL     1       2.566   6.557  17.819  0.00  0.00    +0.000 OA
ENDBRANCH  12  20
ENDBRANCH   1  12
TORSDOF 3
ENDMDL
MODEL 6
REMARK VINA RESULT:      -7.2      1.382      2.866
REMARK  Name = 
REMARK  4 active torsions:
REMARK  status: ('A' for Active; 'I' for Inactive)
REMARK    1  A    between atoms: C_1  and  O_2
REMARK    2  A    between atoms: O_2  and  C_3
REMARK    3  A    between atoms: C_3  and  C_4
REMARK    4  A    between atoms: C_3  and  C_10
REMARK                            x       y       z     vdW  Elec       q    Type
REMARK                         _______ _______ _______ _____ _____    ______ ____
ROOT
ATOM      1  C   UNL     1       4.064   4.534  18.470  0.00  0.00    +0.000 A 
ATOM      2  C   UNL     1       4.882   4.350  19.578  0.00  0.00    +0.000 A 
ATOM      3  N   UNL     1       6.119   4.766  19.197  0.00  0.00    +0.000 N 
ATOM      4  C   UNL     1       6.240   4.607  17.848  0.00  0.00    +0.000 A 
ATOM      5  C   UNL     1       7.403   4.580  17.066  0.00  0.00    +0.000 A 
ATOM      6  C   UNL     1       7.240   4.354  15.703  0.00  0.00    +0.000 A 
ATOM      7  C   UNL     1       5.973   4.249  15.148  0.00  0.00    +0.000 A 
ATOM      8 CL   UNL     1       5.819   3.920  13.468  0.00  0.00    +0.000 Cl
ATOM      9  C   UNL     1       4.811   4.356  15.935  0.00  0.00    +0.000 A 
ATOM     10  C   UNL     1       4.943   4.494  17.341  0.00  0.00    +0.000 A 
ATOM     11  H   UNL     1       6.879   5.032  19.831  0.00  0.00    +0.000 HD
ENDROOT
BRANCH   1  12
ATOM     12  C   UNL     1       2.580   4.765  18.640  0.00  0.00    +0.000 C 
BRANCH  12  13
ATOM     13  C   UNL     1       2.303   6.195  19.050  0.00  0.00    +0.000 A 
ATOM     14  C   UNL     1       1.842   6.509  20.336  0.00  0.00    +0.000 A 
ATOM     15  C   UNL     1       1.462   7.812  20.667  0.00  0.00    +0.000 A 
ATOM     16  C   UNL     1       1.548   8.822  19.713  0.00  0.00    +0.000 A 
ATOM     17  C   UNL     1       2.003   8.527  18.432  0.00  0.00    +0.000 A 
ATOM     18  C   UNL     1       2.388   7.228  18.100  0.00  0.00    +0.000 A 
ENDBRANCH  12  13
BRANCH  12  20
ATOM     19  C   UNL     1       1.463   2.667  18.920  0.00  0.00    +0.000 C 
ATOM     20  O   UNL     1       1.979   3.827  19.561  0.00  0.00    +0.000 OA
ENDBRANCH  12  20
ENDBRANCH   1  12
TORSDOF 3
ENDMDL
MODEL 7
REMARK VINA RESULT:      -7.2      2.913      5.883
REMARK  Name = 
REMARK  4 active torsions:
REMARK  status: ('A' for Active; 'I' for Inactive)
REMARK    1  A    between atoms: C_1  and  O_2
REMARK    2  A    between atoms: O_2  and  C_3
REMARK    3  A    between atoms: C_3  and  C_4
REMARK    4  A    between atoms: C_3  and  C_10
REMARK                            x       y       z     vdW  Elec       q    Type
REMARK                         _______ _______ _______ _____ _____    ______ ____
ROOT
ATOM      1  C   UNL     1       4.215   3.460  17.630  0.00  0.00    +0.000 A 
ATOM      2  C   UNL     1       4.006   2.095  17.785  0.00  0.00    +0.000 A 
ATOM      3  N   UNL     1       2.709   1.961  18.168  0.00  0.00    +0.000 N 
ATOM      4  C   UNL     1       2.325   3.094  18.822  0.00  0.00    +0.000 A 
ATOM      5  C   UNL     1       1.225   3.292  19.669  0.00  0.00    +0.000 A 
ATOM      6  C   UNL     1       1.094   4.550  20.247  0.00  0.00    +0.000 A 
ATOM      7  C   UNL     1       1.969   5.575  19.921  0.00  0.00    +0.000 A 
ATOM      8 CL   UNL     1       1.799   7.100  20.696  0.00  0.00    +0.000 Cl
ATOM      9  C   UNL     1       3.024   5.384  19.008  0.00  0.00    +0.000 A 
ATOM     10  C   UNL     1       3.242   4.088  18.473  0.00  0.00    +0.000 A 
ATOM     11  H   UNL     1       2.152   1.103  18.095  0.00  0.00    +0.000 HD
ENDROOT
BRANCH   1  12
ATOM     12  C   UNL     1       5.270   3.974  16.678  0.00  0.00    +0.000 C 
BRANCH  12  13
ATOM     13  C   UNL     1       6.107   5.050  17.335  0.00  0.00    +0.000 A 
ATOM     14  C   UNL     1       6.124   6.363  16.845  0.00  0.00    +0.000 A 
ATOM     15  C   UNL     1       6.997   7.318  17.370  0.00  0.00    +0.000 A 
ATOM     16  C   UNL     1       7.861   6.971  18.405  0.00  0.00    +0.000 A 
ATOM     17  C   UNL     1       7.858   5.672  18.903  0.00  0.00    +0.000 A 
ATOM     18  C   UNL     1       6.984   4.717  18.383  0.00  0.00    +0.000 A 
ENDBRANCH  12  13
BRANCH  12  20
ATOM     19  C   UNL     1       5.524   4.132  14.304  0.00  0.00    +0.000 C 
ATOM     20  O   UNL     1       4.708   4.434  15.429  0.00  0.00    +0.000 OA
ENDBRANCH  12  20
ENDBRANCH   1  12
TORSDOF 3
ENDMDL
MODEL 8
REMARK VINA RESULT:      -7.1      2.864      5.796
REMARK  Name = 
REMARK  4 active torsions:
REMARK  status: ('A' for Active; 'I' for Inactive)
REMARK    1  A    between atoms: C_1  and  O_2
REMARK    2  A    between atoms: O_2  and  C_3
REMARK    3  A    between atoms: C_3  and  C_4
REMARK    4  A    between atoms: C_3  and  C_10
REMARK                            x       y       z     vdW  Elec       q    Type
REMARK                         _______ _______ _______ _____ _____    ______ ____
ROOT
ATOM      1  C   UNL     1       4.367   3.642  17.559  0.00  0.00    +0.000 A 
ATOM      2  C   UNL     1       4.117   2.298  17.806  0.00  0.00    +0.000 A 
ATOM      3  N   UNL     1       2.819   2.230  18.202  0.00  0.00    +0.000 N 
ATOM      4  C   UNL     1       2.473   3.416  18.779  0.00  0.00    +0.000 A 
ATOM      5  C   UNL     1       1.384   3.704  19.614  0.00  0.00    +0.000 A 
ATOM      6  C   UNL     1       1.294   5.002  20.105  0.00  0.00    +0.000 A 
ATOM      7  C   UNL     1       2.198   5.975  19.708  0.00  0.00    +0.000 A 
ATOM      8 CL   UNL     1       2.079   7.554  20.379  0.00  0.00    +0.000 Cl
ATOM      9  C   UNL     1       3.242   5.690  18.807  0.00  0.00    +0.000 A 
ATOM     10  C   UNL     1       3.418   4.355  18.360  0.00  0.00    +0.000 A 
ATOM     11  H   UNL     1       2.235   1.387  18.189  0.00  0.00    +0.000 HD
ENDROOT
BRANCH   1  12
ATOM     12  C   UNL     1       5.432   4.057  16.571  0.00  0.00    +0.000 C 
BRANCH  12  13
ATOM     13  C   UNL     1       6.379   5.061  17.193  0.00  0.00    +0.000 A 
ATOM     14  C   UNL     1       7.180   4.724  18.292  0.00  0.00    +0.000 A 
ATOM     15  C   UNL     1       7.952   5.688  18.945  0.00  0.00    +0.000 A 
ATOM     16  C   UNL     1       7.938   7.006  18.496  0.00  0.00    +0.000 A 
ATOM     17  C   UNL     1       7.147   7.358  17.406  0.00  0.00    +0.000 A 
ATOM     18  C   UNL     1       6.379   6.395  16.750  0.00  0.00    +0.000 A 
ENDBRANCH  12  13
BRANCH  12  20
ATOM     19  C   UNL     1       5.603   4.148  14.185  0.00  0.00    +0.000 C 
ATOM     20  O   UNL     1       4.872   4.557  15.336  0.00  0.00    +0.000 OA
ENDBRANCH  12  20
ENDBRANCH   1  12
TORSDOF 3
ENDMDL
MODEL 9
REMARK VINA RESULT:      -6.8      2.005      3.100
REMARK  Name = 
REMARK  4 active torsions:
REMARK  status: ('A' for Active; 'I' for Inactive)
REMARK    1  A    between atoms: C_1  and  O_2
REMARK    2  A    between atoms: O_2  and  C_3
REMARK    3  A    between atoms: C_3  and  C_4
REMARK    4  A    between atoms: C_3  and  C_10
REMARK                            x       y       z     vdW  Elec       q    Type
REMARK                         _______ _______ _______ _____ _____    ______ ____
ROOT
ATOM      1  C   UNL     1       5.590   4.400  17.282  0.00  0.00    +0.000 A 
ATOM      2  C   UNL     1       6.820   4.743  17.829  0.00  0.00    +0.000 A 
ATOM      3  N   UNL     1       7.483   5.419  16.855  0.00  0.00    +0.000 N 
ATOM      4  C   UNL     1       7.032   4.992  15.640  0.00  0.00    +0.000 A 
ATOM      5  C   UNL     1       7.626   5.143  14.379  0.00  0.00    +0.000 A 
ATOM      6  C   UNL     1       6.966   4.564  13.300  0.00  0.00    +0.000 A 
ATOM      7  C   UNL     1       5.737   3.947  13.469  0.00  0.00    +0.000 A 
ATOM      8 CL   UNL     1       4.981   3.202  12.116  0.00  0.00    +0.000 Cl
ATOM      9  C   UNL     1       5.115   3.871  14.729  0.00  0.00    +0.000 A 
ATOM     10  C   UNL     1       5.803   4.369  15.866  0.00  0.00    +0.000 A 
ATOM     11  H   UNL     1       8.279   6.048  17.002  0.00  0.00    +0.000 HD
ENDROOT
BRANCH   1  12
ATOM     12  C   UNL     1       4.383   4.195  18.168  0.00  0.00    +0.000 C 
BRANCH  12  13
ATOM     13  C   UNL     1       3.709   5.515  18.471  0.00  0.00    +0.000 A 
ATOM     14  C   UNL     1       2.963   5.703  19.642  0.00  0.00    +0.000 A 
ATOM     15  C   UNL     1       2.234   6.875  19.854  0.00  0.00    +0.000 A 
ATOM     16  C   UNL     1       2.252   7.884  18.894  0.00  0.00    +0.000 A 
ATOM     17  C   UNL     1       2.986   7.714  17.725  0.00  0.00    +0.000 A 
ATOM     18  C   UNL     1       3.719   6.545  17.513  0.00  0.00    +0.000 A 
ENDBRANCH  12  13
BRANCH  12  20
ATOM     19  C   UNL     1       4.021   2.237  19.496  0.00  0.00    +0.000 C 
ATOM     20  O   UNL     1       4.706   3.479  19.381  0.00  0.00    +0.000 OA
ENDBRANCH  12  20
ENDBRANCH   1  12
TORSDOF 3
ENDMDL
