MODEL 1
REMARK VINA RESULT:      -7.5      0.000      0.000
REMARK  Name = 
REMARK  8 active torsions:
REMARK  status: ('A' for Active; 'I' for Inactive)
REMARK    1  A    between atoms: C_1  and  N_2
REMARK    2  A    between atoms: N_2  and  C_3
REMARK    3  A    between atoms: N_2  and  C_4
REMARK    4  A    between atoms: C_6  and  C_7
REMARK    5  A    between atoms: C_7  and  C_8
REMARK    6  A    between atoms: C_10  and  C_11
REMARK    7  A    between atoms: C_20  and  C_21
REMARK    8  A    between atoms: C_20  and  C_22
REMARK                            x       y       z     vdW  Elec       q    Type
REMARK                         _______ _______ _______ _____ _____    ______ ____
ROOT
ATOM      1  C   UNL     1       2.647   7.917  18.100  0.00  0.00    +0.000 A 
ATOM      2  C   UNL     1       1.974   7.843  19.345  0.00  0.00    +0.000 A 
ATOM      3  C   UNL     1       1.311   9.040  19.468  0.00  0.00    +0.000 A 
ATOM      4  O   UNL     1       1.504   9.757  18.321  0.00  0.00    +0.000 OA
ATOM      5  N   UNL     1       2.348   9.059  17.462  0.00  0.00    +0.000 NA
ENDROOT
BRANCH   3   6
ATOM      6  C   UNL     1       0.534   9.669  20.537  0.00  0.00    +0.000 A 
ATOM      7  C   UNL     1       0.550   9.116  21.832  0.00  0.00    +0.000 A 
ATOM      8  C   UNL     1      -0.177   9.695  22.875  0.00  0.00    +0.000 A 
ATOM      9  C   UNL     1      -0.926  10.837  22.634  0.00  0.00    +0.000 A 
ATOM     10  F   UNL     1      -1.629  11.389  23.631  0.00  0.00    +0.000 F 
ATOM     11  C   UNL     1      -0.952  11.415  21.371  0.00  0.00    +0.000 A 
ATOM     12  C   UNL     1      -0.222  10.835  20.325  0.00  0.00    +0.000 A 
ENDBRANCH   3   6
BRANCH   1  13
ATOM     13  C   UNL     1       3.680   6.965  17.584  0.00  0.00    +0.000 C 
BRANCH  13  16
ATOM     14  C   UNL     1       5.625   4.527  18.567  0.00  0.00    +0.000 C 
ATOM     15  C   UNL     1       4.632   5.372  19.413  0.00  0.00    +0.000 C 
ATOM     16  C   UNL     1       3.702   5.562  18.200  0.00  0.00    +0.000 C 
ATOM     17  C   UNL     1       4.515   4.432  17.448  0.00  0.00    +0.000 C 
ATOM     18  C   UNL     1       3.836   3.047  17.564  0.00  0.00    +0.000 C 
ATOM     19  C   UNL     1       4.767   4.709  15.965  0.00  0.00    +0.000 C 
BRANCH  14  21
ATOM     20  C   UNL     1       7.548   5.691  19.426  0.00  0.00    +0.000 C 
ATOM     21  N   UNL     1       6.807   5.344  18.194  0.00  0.00    +0.000 NA
ATOM     22  C   UNL     1       7.733   4.520  17.390  0.00  0.00    +0.000 C 
ENDBRANCH  14  21
ENDBRANCH  13  16
ENDBRANCH   1  13
TORSDOF 4
ENDMDL
MODEL 2
REMARK VINA RESULT:      -7.5      0.150      1.024
REMARK  Name = 
REMARK  8 active torsions:
REMARK  status: ('A' for Active; 'I' for Inactive)
REMARK    1  A    between atoms: C_1  and  N_2
REMARK    2  A    between atoms: N_2  and  C_3
REMARK    3  A    between atoms: N_2  and  C_4
REMARK    4  A    between atoms: C_6  and  C_7
REMARK    5  A    between atoms: C_7  and  C_8
REMARK    6  A    between atoms: C_10  and  C_11
REMARK    7  A    between atoms: C_20  and  C_21
REMARK    8  A    between atoms: C_20  and  C_22
REMARK                            x       y       z     vdW  Elec       q    Type
REMARK                         _______ _______ _______ _____ _____    ______ ____
ROOT
ATOM      1  C   UNL     1       2.621   7.920  18.109  0.00  0.00    +0.000 A 
ATOM      2  C   UNL     1       1.959   7.832  19.358  0.00  0.00    +0.000 A 
ATOM      3  C   UNL     1       1.298   9.029  19.501  0.00  0.00    +0.000 A 
ATOM      4  O   UNL     1       1.482   9.759  18.362  0.00  0.00    +0.000 OA
ATOM      5  N   UNL     1       2.318   9.070  17.487  0.00  0.00    +0.000 NA
ENDROOT
BRANCH   3   6
ATOM      6  C   UNL     1       0.531   9.645  20.584  0.00  0.00    +0.000 A 
ATOM      7  C   UNL     1       0.010  10.944  20.422  0.00  0.00    +0.000 A 
ATOM      8  C   UNL     1      -0.730  11.558  21.435  0.00  0.00    +0.000 A 
ATOM      9  C   UNL     1      -0.962  10.877  22.621  0.00  0.00    +0.000 A 
ATOM     10  F   UNL     1      -1.665  11.467  23.595  0.00  0.00    +0.000 F 
ATOM     11  C   UNL     1      -0.473   9.590  22.807  0.00  0.00    +0.000 A 
ATOM     12  C   UNL     1       0.268   8.974  21.790  0.00  0.00    +0.000 A 
ENDBRANCH   3   6
BRANCH   1  13
ATOM     13  C   UNL     1       3.648   6.973  17.573  0.00  0.00    +0.000 C 
BRANCH  13  16
ATOM     14  C   UNL     1       5.553   4.497  18.539  0.00  0.00    +0.000 C 
ATOM     15  C   UNL     1       4.533   5.317  19.378  0.00  0.00    +0.000 C 
ATOM     16  C   UNL     1       3.646   5.550  18.141  0.00  0.00    +0.000 C 
ATOM     17  C   UNL     1       4.482   4.443  17.380  0.00  0.00    +0.000 C 
ATOM     18  C   UNL     1       3.796   3.058  17.425  0.00  0.00    +0.000 C 
ATOM     19  C   UNL     1       4.786   4.770  15.916  0.00  0.00    +0.000 C 
BRANCH  14  21
ATOM     20  C   UNL     1       7.386   5.718  19.509  0.00  0.00    +0.000 C 
ATOM     21  N   UNL     1       6.749   5.322  18.234  0.00  0.00    +0.000 NA
ATOM     22  C   UNL     1       7.747   4.490  17.531  0.00  0.00    +0.000 C 
ENDBRANCH  14  21
ENDBRANCH  13  16
ENDBRANCH   1  13
TORSDOF 4
ENDMDL
MODEL 3
REMARK VINA RESULT:      -7.5      1.560      2.606
REMARK  Name = 
REMARK  8 active torsions:
REMARK  status: ('A' for Active; 'I' for Inactive)
REMARK    1  A    between atoms: C_1  and  N_2
REMARK    2  A    between atoms: N_2  and  C_3
REMARK    3  A    between atoms: N_2  and  C_4
REMARK    4  A    between atoms: C_6  and  C_7
REMARK    5  A    between atoms: C_7  and  C_8
REMARK    6  A    between atoms: C_10  and  C_11
REMARK    7  A    between atoms: C_20  and  C_21
REMARK    8  A    between atoms: C_20  and  C_22
REMARK                            x       y       z     vdW  Elec       q    Type
REMARK                         _______ _______ _______ _____ _____    ______ ____
ROOT
ATOM      1  C   UNL     1       2.321   7.237  19.429  0.00  0.00    +0.000 A 
ATOM      2  C   UNL     1       1.576   7.559  20.590  0.00  0.00    +0.000 A 
ATOM      3  C   UNL     1       1.098   8.829  20.370  0.00  0.00    +0.000 A 
ATOM      4  O   UNL     1       1.463   9.213  19.111  0.00  0.00    +0.000 OA
ATOM      5  N   UNL     1       2.237   8.220  18.519  0.00  0.00    +0.000 NA
ENDROOT
BRANCH   3   6
ATOM      6  C   UNL     1       0.367   9.798  21.189  0.00  0.00    +0.000 A 
ATOM      7  C   UNL     1      -0.216   9.389  22.404  0.00  0.00    +0.000 A 
ATOM      8  C   UNL     1      -0.916  10.290  23.210  0.00  0.00    +0.000 A 
ATOM      9  C   UNL     1      -1.037  11.613  22.810  0.00  0.00    +0.000 A 
ATOM     10  F   UNL     1      -1.714  12.475  23.578  0.00  0.00    +0.000 F 
ATOM     11  C   UNL     1      -0.463  12.050  21.623  0.00  0.00    +0.000 A 
ATOM     12  C   UNL     1       0.240  11.147  20.816  0.00  0.00    +0.000 A 
ENDBRANCH   3   6
BRANCH   1  13
ATOM     13  C   UNL     1       3.224   6.058  19.245  0.00  0.00    +0.000 C 
BRANCH  13  16
ATOM     14  C   UNL     1       3.170   3.240  17.586  0.00  0.00    +0.000 C 
ATOM     15  C   UNL     1       2.167   4.426  17.511  0.00  0.00    +0.000 C 
ATOM     16  C   UNL     1       3.280   5.437  17.845  0.00  0.00    +0.000 C 
ATOM     17  C   UNL     1       4.344   4.296  17.579  0.00  0.00    +0.000 C 
ATOM     18  C   UNL     1       4.923   4.359  16.146  0.00  0.00    +0.000 C 
ATOM     19  C   UNL     1       5.518   4.280  18.560  0.00  0.00    +0.000 C 
BRANCH  14  21
ATOM     20  C   UNL     1       1.572   2.199  19.054  0.00  0.00    +0.000 C 
ATOM     21  N   UNL     1       3.007   2.510  18.868  0.00  0.00    +0.000 NA
ATOM     22  C   UNL     1       3.689   1.203  18.773  0.00  0.00    +0.000 C 
ENDBRANCH  14  21
ENDBRANCH  13  16
ENDBRANCH   1  13
TORSDOF 4
ENDMDL
MODEL 4
REMARK VINA RESULT:      -7.5      1.598      2.810
REMARK  Name = 
REMARK  8 active torsions:
REMARK  status: ('A' for Active; 'I' for Inactive)
REMARK    1  A    between atoms: C_1  and  N_2
REMARK    2  A    between atoms: N_2  and  C_3
REMARK    3  A    between atoms: N_2  and  C_4
REMARK    4  A    between atoms: C_6  and  C_7
REMARK    5  A    between atoms: C_7  and  C_8
REMARK    6  A    between atoms: C_10  and  C_11
REMARK    7  A    between atoms: C_20  and  C_21
REMARK    8  A    between atoms: C_20  and  C_22
REMARK                            x       y       z     vdW  Elec       q    Type
REMARK                         _______ _______ _______ _____ _____    ______ ____
ROOT
ATOM      1  C   UNL     1       2.222   7.286  19.541  0.00  0.00    +0.000 A 
ATOM      2  C   UNL     1       1.499   7.631  20.710  0.00  0.00    +0.000 A 
ATOM      3  C   UNL     1       1.038   8.906  20.485  0.00  0.00    +0.000 A 
ATOM      4  O   UNL     1       1.389   9.272  19.217  0.00  0.00    +0.000 OA
ATOM      5  N   UNL     1       2.139   8.261  18.623  0.00  0.00    +0.000 NA
ENDROOT
BRANCH   3   6
ATOM      6  C   UNL     1       0.334   9.893  21.305  0.00  0.00    +0.000 A 
ATOM      7  C   UNL     1       0.342  11.250  20.926  0.00  0.00    +0.000 A 
ATOM      8  C   UNL     1      -0.324  12.216  21.685  0.00  0.00    +0.000 A 
ATOM      9  C   UNL     1      -1.009  11.834  22.829  0.00  0.00    +0.000 A 
ATOM     10  F   UNL     1      -1.641  12.760  23.560  0.00  0.00    +0.000 F 
ATOM     11  C   UNL     1      -1.047  10.502  23.221  0.00  0.00    +0.000 A 
ATOM     12  C   UNL     1      -0.380   9.533  22.460  0.00  0.00    +0.000 A 
ENDBRANCH   3   6
BRANCH   1  13
ATOM     13  C   UNL     1       3.103   6.091  19.355  0.00  0.00    +0.000 C 
BRANCH  13  16
ATOM     14  C   UNL     1       3.129   3.320  17.618  0.00  0.00    +0.000 C 
ATOM     15  C   UNL     1       2.108   4.491  17.555  0.00  0.00    +0.000 C 
ATOM     16  C   UNL     1       3.197   5.510  17.939  0.00  0.00    +0.000 C 
ATOM     17  C   UNL     1       4.285   4.394  17.664  0.00  0.00    +0.000 C 
ATOM     18  C   UNL     1       4.891   4.506  16.245  0.00  0.00    +0.000 C 
ATOM     19  C   UNL     1       5.440   4.370  18.667  0.00  0.00    +0.000 C 
BRANCH  14  21
ATOM     20  C   UNL     1       1.523   2.196  19.015  0.00  0.00    +0.000 C 
ATOM     21  N   UNL     1       2.953   2.552  18.876  0.00  0.00    +0.000 NA
ATOM     22  C   UNL     1       3.675   1.268  18.767  0.00  0.00    +0.000 C 
ENDBRANCH  14  21
ENDBRANCH  13  16
ENDBRANCH   1  13
TORSDOF 4
ENDMDL
MODEL 5
REMARK VINA RESULT:      -7.5      1.718      2.570
REMARK  Name = 
REMARK  8 active torsions:
REMARK  status: ('A' for Active; 'I' for Inactive)
REMARK    1  A    between atoms: C_1  and  N_2
REMARK    2  A    between atoms: N_2  and  C_3
REMARK    3  A    between atoms: N_2  and  C_4
REMARK    4  A    between atoms: C_6  and  C_7
REMARK    5  A    between atoms: C_7  and  C_8
REMARK    6  A    between atoms: C_10  and  C_11
REMARK    7  A    between atoms: C_20  and  C_21
REMARK    8  A    between atoms: C_20  and  C_22
REMARK                            x       y       z     vdW  Elec       q    Type
REMARK                         _______ _______ _______ _____ _____    ______ ____
ROOT
ATOM      1  C   UNL     1       2.496   7.675  18.709  0.00  0.00    +0.000 A 
ATOM      2  C   UNL     1       1.940   7.837  20.002  0.00  0.00    +0.000 A 
ATOM      3  C   UNL     1       1.089   8.912  19.896  0.00  0.00    +0.000 A 
ATOM      4  O   UNL     1       1.070   9.317  18.592  0.00  0.00    +0.000 OA
ATOM      5  N   UNL     1       1.957   8.548  17.844  0.00  0.00    +0.000 NA
ENDROOT
BRANCH   3   6
ATOM      6  C   UNL     1       0.295   9.681  20.856  0.00  0.00    +0.000 A 
ATOM      7  C   UNL     1       0.178   9.232  22.185  0.00  0.00    +0.000 A 
ATOM      8  C   UNL     1      -0.568   9.945  23.126  0.00  0.00    +0.000 A 
ATOM      9  C   UNL     1      -1.202  11.119  22.748  0.00  0.00    +0.000 A 
ATOM     10  F   UNL     1      -1.924  11.800  23.647  0.00  0.00    +0.000 F 
ATOM     11  C   UNL     1      -1.095  11.596  21.448  0.00  0.00    +0.000 A 
ATOM     12  C   UNL     1      -0.346  10.881  20.504  0.00  0.00    +0.000 A 
ENDBRANCH   3   6
BRANCH   1  13
ATOM     13  C   UNL     1       3.638   6.784  18.332  0.00  0.00    +0.000 C 
BRANCH  13  16
ATOM     14  C   UNL     1       2.584   3.718  18.761  0.00  0.00    +0.000 C 
ATOM     15  C   UNL     1       1.917   4.865  17.951  0.00  0.00    +0.000 C 
ATOM     16  C   UNL     1       3.291   5.476  17.614  0.00  0.00    +0.000 C 
ATOM     17  C   UNL     1       3.967   4.142  18.130  0.00  0.00    +0.000 C 
ATOM     18  C   UNL     1       4.286   3.163  16.975  0.00  0.00    +0.000 C 
ATOM     19  C   UNL     1       5.251   4.350  18.937  0.00  0.00    +0.000 C 
BRANCH  14  21
ATOM     20  C   UNL     1       1.046   4.252  20.534  0.00  0.00    +0.000 C 
ATOM     21  N   UNL     1       2.466   3.983  20.217  0.00  0.00    +0.000 NA
ATOM     22  C   UNL     1       2.815   2.757  20.964  0.00  0.00    +0.000 C 
ENDBRANCH  14  21
ENDBRANCH  13  16
ENDBRANCH   1  13
TORSDOF 4
ENDMDL
MODEL 6
REMARK VINA RESULT:      -7.0      4.801      8.764
REMARK  Name = 
REMARK  8 active torsions:
REMARK  status: ('A' for Active; 'I' for Inactive)
REMARK    1  A    between atoms: C_1  and  N_2
REMARK    2  A    between atoms: N_2  and  C_3
REMARK    3  A    between atoms: N_2  and  C_4
REMARK    4  A    between atoms: C_6  and  C_7
REMARK    5  A    between atoms: C_7  and  C_8
REMARK    6  A    between atoms: C_10  and  C_11
REMARK    7  A    between atoms: C_20  and  C_21
REMARK    8  A    between atoms: C_20  and  C_22
REMARK                            x       y       z     vdW  Elec       q    Type
REMARK                         _______ _______ _______ _____ _____    ______ ____
ROOT
ATOM      1  C   UNL     1       5.424   4.056  18.135  0.00  0.00    +0.000 A 
ATOM      2  C   UNL     1       5.096   3.859  16.771  0.00  0.00    +0.000 A 
ATOM      3  C   UNL     1       6.233   4.195  16.075  0.00  0.00    +0.000 A 
ATOM      4  O   UNL     1       7.215   4.492  16.976  0.00  0.00    +0.000 OA
ATOM      5  N   UNL     1       6.710   4.414  18.270  0.00  0.00    +0.000 NA
ENDROOT
BRANCH   3   6
ATOM      6  C   UNL     1       6.554   4.332  14.653  0.00  0.00    +0.000 A 
ATOM      7  C   UNL     1       7.544   5.245  14.244  0.00  0.00    +0.000 A 
ATOM      8  C   UNL     1       7.877   5.396  12.896  0.00  0.00    +0.000 A 
ATOM      9  C   UNL     1       7.224   4.630  11.941  0.00  0.00    +0.000 A 
ATOM     10  F   UNL     1       7.537   4.779  10.648  0.00  0.00    +0.000 F 
ATOM     11  C   UNL     1       6.252   3.710  12.314  0.00  0.00    +0.000 A 
ATOM     12  C   UNL     1       5.919   3.559  13.666  0.00  0.00    +0.000 A 
ENDBRANCH   3   6
BRANCH   1  13
ATOM     13  C   UNL     1       4.477   4.039  19.293  0.00  0.00    +0.000 C 
BRANCH  13  16
ATOM     14  C   UNL     1       1.584   5.564  19.342  0.00  0.00    +0.000 C 
ATOM     15  C   UNL     1       2.366   5.012  18.117  0.00  0.00    +0.000 C 
ATOM     16  C   UNL     1       2.986   3.890  18.970  0.00  0.00    +0.000 C 
ATOM     17  C   UNL     1       1.940   4.230  20.108  0.00  0.00    +0.000 C 
ATOM     18  C   UNL     1       0.702   3.305  20.060  0.00  0.00    +0.000 C 
ATOM     19  C   UNL     1       2.508   4.182  21.528  0.00  0.00    +0.000 C 
BRANCH  14  21
ATOM     20  C   UNL     1       2.424   7.745  18.769  0.00  0.00    +0.000 C 
ATOM     21  N   UNL     1       2.254   6.777  19.875  0.00  0.00    +0.000 NA
ATOM     22  C   UNL     1       1.360   7.437  20.849  0.00  0.00    +0.000 C 
ENDBRANCH  14  21
ENDBRANCH  13  16
ENDBRANCH   1  13
TORSDOF 4
ENDMDL
MODEL 7
REMARK VINA RESULT:      -7.0      2.651      3.734
REMARK  Name = 
REMARK  8 active torsions:
REMARK  status: ('A' for Active; 'I' for Inactive)
REMARK    1  A    between atoms: C_1  and  N_2
REMARK    2  A    between atoms: N_2  and  C_3
REMARK    3  A    between atoms: N_2  and  C_4
REMARK    4  A    between atoms: C_6  and  C_7
REMARK    5  A    between atoms: C_7  and  C_8
REMARK    6  A    between atoms: C_10  and  C_11
REMARK    7  A    between atoms: C_20  and  C_21
REMARK    8  A    between atoms: C_20  and  C_22
REMARK                            x       y       z     vdW  Elec       q    Type
REMARK                         _______ _______ _______ _____ _____    ______ ____
ROOT
ATOM      1  C   UNL     1       1.870   7.468  20.004  0.00  0.00    +0.000 A 
ATOM      2  C   UNL     1       1.898   8.563  19.105  0.00  0.00    +0.000 A 
ATOM      3  C   UNL     1       1.154   9.547  19.712  0.00  0.00    +0.000 A 
ATOM      4  O   UNL     1       0.773   9.098  20.945  0.00  0.00    +0.000 OA
ATOM      5  N   UNL     1       1.214   7.791  21.130  0.00  0.00    +0.000 NA
ENDROOT
BRANCH   3   6
ATOM      6  C   UNL     1       0.683  10.870  19.299  0.00  0.00    +0.000 A 
ATOM      7  C   UNL     1       1.612  11.847  18.893  0.00  0.00    +0.000 A 
ATOM      8  C   UNL     1       1.195  13.117  18.488  0.00  0.00    +0.000 A 
ATOM      9  C   UNL     1      -0.158  13.422  18.480  0.00  0.00    +0.000 A 
ATOM     10  F   UNL     1      -0.558  14.641  18.099  0.00  0.00    +0.000 F 
ATOM     11  C   UNL     1      -1.100  12.475  18.861  0.00  0.00    +0.000 A 
ATOM     12  C   UNL     1      -0.682  11.201  19.266  0.00  0.00    +0.000 A 
ENDBRANCH   3   6
BRANCH   1  13
ATOM     13  C   UNL     1       2.345   6.076  19.731  0.00  0.00    +0.000 C 
BRANCH  13  16
ATOM     14  C   UNL     1       2.932   3.602  17.674  0.00  0.00    +0.000 C 
ATOM     15  C   UNL     1       1.752   4.615  17.657  0.00  0.00    +0.000 C 
ATOM     16  C   UNL     1       2.639   5.715  18.271  0.00  0.00    +0.000 C 
ATOM     17  C   UNL     1       3.903   4.812  17.967  0.00  0.00    +0.000 C 
ATOM     18  C   UNL     1       4.595   5.203  16.641  0.00  0.00    +0.000 C 
ATOM     19  C   UNL     1       4.964   4.813  19.069  0.00  0.00    +0.000 C 
BRANCH  14  21
ATOM     20  C   UNL     1       1.371   2.189  18.839  0.00  0.00    +0.000 C 
ATOM     21  N   UNL     1       2.776   2.651  18.802  0.00  0.00    +0.000 NA
ATOM     22  C   UNL     1       3.586   1.444  18.537  0.00  0.00    +0.000 C 
ENDBRANCH  14  21
ENDBRANCH  13  16
ENDBRANCH   1  13
TORSDOF 4
ENDMDL
MODEL 8
REMARK VINA RESULT:      -6.9      1.316      2.286
REMARK  Name = 
REMARK  8 active torsions:
REMARK  status: ('A' for Active; 'I' for Inactive)
REMARK    1  A    between atoms: C_1  and  N_2
REMARK    2  A    between atoms: N_2  and  C_3
REMARK    3  A    between atoms: N_2  and  C_4
REMARK    4  A    between atoms: C_6  and  C_7
REMARK    5  A    between atoms: C_7  and  C_8
REMARK    6  A    between atoms: C_10  and  C_11
REMARK    7  A    between atoms: C_20  and  C_21
REMARK    8  A    between atoms: C_20  and  C_22
REMARK                            x       y       z     vdW  Elec       q    Type
REMARK                         _______ _______ _______ _____ _____    ______ ____
ROOT
ATOM      1  C   UNL     1       2.884   7.601  18.376  0.00  0.00    +0.000 A 
ATOM      2  C   UNL     1       2.341   7.657  19.683  0.00  0.00    +0.000 A 
ATOM      3  C   UNL     1       1.432   8.688  19.651  0.00  0.00    +0.000 A 
ATOM      4  O   UNL     1       1.370   9.166  18.373  0.00  0.00    +0.000 OA
ATOM      5  N   UNL     1       2.285   8.491  17.570  0.00  0.00    +0.000 NA
ENDROOT
BRANCH   3   6
ATOM      6  C   UNL     1       0.613   9.356  20.664  0.00  0.00    +0.000 A 
ATOM      7  C   UNL     1       0.148  10.665  20.436  0.00  0.00    +0.000 A 
ATOM      8  C   UNL     1      -0.639  11.327  21.381  0.00  0.00    +0.000 A 
ATOM      9  C   UNL     1      -0.974  10.684  22.563  0.00  0.00    +0.000 A 
ATOM     10  F   UNL     1      -1.723  11.321  23.473  0.00  0.00    +0.000 F 
ATOM     11  C   UNL     1      -0.542   9.387  22.812  0.00  0.00    +0.000 A 
ATOM     12  C   UNL     1       0.247   8.723  21.864  0.00  0.00    +0.000 A 
ENDBRANCH   3   6
BRANCH   1  13
ATOM     13  C   UNL     1       4.067   6.797  17.933  0.00  0.00    +0.000 C 
BRANCH  13  16
ATOM     14  C   UNL     1       3.654   3.566  18.215  0.00  0.00    +0.000 C 
ATOM     15  C   UNL     1       2.640   4.629  17.707  0.00  0.00    +0.000 C 
ATOM     16  C   UNL     1       3.780   5.508  17.157  0.00  0.00    +0.000 C 
ATOM     17  C   UNL     1       4.765   4.285  17.354  0.00  0.00    +0.000 C 
ATOM     18  C   UNL     1       4.961   3.476  16.051  0.00  0.00    +0.000 C 
ATOM     19  C   UNL     1       6.150   4.664  17.885  0.00  0.00    +0.000 C 
BRANCH  14  21
ATOM     20  C   UNL     1       2.512   3.901  20.306  0.00  0.00    +0.000 C 
ATOM     21  N   UNL     1       3.837   3.689  19.682  0.00  0.00    +0.000 NA
ATOM     22  C   UNL     1       4.330   2.405  20.221  0.00  0.00    +0.000 C 
ENDBRANCH  14  21
ENDBRANCH  13  16
ENDBRANCH   1  13
TORSDOF 4
ENDMDL
MODEL 9
REMARK VINA RESULT:      -6.9      1.038      1.724
REMARK  Name = 
REMARK  8 active torsions:
REMARK  status: ('A' for Active; 'I' for Inactive)
REMARK    1  A    between atoms: C_1  and  N_2
REMARK    2  A    between atoms: N_2  and  C_3
REMARK    3  A    between atoms: N_2  and  C_4
REMARK    4  A    between atoms: C_6  and  C_7
REMARK    5  A    between atoms: C_7  and  C_8
REMARK    6  A    between atoms: C_10  and  C_11
REMARK    7  A    between atoms: C_20  and  C_21
REMARK    8  A    between atoms: C_20  and  C_22
REMARK                            x       y       z     vdW  Elec       q    Type
REMARK                         _______ _______ _______ _____ _____    ______ ____
ROOT
ATOM      1  C   UNL     1       2.523   8.009  18.151  0.00  0.00    +0.000 A 
ATOM      2  C   UNL     1       2.010   7.952  19.470  0.00  0.00    +0.000 A 
ATOM      3  C   UNL     1       1.185   9.046  19.583  0.00  0.00    +0.000 A 
ATOM      4  O   UNL     1       1.138   9.674  18.371  0.00  0.00    +0.000 OA
ATOM      5  N   UNL     1       1.982   9.031  17.471  0.00  0.00    +0.000 NA
ENDROOT
BRANCH   3   6
ATOM      6  C   UNL     1       0.440   9.649  20.689  0.00  0.00    +0.000 A 
ATOM      7  C   UNL     1      -0.256  10.856  20.487  0.00  0.00    +0.000 A 
ATOM      8  C   UNL     1      -0.980  11.455  21.521  0.00  0.00    +0.000 A 
ATOM      9  C   UNL     1      -1.019  10.849  22.768  0.00  0.00    +0.000 A 
ATOM     10  F   UNL     1      -1.706  11.426  23.762  0.00  0.00    +0.000 F 
ATOM     11  C   UNL     1      -0.353   9.651  22.996  0.00  0.00    +0.000 A 
ATOM     12  C   UNL     1       0.372   9.051  21.958  0.00  0.00    +0.000 A 
ENDBRANCH   3   6
BRANCH   1  13
ATOM     13  C   UNL     1       3.630   7.175  17.585  0.00  0.00    +0.000 C 
BRANCH  13  16
ATOM     14  C   UNL     1       5.529   4.514  17.691  0.00  0.00    +0.000 C 
ATOM     15  C   UNL     1       5.773   5.903  18.345  0.00  0.00    +0.000 C 
ATOM     16  C   UNL     1       4.259   6.132  18.515  0.00  0.00    +0.000 C 
ATOM     17  C   UNL     1       4.030   4.602  18.180  0.00  0.00    +0.000 C 
ATOM     18  C   UNL     1       3.891   3.739  19.455  0.00  0.00    +0.000 C 
ATOM     19  C   UNL     1       2.819   4.321  17.288  0.00  0.00    +0.000 C 
BRANCH  14  21
ATOM     20  C   UNL     1       7.009   5.236  15.936  0.00  0.00    +0.000 C 
ATOM     21  N   UNL     1       5.702   4.602  16.219  0.00  0.00    +0.000 NA
ATOM     22  C   UNL     1       5.790   3.239  15.658  0.00  0.00    +0.000 C 
ENDBRANCH  14  21
ENDBRANCH  13  16
ENDBRANCH   1  13
TORSDOF 4
ENDMDL
