MODEL 1
REMARK VINA RESULT:      -7.5      0.000      0.000
REMARK  Name = 
REMARK  8 active torsions:
REMARK  status: ('A' for Active; 'I' for Inactive)
REMARK    1  A    between atoms: C_1  and  O_2
REMARK    2  A    between atoms: O_2  and  C_3
REMARK    3  A    between atoms: C_4  and  C_5
REMARK    4  A    between atoms: C_8  and  C_9
REMARK    5  A    between atoms: C_9  and  C_10
REMARK    6  A    between atoms: C_9  and  C_11
REMARK    7  A    between atoms: C_18  and  C_19
REMARK    8  A    between atoms: C_19  and  O_21
REMARK                            x       y       z     vdW  Elec       q    Type
REMARK                         _______ _______ _______ _____ _____    ______ ____
ROOT
ATOM      1  C   UNL     1       3.868   4.960  18.982  0.00  0.00    +0.000 A 
ATOM      2  C   UNL     1       4.027   5.754  17.906  0.00  0.00    +0.000 A 
ATOM      3  O   UNL     1       3.435   6.992  17.718  0.00  0.00    +0.000 OA
ATOM      4  C   UNL     1       2.607   7.472  18.698  0.00  0.00    +0.000 A 
ATOM      5  C   UNL     1       2.053   8.736  18.510  0.00  0.00    +0.000 A 
ATOM      6  C   UNL     1       1.157   9.251  19.453  0.00  0.00    +0.000 A 
ATOM      7  C   UNL     1       0.811   8.508  20.591  0.00  0.00    +0.000 A 
ATOM      8  C   UNL     1       1.376   7.243  20.781  0.00  0.00    +0.000 A 
ATOM      9  C   UNL     1       2.287   6.743  19.836  0.00  0.00    +0.000 A 
ATOM     10  C   UNL     1       2.923   5.433  20.040  0.00  0.00    +0.000 A 
ATOM     11  O   UNL     1       2.662   4.805  21.058  0.00  0.00    +0.000 OA
ENDROOT
BRANCH   2  12
ATOM     12  C   UNL     1       4.871   5.346  16.769  0.00  0.00    +0.000 A 
ATOM     13  C   UNL     1       4.413   4.388  15.858  0.00  0.00    +0.000 A 
ATOM     14  C   UNL     1       5.204   4.006  14.767  0.00  0.00    +0.000 A 
ATOM     15  C   UNL     1       6.466   4.584  14.559  0.00  0.00    +0.000 A 
ATOM     16  C   UNL     1       6.928   5.524  15.493  0.00  0.00    +0.000 A 
ATOM     17  C   UNL     1       6.139   5.905  16.585  0.00  0.00    +0.000 A 
BRANCH  15  18
ATOM     18  C   UNL     1       7.274   4.226  13.322  0.00  0.00    +0.000 C 
ATOM     19  C   UNL     1       6.401   3.519  12.280  0.00  0.00    +0.000 C 
ATOM     20  C   UNL     1       7.968   5.436  12.693  0.00  0.00    +0.000 C 
ENDBRANCH  15  18
ENDBRANCH   2  12
BRANCH   1  22
ATOM     21  C   UNL     1       3.875   2.567  18.988  0.00  0.00    +0.000 C 
ATOM     22  O   UNL     1       4.598   3.785  19.096  0.00  0.00    +0.000 OA
ENDBRANCH   1  22
BRANCH   7  23
ATOM     23  C   UNL     1      -0.200   9.089  21.515  0.00  0.00    +0.000 C 
ATOM     24  O   UNL     1      -0.757   8.419  22.367  0.00  0.00    +0.000 OA
BRANCH  23  25
ATOM     25  O   UNL     1      -0.475  10.394  21.317  0.00  0.00    +0.000 OA
ATOM     26  H   UNL     1      -1.279  10.604  20.809  0.00  0.00    +0.000 HD
ENDBRANCH  23  25
ENDBRANCH   7  23
TORSDOF 5
ENDMDL
MODEL 2
REMARK VINA RESULT:      -7.3      0.431      1.204
REMARK  Name = 
REMARK  8 active torsions:
REMARK  status: ('A' for Active; 'I' for Inactive)
REMARK    1  A    between atoms: C_1  and  O_2
REMARK    2  A    between atoms: O_2  and  C_3
REMARK    3  A    between atoms: C_4  and  C_5
REMARK    4  A    between atoms: C_8  and  C_9
REMARK    5  A    between atoms: C_9  and  C_10
REMARK    6  A    between atoms: C_9  and  C_11
REMARK    7  A    between atoms: C_18  and  C_19
REMARK    8  A    between atoms: C_19  and  O_21
REMARK                            x       y       z     vdW  Elec       q    Type
REMARK                         _______ _______ _______ _____ _____    ______ ____
ROOT
ATOM      1  C   UNL     1       3.591   5.103  19.152  0.00  0.00    +0.000 A 
ATOM      2  C   UNL     1       3.717   5.881  18.060  0.00  0.00    +0.000 A 
ATOM      3  O   UNL     1       3.140   7.128  17.882  0.00  0.00    +0.000 OA
ATOM      4  C   UNL     1       2.364   7.635  18.889  0.00  0.00    +0.000 A 
ATOM      5  C   UNL     1       1.824   8.906  18.708  0.00  0.00    +0.000 A 
ATOM      6  C   UNL     1       0.979   9.449  19.681  0.00  0.00    +0.000 A 
ATOM      7  C   UNL     1       0.668   8.726  20.843  0.00  0.00    +0.000 A 
ATOM      8  C   UNL     1       1.219   7.454  21.025  0.00  0.00    +0.000 A 
ATOM      9  C   UNL     1       2.079   6.926  20.049  0.00  0.00    +0.000 A 
ATOM     10  C   UNL     1       2.700   5.607  20.243  0.00  0.00    +0.000 A 
ATOM     11  O   UNL     1       2.472   4.997  21.280  0.00  0.00    +0.000 OA
ENDROOT
BRANCH   2  12
ATOM     12  C   UNL     1       4.505   5.444  16.894  0.00  0.00    +0.000 A 
ATOM     13  C   UNL     1       5.522   6.259  16.384  0.00  0.00    +0.000 A 
ATOM     14  C   UNL     1       6.285   5.843  15.285  0.00  0.00    +0.000 A 
ATOM     15  C   UNL     1       6.052   4.598  14.680  0.00  0.00    +0.000 A 
ATOM     16  C   UNL     1       5.012   3.800  15.181  0.00  0.00    +0.000 A 
ATOM     17  C   UNL     1       4.249   4.215  16.279  0.00  0.00    +0.000 A 
BRANCH  15  18
ATOM     18  C   UNL     1       6.946   4.122  13.546  0.00  0.00    +0.000 C 
ATOM     19  C   UNL     1       6.123   3.452  12.440  0.00  0.00    +0.000 C 
ATOM     20  C   UNL     1       7.807   5.241  12.956  0.00  0.00    +0.000 C 
ENDBRANCH  15  18
ENDBRANCH   2  12
BRANCH   1  22
ATOM     21  C   UNL     1       3.546   2.720  19.358  0.00  0.00    +0.000 C 
ATOM     22  O   UNL     1       4.304   3.917  19.251  0.00  0.00    +0.000 OA
ENDBRANCH   1  22
BRANCH   7  23
ATOM     23  C   UNL     1      -0.291   9.337  21.801  0.00  0.00    +0.000 C 
ATOM     24  O   UNL     1      -0.548  10.529  21.787  0.00  0.00    +0.000 OA
BRANCH  23  25
ATOM     25  O   UNL     1      -0.827   8.486  22.699  0.00  0.00    +0.000 OA
ATOM     26  H   UNL     1      -1.797   8.399  22.702  0.00  0.00    +0.000 HD
ENDBRANCH  23  25
ENDBRANCH   7  23
TORSDOF 5
ENDMDL
MODEL 3
REMARK VINA RESULT:      -7.2      2.008      8.089
REMARK  Name = 
REMARK  8 active torsions:
REMARK  status: ('A' for Active; 'I' for Inactive)
REMARK    1  A    between atoms: C_1  and  O_2
REMARK    2  A    between atoms: O_2  and  C_3
REMARK    3  A    between atoms: C_4  and  C_5
REMARK    4  A    between atoms: C_8  and  C_9
REMARK    5  A    between atoms: C_9  and  C_10
REMARK    6  A    between atoms: C_9  and  C_11
REMARK    7  A    between atoms: C_18  and  C_19
REMARK    8  A    between atoms: C_19  and  O_21
REMARK                            x       y       z     vdW  Elec       q    Type
REMARK                         _______ _______ _______ _____ _____    ______ ____
ROOT
ATOM      1  C   UNL     1       2.635   5.868  19.619  0.00  0.00    +0.000 A 
ATOM      2  C   UNL     1       2.539   7.127  19.151  0.00  0.00    +0.000 A 
ATOM      3  O   UNL     1       3.165   7.619  18.016  0.00  0.00    +0.000 OA
ATOM      4  C   UNL     1       3.959   6.771  17.292  0.00  0.00    +0.000 A 
ATOM      5  C   UNL     1       4.547   7.272  16.133  0.00  0.00    +0.000 A 
ATOM      6  C   UNL     1       5.411   6.466  15.386  0.00  0.00    +0.000 A 
ATOM      7  C   UNL     1       5.692   5.152  15.790  0.00  0.00    +0.000 A 
ATOM      8  C   UNL     1       5.093   4.649  16.948  0.00  0.00    +0.000 A 
ATOM      9  C   UNL     1       4.214   5.463  17.682  0.00  0.00    +0.000 A 
ATOM     10  C   UNL     1       3.542   4.937  18.881  0.00  0.00    +0.000 A 
ATOM     11  O   UNL     1       3.746   3.774  19.206  0.00  0.00    +0.000 OA
ENDROOT
BRANCH   2  12
ATOM     12  C   UNL     1       1.737   8.147  19.849  0.00  0.00    +0.000 A 
ATOM     13  C   UNL     1       1.502   8.039  21.224  0.00  0.00    +0.000 A 
ATOM     14  C   UNL     1       0.752   9.013  21.896  0.00  0.00    +0.000 A 
ATOM     15  C   UNL     1       0.231  10.119  21.209  0.00  0.00    +0.000 A 
ATOM     16  C   UNL     1       0.449  10.204  19.825  0.00  0.00    +0.000 A 
ATOM     17  C   UNL     1       1.197   9.231  19.151  0.00  0.00    +0.000 A 
BRANCH  15  18
ATOM     18  C   UNL     1      -0.503  11.213  21.968  0.00  0.00    +0.000 C 
ATOM     19  C   UNL     1      -1.487  11.952  21.053  0.00  0.00    +0.000 C 
ATOM     20  C   UNL     1      -1.230  10.692  23.209  0.00  0.00    +0.000 C 
ENDBRANCH  15  18
ENDBRANCH   2  12
BRANCH   1  22
ATOM     21  C   UNL     1       0.989   4.378  20.512  0.00  0.00    +0.000 C 
ATOM     22  O   UNL     1       1.876   5.470  20.711  0.00  0.00    +0.000 OA
ENDBRANCH   1  22
BRANCH   7  23
ATOM     23  C   UNL     1       6.674   4.377  14.985  0.00  0.00    +0.000 C 
ATOM     24  O   UNL     1       7.821   4.756  14.825  0.00  0.00    +0.000 OA
BRANCH  23  25
ATOM     25  O   UNL     1       6.194   3.249  14.424  0.00  0.00    +0.000 OA
ATOM     26  H   UNL     1       5.302   3.294  14.035  0.00  0.00    +0.000 HD
ENDBRANCH  23  25
ENDBRANCH   7  23
TORSDOF 5
ENDMDL
MODEL 4
REMARK VINA RESULT:      -7.2      2.014      8.082
REMARK  Name = 
REMARK  8 active torsions:
REMARK  status: ('A' for Active; 'I' for Inactive)
REMARK    1  A    between atoms: C_1  and  O_2
REMARK    2  A    between atoms: O_2  and  C_3
REMARK    3  A    between atoms: C_4  and  C_5
REMARK    4  A    between atoms: C_8  and  C_9
REMARK    5  A    between atoms: C_9  and  C_10
REMARK    6  A    between atoms: C_9  and  C_11
REMARK    7  A    between atoms: C_18  and  C_19
REMARK    8  A    between atoms: C_19  and  O_21
REMARK                            x       y       z     vdW  Elec       q    Type
REMARK                         _______ _______ _______ _____ _____    ______ ____
ROOT
ATOM      1  C   UNL     1       2.589   5.879  19.618  0.00  0.00    +0.000 A 
ATOM      2  C   UNL     1       2.500   7.139  19.153  0.00  0.00    +0.000 A 
ATOM      3  O   UNL     1       3.144   7.636  18.031  0.00  0.00    +0.000 OA
ATOM      4  C   UNL     1       3.952   6.792  17.318  0.00  0.00    +0.000 A 
ATOM      5  C   UNL     1       4.560   7.298  16.171  0.00  0.00    +0.000 A 
ATOM      6  C   UNL     1       5.438   6.496  15.436  0.00  0.00    +0.000 A 
ATOM      7  C   UNL     1       5.714   5.181  15.841  0.00  0.00    +0.000 A 
ATOM      8  C   UNL     1       5.096   4.673  16.987  0.00  0.00    +0.000 A 
ATOM      9  C   UNL     1       4.203   5.483  17.708  0.00  0.00    +0.000 A 
ATOM     10  C   UNL     1       3.511   4.952  18.892  0.00  0.00    +0.000 A 
ATOM     11  O   UNL     1       3.710   3.788  19.217  0.00  0.00    +0.000 OA
ENDROOT
BRANCH   2  12
ATOM     12  C   UNL     1       1.684   8.155  19.840  0.00  0.00    +0.000 A 
ATOM     13  C   UNL     1       1.184   9.255  19.134  0.00  0.00    +0.000 A 
ATOM     14  C   UNL     1       0.395  10.216  19.778  0.00  0.00    +0.000 A 
ATOM     15  C   UNL     1       0.081  10.092  21.140  0.00  0.00    +0.000 A 
ATOM     16  C   UNL     1       0.609   9.000  21.846  0.00  0.00    +0.000 A 
ATOM     17  C   UNL     1       1.399   8.039  21.204  0.00  0.00    +0.000 A 
BRANCH  15  18
ATOM     18  C   UNL     1      -0.850  11.095  21.802  0.00  0.00    +0.000 C 
ATOM     19  C   UNL     1      -1.142  10.698  23.254  0.00  0.00    +0.000 C 
ATOM     20  C   UNL     1      -0.318  12.529  21.747  0.00  0.00    +0.000 C 
ENDBRANCH  15  18
ENDBRANCH   2  12
BRANCH   1  22
ATOM     21  C   UNL     1       0.918   4.394  20.472  0.00  0.00    +0.000 C 
ATOM     22  O   UNL     1       1.812   5.476  20.695  0.00  0.00    +0.000 OA
ENDBRANCH   1  22
BRANCH   7  23
ATOM     23  C   UNL     1       6.711   4.410  15.051  0.00  0.00    +0.000 C 
ATOM     24  O   UNL     1       7.847   4.816  14.870  0.00  0.00    +0.000 OA
BRANCH  23  25
ATOM     25  O   UNL     1       6.258   3.254  14.526  0.00  0.00    +0.000 OA
ATOM     26  H   UNL     1       6.756   2.885  13.774  0.00  0.00    +0.000 HD
ENDBRANCH  23  25
ENDBRANCH   7  23
TORSDOF 5
ENDMDL
MODEL 5
REMARK VINA RESULT:      -6.9      2.989      9.234
REMARK  Name = 
REMARK  8 active torsions:
REMARK  status: ('A' for Active; 'I' for Inactive)
REMARK    1  A    between atoms: C_1  and  O_2
REMARK    2  A    between atoms: O_2  and  C_3
REMARK    3  A    between atoms: C_4  and  C_5
REMARK    4  A    between atoms: C_8  and  C_9
REMARK    5  A    between atoms: C_9  and  C_10
REMARK    6  A    between atoms: C_9  and  C_11
REMARK    7  A    between atoms: C_18  and  C_19
REMARK    8  A    between atoms: C_19  and  O_21
REMARK                            x       y       z     vdW  Elec       q    Type
REMARK                         _______ _______ _______ _____ _____    ______ ____
ROOT
ATOM      1  C   UNL     1       1.375   9.505  18.936  0.00  0.00    +0.000 A 
ATOM      2  C   UNL     1       0.918   9.110  20.139  0.00  0.00    +0.000 A 
ATOM      3  O   UNL     1       1.189   7.896  20.750  0.00  0.00    +0.000 OA
ATOM      4  C   UNL     1       1.985   6.999  20.089  0.00  0.00    +0.000 A 
ATOM      5  C   UNL     1       2.279   5.801  20.736  0.00  0.00    +0.000 A 
ATOM      6  C   UNL     1       3.042   4.827  20.084  0.00  0.00    +0.000 A 
ATOM      7  C   UNL     1       3.518   5.044  18.782  0.00  0.00    +0.000 A 
ATOM      8  C   UNL     1       3.230   6.251  18.140  0.00  0.00    +0.000 A 
ATOM      9  C   UNL     1       2.476   7.229  18.811  0.00  0.00    +0.000 A 
ATOM     10  C   UNL     1       2.197   8.521  18.167  0.00  0.00    +0.000 A 
ATOM     11  O   UNL     1       2.657   8.733  17.051  0.00  0.00    +0.000 OA
ENDROOT
BRANCH   2  12
ATOM     12  C   UNL     1       0.033   9.969  20.944  0.00  0.00    +0.000 A 
ATOM     13  C   UNL     1      -0.037   9.807  22.332  0.00  0.00    +0.000 A 
ATOM     14  C   UNL     1      -0.866  10.631  23.105  0.00  0.00    +0.000 A 
ATOM     15  C   UNL     1      -1.634  11.640  22.506  0.00  0.00    +0.000 A 
ATOM     16  C   UNL     1      -1.578  11.777  21.110  0.00  0.00    +0.000 A 
ATOM     17  C   UNL     1      -0.751  10.954  20.336  0.00  0.00    +0.000 A 
BRANCH  15  18
ATOM     18  C   UNL     1      -2.459  12.584  23.367  0.00  0.00    +0.000 C 
ATOM     19  C   UNL     1      -1.740  13.924  23.559  0.00  0.00    +0.000 C 
ATOM     20  C   UNL     1      -3.867  12.818  22.814  0.00  0.00    +0.000 C 
ENDBRANCH  15  18
ENDBRANCH   2  12
BRANCH   1  22
ATOM     21  C   UNL     1       2.218  11.682  18.411  0.00  0.00    +0.000 C 
ATOM     22  O   UNL     1       1.115  10.789  18.478  0.00  0.00    +0.000 OA
ENDBRANCH   1  22
BRANCH   7  23
ATOM     23  C   UNL     1       4.264   3.936  18.126  0.00  0.00    +0.000 C 
ATOM     24  O   UNL     1       3.813   3.334  17.166  0.00  0.00    +0.000 OA
BRANCH  23  25
ATOM     25  O   UNL     1       5.450   3.629  18.689  0.00  0.00    +0.000 OA
ATOM     26  H   UNL     1       5.789   2.728  18.540  0.00  0.00    +0.000 HD
ENDBRANCH  23  25
ENDBRANCH   7  23
TORSDOF 5
ENDMDL
MODEL 6
REMARK VINA RESULT:      -6.9      3.541      8.772
REMARK  Name = 
REMARK  8 active torsions:
REMARK  status: ('A' for Active; 'I' for Inactive)
REMARK    1  A    between atoms: C_1  and  O_2
REMARK    2  A    between atoms: O_2  and  C_3
REMARK    3  A    between atoms: C_4  and  C_5
REMARK    4  A    between atoms: C_8  and  C_9
REMARK    5  A    between atoms: C_9  and  C_10
REMARK    6  A    between atoms: C_9  and  C_11
REMARK    7  A    between atoms: C_18  and  C_19
REMARK    8  A    between atoms: C_19  and  O_21
REMARK                            x       y       z     vdW  Elec       q    Type
REMARK                         _______ _______ _______ _____ _____    ______ ____
ROOT
ATOM      1  C   UNL     1       2.135   8.070  19.348  0.00  0.00    +0.000 A 
ATOM      2  C   UNL     1       1.432   7.830  20.472  0.00  0.00    +0.000 A 
ATOM      3  O   UNL     1       1.348   6.614  21.130  0.00  0.00    +0.000 OA
ATOM      4  C   UNL     1       2.026   5.545  20.610  0.00  0.00    +0.000 A 
ATOM      5  C   UNL     1       1.962   4.341  21.308  0.00  0.00    +0.000 A 
ATOM      6  C   UNL     1       2.591   3.203  20.792  0.00  0.00    +0.000 A 
ATOM      7  C   UNL     1       3.290   3.260  19.577  0.00  0.00    +0.000 A 
ATOM      8  C   UNL     1       3.360   4.472  18.884  0.00  0.00    +0.000 A 
ATOM      9  C   UNL     1       2.738   5.613  19.420  0.00  0.00    +0.000 A 
ATOM     10  C   UNL     1       2.837   6.906  18.726  0.00  0.00    +0.000 A 
ATOM     11  O   UNL     1       3.490   6.970  17.692  0.00  0.00    +0.000 OA
ENDROOT
BRANCH   2  12
ATOM     12  C   UNL     1       0.638   8.888  21.121  0.00  0.00    +0.000 A 
ATOM     13  C   UNL     1       0.607   8.991  22.516  0.00  0.00    +0.000 A 
ATOM     14  C   UNL     1      -0.135  10.003  23.139  0.00  0.00    +0.000 A 
ATOM     15  C   UNL     1      -0.851  10.940  22.379  0.00  0.00    +0.000 A 
ATOM     16  C   UNL     1      -0.835  10.812  20.981  0.00  0.00    +0.000 A 
ATOM     17  C   UNL     1      -0.096   9.800  20.357  0.00  0.00    +0.000 A 
BRANCH  15  18
ATOM     18  C   UNL     1      -1.576  12.086  23.066  0.00  0.00    +0.000 C 
ATOM     19  C   UNL     1      -0.867  13.420  22.808  0.00  0.00    +0.000 C 
ATOM     20  C   UNL     1      -3.049  12.187  22.662  0.00  0.00    +0.000 C 
ENDBRANCH  15  18
ENDBRANCH   2  12
BRANCH   1  22
ATOM     21  C   UNL     1       1.613   9.596  17.580  0.00  0.00    +0.000 C 
ATOM     22  O   UNL     1       2.222   9.359  18.842  0.00  0.00    +0.000 OA
ENDBRANCH   1  22
BRANCH   7  23
ATOM     23  C   UNL     1       3.874   1.996  19.056  0.00  0.00    +0.000 C 
ATOM     24  O   UNL     1       3.383   1.397  18.113  0.00  0.00    +0.000 OA
BRANCH  23  25
ATOM     25  O   UNL     1       4.958   1.547  19.720  0.00  0.00    +0.000 OA
ATOM     26  H   UNL     1       5.704   2.166  19.817  0.00  0.00    +0.000 HD
ENDBRANCH  23  25
ENDBRANCH   7  23
TORSDOF 5
ENDMDL
MODEL 7
REMARK VINA RESULT:      -6.8      1.037      1.130
REMARK  Name = 
REMARK  8 active torsions:
REMARK  status: ('A' for Active; 'I' for Inactive)
REMARK    1  A    between atoms: C_1  and  O_2
REMARK    2  A    between atoms: O_2  and  C_3
REMARK    3  A    between atoms: C_4  and  C_5
REMARK    4  A    between atoms: C_8  and  C_9
REMARK    5  A    between atoms: C_9  and  C_10
REMARK    6  A    between atoms: C_9  and  C_11
REMARK    7  A    between atoms: C_18  and  C_19
REMARK    8  A    between atoms: C_19  and  O_21
REMARK                            x       y       z     vdW  Elec       q    Type
REMARK                         _______ _______ _______ _____ _____    ______ ____
ROOT
ATOM      1  C   UNL     1       3.244   5.743  19.187  0.00  0.00    +0.000 A 
ATOM      2  C   UNL     1       3.496   6.399  18.039  0.00  0.00    +0.000 A 
ATOM      3  O   UNL     1       3.031   7.662  17.709  0.00  0.00    +0.000 OA
ATOM      4  C   UNL     1       2.240   8.320  18.613  0.00  0.00    +0.000 A 
ATOM      5  C   UNL     1       1.815   9.605  18.281  0.00  0.00    +0.000 A 
ATOM      6  C   UNL     1       0.960  10.300  19.142  0.00  0.00    +0.000 A 
ATOM      7  C   UNL     1       0.526   9.717  20.343  0.00  0.00    +0.000 A 
ATOM      8  C   UNL     1       0.961   8.432  20.677  0.00  0.00    +0.000 A 
ATOM      9  C   UNL     1       1.833   7.749  19.812  0.00  0.00    +0.000 A 
ATOM     10  C   UNL     1       2.335   6.413  20.166  0.00  0.00    +0.000 A 
ATOM     11  O   UNL     1       1.998   5.925  21.238  0.00  0.00    +0.000 OA
ENDROOT
BRANCH   2  12
ATOM     12  C   UNL     1       4.313   5.795  16.973  0.00  0.00    +0.000 A 
ATOM     13  C   UNL     1       4.269   4.414  16.747  0.00  0.00    +0.000 A 
ATOM     14  C   UNL     1       5.032   3.835  15.725  0.00  0.00    +0.000 A 
ATOM     15  C   UNL     1       5.847   4.626  14.901  0.00  0.00    +0.000 A 
ATOM     16  C   UNL     1       5.906   6.006  15.153  0.00  0.00    +0.000 A 
ATOM     17  C   UNL     1       5.144   6.586  16.175  0.00  0.00    +0.000 A 
BRANCH  15  18
ATOM     18  C   UNL     1       6.599   3.996  13.740  0.00  0.00    +0.000 C 
ATOM     19  C   UNL     1       5.628   3.439  12.693  0.00  0.00    +0.000 C 
ATOM     20  C   UNL     1       7.590   4.956  13.080  0.00  0.00    +0.000 C 
ENDBRANCH  15  18
ENDBRANCH   2  12
BRANCH   1  22
ATOM     21  C   UNL     1       2.998   3.426  19.732  0.00  0.00    +0.000 C 
ATOM     22  O   UNL     1       3.854   4.522  19.441  0.00  0.00    +0.000 OA
ENDBRANCH   1  22
BRANCH   7  23
ATOM     23  C   UNL     1      -0.437  10.487  21.175  0.00  0.00    +0.000 C 
ATOM     24  O   UNL     1      -0.507  10.341  22.384  0.00  0.00    +0.000 OA
BRANCH  23  25
ATOM     25  O   UNL     1      -1.242  11.326  20.494  0.00  0.00    +0.000 OA
ATOM     26  H   UNL     1      -1.564  11.023  19.626  0.00  0.00    +0.000 HD
ENDBRANCH  23  25
ENDBRANCH   7  23
TORSDOF 5
ENDMDL
MODEL 8
REMARK VINA RESULT:      -6.8      7.477     11.553
REMARK  Name = 
REMARK  8 active torsions:
REMARK  status: ('A' for Active; 'I' for Inactive)
REMARK    1  A    between atoms: C_1  and  O_2
REMARK    2  A    between atoms: O_2  and  C_3
REMARK    3  A    between atoms: C_4  and  C_5
REMARK    4  A    between atoms: C_8  and  C_9
REMARK    5  A    between atoms: C_9  and  C_10
REMARK    6  A    between atoms: C_9  and  C_11
REMARK    7  A    between atoms: C_18  and  C_19
REMARK    8  A    between atoms: C_19  and  O_21
REMARK                            x       y       z     vdW  Elec       q    Type
REMARK                         _______ _______ _______ _____ _____    ______ ____
ROOT
ATOM      1  C   UNL     1      -1.087  11.432  20.104  0.00  0.00    +0.000 A 
ATOM      2  C   UNL     1      -2.197  12.136  20.397  0.00  0.00    +0.000 A 
ATOM      3  O   UNL     1      -3.306  12.277  19.578  0.00  0.00    +0.000 OA
ATOM      4  C   UNL     1      -3.295  11.659  18.356  0.00  0.00    +0.000 A 
ATOM      5  C   UNL     1      -4.435  11.780  17.564  0.00  0.00    +0.000 A 
ATOM      6  C   UNL     1      -4.456  11.216  16.285  0.00  0.00    +0.000 A 
ATOM      7  C   UNL     1      -3.340  10.526  15.789  0.00  0.00    +0.000 A 
ATOM      8  C   UNL     1      -2.202  10.399  16.589  0.00  0.00    +0.000 A 
ATOM      9  C   UNL     1      -2.197  10.956  17.880  0.00  0.00    +0.000 A 
ATOM     10  C   UNL     1      -1.024  10.797  18.752  0.00  0.00    +0.000 A 
ATOM     11  O   UNL     1      -0.069  10.150  18.340  0.00  0.00    +0.000 OA
ENDROOT
BRANCH   2  12
ATOM     12  C   UNL     1      -2.328  12.868  21.669  0.00  0.00    +0.000 A 
ATOM     13  C   UNL     1      -1.651  14.078  21.859  0.00  0.00    +0.000 A 
ATOM     14  C   UNL     1      -1.783  14.787  23.060  0.00  0.00    +0.000 A 
ATOM     15  C   UNL     1      -2.603  14.305  24.091  0.00  0.00    +0.000 A 
ATOM     16  C   UNL     1      -3.256  13.077  23.902  0.00  0.00    +0.000 A 
ATOM     17  C   UNL     1      -3.124  12.367  22.702  0.00  0.00    +0.000 A 
BRANCH  15  18
ATOM     18  C   UNL     1      -2.807  15.130  25.352  0.00  0.00    +0.000 C 
ATOM     19  C   UNL     1      -1.462  15.546  25.960  0.00  0.00    +0.000 C 
ATOM     20  C   UNL     1      -3.684  16.362  25.123  0.00  0.00    +0.000 C 
ENDBRANCH  15  18
ENDBRANCH   2  12
BRANCH   1  22
ATOM     21  C   UNL     1      -0.073  10.066  21.788  0.00  0.00    +0.000 C 
ATOM     22  O   UNL     1      -0.085  11.282  21.053  0.00  0.00    +0.000 OA
ENDBRANCH   1  22
BRANCH   7  23
ATOM     23  C   UNL     1      -3.409  10.012  14.394  0.00  0.00    +0.000 C 
ATOM     24  O   UNL     1      -2.409   9.834  13.721  0.00  0.00    +0.000 OA
BRANCH  23  25
ATOM     25  O   UNL     1      -4.654   9.793  13.924  0.00  0.00    +0.000 OA
ATOM     26  H   UNL     1      -5.391  10.182  14.428  0.00  0.00    +0.000 HD
ENDBRANCH  23  25
ENDBRANCH   7  23
TORSDOF 5
ENDMDL
MODEL 9
REMARK VINA RESULT:      -6.6      1.794      3.145
REMARK  Name = 
REMARK  8 active torsions:
REMARK  status: ('A' for Active; 'I' for Inactive)
REMARK    1  A    between atoms: C_1  and  O_2
REMARK    2  A    between atoms: O_2  and  C_3
REMARK    3  A    between atoms: C_4  and  C_5
REMARK    4  A    between atoms: C_8  and  C_9
REMARK    5  A    between atoms: C_9  and  C_10
REMARK    6  A    between atoms: C_9  and  C_11
REMARK    7  A    between atoms: C_18  and  C_19
REMARK    8  A    between atoms: C_19  and  O_21
REMARK                            x       y       z     vdW  Elec       q    Type
REMARK                         _______ _______ _______ _____ _____    ______ ____
ROOT
ATOM      1  C   UNL     1       2.055   7.188  20.009  0.00  0.00    +0.000 A 
ATOM      2  C   UNL     1       2.434   7.543  18.767  0.00  0.00    +0.000 A 
ATOM      3  O   UNL     1       2.095   8.722  18.121  0.00  0.00    +0.000 OA
ATOM      4  C   UNL     1       1.300   9.619  18.783  0.00  0.00    +0.000 A 
ATOM      5  C   UNL     1       1.002  10.815  18.134  0.00  0.00    +0.000 A 
ATOM      6  C   UNL     1       0.149  11.743  18.740  0.00  0.00    +0.000 A 
ATOM      7  C   UNL     1      -0.411  11.483  20.000  0.00  0.00    +0.000 A 
ATOM      8  C   UNL     1      -0.102  10.286  20.653  0.00  0.00    +0.000 A 
ATOM      9  C   UNL     1       0.769   9.369  20.041  0.00  0.00    +0.000 A 
ATOM     10  C   UNL     1       1.137   8.123  20.730  0.00  0.00    +0.000 A 
ATOM     11  O   UNL     1       0.692   7.918  21.853  0.00  0.00    +0.000 OA
ENDROOT
BRANCH   2  12
ATOM     12  C   UNL     1       3.271   6.658  17.937  0.00  0.00    +0.000 A 
ATOM     13  C   UNL     1       4.420   7.156  17.313  0.00  0.00    +0.000 A 
ATOM     14  C   UNL     1       5.228   6.316  16.535  0.00  0.00    +0.000 A 
ATOM     15  C   UNL     1       4.908   4.959  16.375  0.00  0.00    +0.000 A 
ATOM     16  C   UNL     1       3.739   4.476  16.983  0.00  0.00    +0.000 A 
ATOM     17  C   UNL     1       2.930   5.314  17.760  0.00  0.00    +0.000 A 
BRANCH  15  18
ATOM     18  C   UNL     1       5.842   4.041  15.603  0.00  0.00    +0.000 C 
ATOM     19  C   UNL     1       5.595   4.148  14.093  0.00  0.00    +0.000 C 
ATOM     20  C   UNL     1       7.319   4.295  15.913  0.00  0.00    +0.000 C 
ENDBRANCH  15  18
ENDBRANCH   2  12
BRANCH   1  22
ATOM     21  C   UNL     1       1.611   4.982  20.822  0.00  0.00    +0.000 C 
ATOM     22  O   UNL     1       2.547   6.025  20.583  0.00  0.00    +0.000 OA
ENDBRANCH   1  22
BRANCH   7  23
ATOM     23  C   UNL     1      -1.363  12.483  20.553  0.00  0.00    +0.000 C 
ATOM     24  O   UNL     1      -1.489  12.662  21.752  0.00  0.00    +0.000 OA
BRANCH  23  25
ATOM     25  O   UNL     1      -2.094  13.148  19.636  0.00  0.00    +0.000 OA
ATOM     26  H   UNL     1      -1.925  14.103  19.544  0.00  0.00    +0.000 HD
ENDBRANCH  23  25
ENDBRANCH   7  23
TORSDOF 5
ENDMDL
