MODEL 1
REMARK VINA RESULT:      -7.8      0.000      0.000
REMARK  Name = 
REMARK  10 active torsions:
REMARK  status: ('A' for Active; 'I' for Inactive)
REMARK    1  A    between atoms: C_1  and  N_2
REMARK    2  A    between atoms: N_2  and  C_3
REMARK    3  A    between atoms: C_4  and  C_6
REMARK    4  A    between atoms: C_9  and  C_10
REMARK    5  A    between atoms: C_10  and  C_12
REMARK    6  A    between atoms: C_12  and  C_13
REMARK    7  A    between atoms: C_13  and  C_14
REMARK    8  A    between atoms: C_17  and  C_18
REMARK    9  A    between atoms: C_18  and  O_19
REMARK   10  A    between atoms: O_19  and  C_20
REMARK                            x       y       z     vdW  Elec       q    Type
REMARK                         _______ _______ _______ _____ _____    ______ ____
ROOT
ATOM      1  C   UNL     1       8.274   9.053  17.660  0.00  0.00    +0.000 C 
ENDROOT
BRANCH   1   2
ATOM      2  C   UNL     1       7.507   7.749  17.812  0.00  0.00    +0.000 A 
ATOM      3  C   UNL     1       6.312   7.493  17.128  0.00  0.00    +0.000 A 
ATOM      4  C   UNL     1       5.626   6.288  17.285  0.00  0.00    +0.000 A 
ATOM      5  C   UNL     1       6.119   5.297  18.137  0.00  0.00    +0.000 A 
ATOM      6  C   UNL     1       7.323   5.534  18.815  0.00  0.00    +0.000 A 
ATOM      7  C   UNL     1       8.006   6.748  18.658  0.00  0.00    +0.000 A 
BRANCH   5   8
ATOM      8  C   UNL     1       5.381   3.990  18.288  0.00  0.00    +0.000 C 
BRANCH   8   9
ATOM      9  O   UNL     1       4.050   4.169  17.805  0.00  0.00    +0.000 OA
BRANCH   9  10
ATOM     10  C   UNL     1       3.051   4.047  18.733  0.00  0.00    +0.000 A 
ATOM     11  C   UNL     1       2.032   3.154  18.395  0.00  0.00    +0.000 A 
ATOM     12  C   UNL     1       0.966   2.929  19.269  0.00  0.00    +0.000 A 
ATOM     13  C   UNL     1       0.925   3.585  20.497  0.00  0.00    +0.000 A 
ATOM     14  C   UNL     1       1.949   4.463  20.848  0.00  0.00    +0.000 A 
ATOM     15  C   UNL     1       3.011   4.695  19.968  0.00  0.00    +0.000 A 
ENDBRANCH   9  10
ENDBRANCH   8   9
ENDBRANCH   5   8
ENDBRANCH   1   2
BRANCH   1  16
ATOM     16  C   UNL     1       9.034   9.472  18.917  0.00  0.00    +0.000 C 
BRANCH  16  17
ATOM     17  C   UNL     1       9.665  10.849  18.851  0.00  0.00    +0.000 C 
ATOM     18  O   UNL     1      10.228  11.261  17.837  0.00  0.00    +0.000 OA
BRANCH  17  22
ATOM     19  C   UNL     1       8.740  12.137  22.032  0.00  0.00    +0.000 A 
ATOM     20  C   UNL     1       9.731  13.018  21.659  0.00  0.00    +0.000 A 
ATOM     21  N   UNL     1      10.238  12.673  20.431  0.00  0.00    +0.000 NA
ATOM     22  C   UNL     1       9.527  11.614  20.080  0.00  0.00    +0.000 A 
ATOM     23  O   UNL     1       8.593  11.241  21.004  0.00  0.00    +0.000 OA
BRANCH  19  27
ATOM     24  C   UNL     1       6.095  13.000  24.567  0.00  0.00    +0.000 C 
ATOM     25  N   UNL     1       6.901  13.050  23.361  0.00  0.00    +0.000 N 
ATOM     26  C   UNL     1       6.487  13.956  22.298  0.00  0.00    +0.000 C 
ATOM     27  C   UNL     1       7.903  12.079  23.209  0.00  0.00    +0.000 C 
ATOM     28  O   UNL     1       8.044  11.187  24.045  0.00  0.00    +0.000 OA
ENDBRANCH  19  27
ENDBRANCH  17  22
ENDBRANCH  16  17
ENDBRANCH   1  16
TORSDOF 8
ENDMDL
MODEL 2
REMARK VINA RESULT:      -7.7      5.418      8.604
REMARK  Name = 
REMARK  10 active torsions:
REMARK  status: ('A' for Active; 'I' for Inactive)
REMARK    1  A    between atoms: C_1  and  N_2
REMARK    2  A    between atoms: N_2  and  C_3
REMARK    3  A    between atoms: C_4  and  C_6
REMARK    4  A    between atoms: C_9  and  C_10
REMARK    5  A    between atoms: C_10  and  C_12
REMARK    6  A    between atoms: C_12  and  C_13
REMARK    7  A    between atoms: C_13  and  C_14
REMARK    8  A    between atoms: C_17  and  C_18
REMARK    9  A    between atoms: C_18  and  O_19
REMARK   10  A    between atoms: O_19  and  C_20
REMARK                            x       y       z     vdW  Elec       q    Type
REMARK                         _______ _______ _______ _____ _____    ______ ____
ROOT
ATOM      1  C   UNL     1       1.789   5.150  20.960  0.00  0.00    +0.000 C 
ENDROOT
BRANCH   1   2
ATOM      2  C   UNL     1       1.521   6.611  20.636  0.00  0.00    +0.000 A 
ATOM      3  C   UNL     1       0.769   7.443  21.475  0.00  0.00    +0.000 A 
ATOM      4  C   UNL     1       0.536   8.782  21.155  0.00  0.00    +0.000 A 
ATOM      5  C   UNL     1       1.052   9.330  19.978  0.00  0.00    +0.000 A 
ATOM      6  C   UNL     1       1.820   8.512  19.139  0.00  0.00    +0.000 A 
ATOM      7  C   UNL     1       2.048   7.167  19.461  0.00  0.00    +0.000 A 
BRANCH   5   8
ATOM      8  C   UNL     1       0.811  10.782  19.649  0.00  0.00    +0.000 C 
BRANCH   8   9
ATOM      9  O   UNL     1       0.293  10.861  18.321  0.00  0.00    +0.000 OA
BRANCH   9  10
ATOM     10  C   UNL     1      -1.070  10.903  18.207  0.00  0.00    +0.000 A 
ATOM     11  C   UNL     1      -1.629   9.914  17.395  0.00  0.00    +0.000 A 
ATOM     12  C   UNL     1      -3.012   9.841  17.215  0.00  0.00    +0.000 A 
ATOM     13  C   UNL     1      -3.846  10.749  17.865  0.00  0.00    +0.000 A 
ATOM     14  C   UNL     1      -3.295  11.726  18.691  0.00  0.00    +0.000 A 
ATOM     15  C   UNL     1      -1.909  11.805  18.863  0.00  0.00    +0.000 A 
ENDBRANCH   9  10
ENDBRANCH   8   9
ENDBRANCH   5   8
ENDBRANCH   1   2
BRANCH   1  16
ATOM     16  C   UNL     1       1.900   4.255  19.727  0.00  0.00    +0.000 C 
BRANCH  16  17
ATOM     17  C   UNL     1       3.197   3.477  19.618  0.00  0.00    +0.000 C 
ATOM     18  O   UNL     1       3.482   2.571  20.401  0.00  0.00    +0.000 OA
BRANCH  17  22
ATOM     19  C   UNL     1       5.358   5.201  17.385  0.00  0.00    +0.000 A 
ATOM     20  C   UNL     1       5.149   4.022  16.705  0.00  0.00    +0.000 A 
ATOM     21  N   UNL     1       4.328   3.194  17.429  0.00  0.00    +0.000 NA
ATOM     22  C   UNL     1       4.040   3.899  18.511  0.00  0.00    +0.000 A 
ATOM     23  O   UNL     1       4.627   5.132  18.543  0.00  0.00    +0.000 OA
BRANCH  19  27
ATOM     24  C   UNL     1       7.900   7.973  17.562  0.00  0.00    +0.000 C 
ATOM     25  N   UNL     1       7.169   6.765  17.898  0.00  0.00    +0.000 N 
ATOM     26  C   UNL     1       7.695   5.919  18.960  0.00  0.00    +0.000 C 
ATOM     27  C   UNL     1       6.122   6.381  17.044  0.00  0.00    +0.000 C 
ATOM     28  O   UNL     1       5.881   7.020  16.020  0.00  0.00    +0.000 OA
ENDBRANCH  19  27
ENDBRANCH  17  22
ENDBRANCH  16  17
ENDBRANCH   1  16
TORSDOF 8
ENDMDL
MODEL 3
REMARK VINA RESULT:      -7.5      4.817      7.171
REMARK  Name = 
REMARK  10 active torsions:
REMARK  status: ('A' for Active; 'I' for Inactive)
REMARK    1  A    between atoms: C_1  and  N_2
REMARK    2  A    between atoms: N_2  and  C_3
REMARK    3  A    between atoms: C_4  and  C_6
REMARK    4  A    between atoms: C_9  and  C_10
REMARK    5  A    between atoms: C_10  and  C_12
REMARK    6  A    between atoms: C_12  and  C_13
REMARK    7  A    between atoms: C_13  and  C_14
REMARK    8  A    between atoms: C_17  and  C_18
REMARK    9  A    between atoms: C_18  and  O_19
REMARK   10  A    between atoms: O_19  and  C_20
REMARK                            x       y       z     vdW  Elec       q    Type
REMARK                         _______ _______ _______ _____ _____    ______ ____
ROOT
ATOM      1  C   UNL     1       1.642   8.271  21.295  0.00  0.00    +0.000 C 
ENDROOT
BRANCH   1   2
ATOM      2  C   UNL     1       1.859   7.113  20.334  0.00  0.00    +0.000 A 
ATOM      3  C   UNL     1       1.617   5.781  20.692  0.00  0.00    +0.000 A 
ATOM      4  C   UNL     1       1.824   4.735  19.790  0.00  0.00    +0.000 A 
ATOM      5  C   UNL     1       2.283   4.994  18.497  0.00  0.00    +0.000 A 
ATOM      6  C   UNL     1       2.513   6.325  18.122  0.00  0.00    +0.000 A 
ATOM      7  C   UNL     1       2.308   7.372  19.031  0.00  0.00    +0.000 A 
BRANCH   5   8
ATOM      8  C   UNL     1       2.487   3.860  17.523  0.00  0.00    +0.000 C 
BRANCH   8   9
ATOM      9  O   UNL     1       3.767   3.280  17.773  0.00  0.00    +0.000 OA
BRANCH   9  10
ATOM     10  C   UNL     1       4.844   3.960  17.273  0.00  0.00    +0.000 A 
ATOM     11  C   UNL     1       5.775   4.380  18.227  0.00  0.00    +0.000 A 
ATOM     12  C   UNL     1       6.927   5.069  17.840  0.00  0.00    +0.000 A 
ATOM     13  C   UNL     1       7.163   5.323  16.491  0.00  0.00    +0.000 A 
ATOM     14  C   UNL     1       6.247   4.890  15.533  0.00  0.00    +0.000 A 
ATOM     15  C   UNL     1       5.089   4.209  15.922  0.00  0.00    +0.000 A 
ENDBRANCH   9  10
ENDBRANCH   8   9
ENDBRANCH   5   8
ENDBRANCH   1   2
BRANCH   1  16
ATOM     16  C   UNL     1       0.173   8.631  21.507  0.00  0.00    +0.000 C 
BRANCH  16  17
ATOM     17  C   UNL     1      -0.066   9.870  22.348  0.00  0.00    +0.000 C 
ATOM     18  O   UNL     1      -0.258   9.808  23.562  0.00  0.00    +0.000 OA
BRANCH  17  22
ATOM     19  C   UNL     1       0.847  12.842  20.627  0.00  0.00    +0.000 A 
ATOM     20  C   UNL     1      -0.516  12.821  20.430  0.00  0.00    +0.000 A 
ATOM     21  N   UNL     1      -1.066  11.712  21.024  0.00  0.00    +0.000 NA
ATOM     22  C   UNL     1      -0.033  11.108  21.585  0.00  0.00    +0.000 A 
ATOM     23  O   UNL     1       1.159  11.747  21.390  0.00  0.00    +0.000 OA
BRANCH  19  27
ATOM     24  C   UNL     1       3.701  14.416  18.743  0.00  0.00    +0.000 C 
ATOM     25  N   UNL     1       2.665  13.471  19.115  0.00  0.00    +0.000 N 
ATOM     26  C   UNL     1       2.384  12.370  18.203  0.00  0.00    +0.000 C 
ATOM     27  C   UNL     1       1.860  13.791  20.220  0.00  0.00    +0.000 C 
ATOM     28  O   UNL     1       1.998  14.863  20.807  0.00  0.00    +0.000 OA
ENDBRANCH  19  27
ENDBRANCH  17  22
ENDBRANCH  16  17
ENDBRANCH   1  16
TORSDOF 8
ENDMDL
MODEL 4
REMARK VINA RESULT:      -7.5      6.108      8.554
REMARK  Name = 
REMARK  10 active torsions:
REMARK  status: ('A' for Active; 'I' for Inactive)
REMARK    1  A    between atoms: C_1  and  N_2
REMARK    2  A    between atoms: N_2  and  C_3
REMARK    3  A    between atoms: C_4  and  C_6
REMARK    4  A    between atoms: C_9  and  C_10
REMARK    5  A    between atoms: C_10  and  C_12
REMARK    6  A    between atoms: C_12  and  C_13
REMARK    7  A    between atoms: C_13  and  C_14
REMARK    8  A    between atoms: C_17  and  C_18
REMARK    9  A    between atoms: C_18  and  O_19
REMARK   10  A    between atoms: O_19  and  C_20
REMARK                            x       y       z     vdW  Elec       q    Type
REMARK                         _______ _______ _______ _____ _____    ______ ____
ROOT
ATOM      1  C   UNL     1       1.571   8.807  21.154  0.00  0.00    +0.000 C 
ENDROOT
BRANCH   1   2
ATOM      2  C   UNL     1       1.826   7.573  20.303  0.00  0.00    +0.000 A 
ATOM      3  C   UNL     1       1.630   6.272  20.784  0.00  0.00    +0.000 A 
ATOM      4  C   UNL     1       1.871   5.155  19.982  0.00  0.00    +0.000 A 
ATOM      5  C   UNL     1       2.319   5.308  18.668  0.00  0.00    +0.000 A 
ATOM      6  C   UNL     1       2.503   6.605  18.170  0.00  0.00    +0.000 A 
ATOM      7  C   UNL     1       2.264   7.724  18.979  0.00  0.00    +0.000 A 
BRANCH   5   8
ATOM      8  C   UNL     1       2.560   4.096  17.803  0.00  0.00    +0.000 C 
BRANCH   8   9
ATOM      9  O   UNL     1       3.837   3.554  18.136  0.00  0.00    +0.000 OA
BRANCH   9  10
ATOM     10  C   UNL     1       4.893   3.993  17.385  0.00  0.00    +0.000 A 
ATOM     11  C   UNL     1       6.017   4.389  18.114  0.00  0.00    +0.000 A 
ATOM     12  C   UNL     1       7.165   4.840  17.460  0.00  0.00    +0.000 A 
ATOM     13  C   UNL     1       7.201   4.879  16.068  0.00  0.00    +0.000 A 
ATOM     14  C   UNL     1       6.089   4.468  15.334  0.00  0.00    +0.000 A 
ATOM     15  C   UNL     1       4.936   4.026  15.990  0.00  0.00    +0.000 A 
ENDBRANCH   9  10
ENDBRANCH   8   9
ENDBRANCH   5   8
ENDBRANCH   1   2
BRANCH   1  16
ATOM     16  C   UNL     1       0.222   8.795  21.870  0.00  0.00    +0.000 C 
BRANCH  16  17
ATOM     17  C   UNL     1      -0.308  10.163  22.254  0.00  0.00    +0.000 C 
ATOM     18  O   UNL     1      -0.453  10.500  23.429  0.00  0.00    +0.000 OA
BRANCH  17  22
ATOM     19  C   UNL     1      -1.602  11.638  19.291  0.00  0.00    +0.000 A 
ATOM     20  C   UNL     1      -0.675  12.579  19.681  0.00  0.00    +0.000 A 
ATOM     21  N   UNL     1      -0.060  12.188  20.845  0.00  0.00    +0.000 NA
ATOM     22  C   UNL     1      -0.607  11.014  21.114  0.00  0.00    +0.000 A 
ATOM     23  O   UNL     1      -1.546  10.616  20.204  0.00  0.00    +0.000 OA
BRANCH  19  27
ATOM     24  C   UNL     1      -4.732  11.691  17.200  0.00  0.00    +0.000 C 
ATOM     25  N   UNL     1      -3.856  11.792  18.353  0.00  0.00    +0.000 N 
ATOM     26  C   UNL     1      -4.415  12.314  19.592  0.00  0.00    +0.000 C 
ATOM     27  C   UNL     1      -2.484  11.578  18.146  0.00  0.00    +0.000 C 
ATOM     28  O   UNL     1      -2.044  11.372  17.016  0.00  0.00    +0.000 OA
ENDBRANCH  19  27
ENDBRANCH  17  22
ENDBRANCH  16  17
ENDBRANCH   1  16
TORSDOF 8
ENDMDL
MODEL 5
REMARK VINA RESULT:      -7.5      3.071      3.756
REMARK  Name = 
REMARK  10 active torsions:
REMARK  status: ('A' for Active; 'I' for Inactive)
REMARK    1  A    between atoms: C_1  and  N_2
REMARK    2  A    between atoms: N_2  and  C_3
REMARK    3  A    between atoms: C_4  and  C_6
REMARK    4  A    between atoms: C_9  and  C_10
REMARK    5  A    between atoms: C_10  and  C_12
REMARK    6  A    between atoms: C_12  and  C_13
REMARK    7  A    between atoms: C_13  and  C_14
REMARK    8  A    between atoms: C_17  and  C_18
REMARK    9  A    between atoms: C_18  and  O_19
REMARK   10  A    between atoms: O_19  and  C_20
REMARK                            x       y       z     vdW  Elec       q    Type
REMARK                         _______ _______ _______ _____ _____    ______ ____
ROOT
ATOM      1  C   UNL     1       8.844   8.919  18.584  0.00  0.00    +0.000 C 
ENDROOT
BRANCH   1   2
ATOM      2  C   UNL     1       7.975   7.721  18.238  0.00  0.00    +0.000 A 
ATOM      3  C   UNL     1       8.094   6.488  18.893  0.00  0.00    +0.000 A 
ATOM      4  C   UNL     1       7.284   5.402  18.556  0.00  0.00    +0.000 A 
ATOM      5  C   UNL     1       6.326   5.519  17.546  0.00  0.00    +0.000 A 
ATOM      6  C   UNL     1       6.186   6.751  16.895  0.00  0.00    +0.000 A 
ATOM      7  C   UNL     1       7.004   7.838  17.233  0.00  0.00    +0.000 A 
BRANCH   5   8
ATOM      8  C   UNL     1       5.442   4.346  17.201  0.00  0.00    +0.000 C 
BRANCH   8   9
ATOM      9  O   UNL     1       5.067   3.695  18.415  0.00  0.00    +0.000 OA
BRANCH   9  10
ATOM     10  C   UNL     1       3.741   3.383  18.546  0.00  0.00    +0.000 A 
ATOM     11  C   UNL     1       2.862   4.225  17.860  0.00  0.00    +0.000 A 
ATOM     12  C   UNL     1       1.485   4.000  17.901  0.00  0.00    +0.000 A 
ATOM     13  C   UNL     1       0.980   2.915  18.614  0.00  0.00    +0.000 A 
ATOM     14  C   UNL     1       1.852   2.060  19.284  0.00  0.00    +0.000 A 
ATOM     15  C   UNL     1       3.231   2.292  19.252  0.00  0.00    +0.000 A 
ENDBRANCH   9  10
ENDBRANCH   8   9
ENDBRANCH   5   8
ENDBRANCH   1   2
BRANCH   1  16
ATOM     16  C   UNL     1       8.275  10.253  18.104  0.00  0.00    +0.000 C 
BRANCH  16  17
ATOM     17  C   UNL     1       9.288  11.375  17.992  0.00  0.00    +0.000 C 
ATOM     18  O   UNL     1      10.498  11.158  17.929  0.00  0.00    +0.000 OA
BRANCH  17  22
ATOM     19  C   UNL     1       8.515  14.825  18.352  0.00  0.00    +0.000 A 
ATOM     20  C   UNL     1       7.447  14.384  17.602  0.00  0.00    +0.000 A 
ATOM     21  N   UNL     1       7.572  13.042  17.340  0.00  0.00    +0.000 NA
ATOM     22  C   UNL     1       8.690  12.700  17.957  0.00  0.00    +0.000 A 
ATOM     23  O   UNL     1       9.309  13.735  18.600  0.00  0.00    +0.000 OA
BRANCH  19  27
ATOM     24  C   UNL     1      10.167  18.174  18.826  0.00  0.00    +0.000 C 
ATOM     25  N   UNL     1       9.832  16.884  18.252  0.00  0.00    +0.000 N 
ATOM     26  C   UNL     1      10.387  16.551  16.947  0.00  0.00    +0.000 C 
ATOM     27  C   UNL     1       8.835  16.129  18.889  0.00  0.00    +0.000 C 
ATOM     28  O   UNL     1       8.232  16.580  19.863  0.00  0.00    +0.000 OA
ENDBRANCH  19  27
ENDBRANCH  17  22
ENDBRANCH  16  17
ENDBRANCH   1  16
TORSDOF 8
ENDMDL
MODEL 6
REMARK VINA RESULT:      -7.5      5.437      8.600
REMARK  Name = 
REMARK  10 active torsions:
REMARK  status: ('A' for Active; 'I' for Inactive)
REMARK    1  A    between atoms: C_1  and  N_2
REMARK    2  A    between atoms: N_2  and  C_3
REMARK    3  A    between atoms: C_4  and  C_6
REMARK    4  A    between atoms: C_9  and  C_10
REMARK    5  A    between atoms: C_10  and  C_12
REMARK    6  A    between atoms: C_12  and  C_13
REMARK    7  A    between atoms: C_13  and  C_14
REMARK    8  A    between atoms: C_17  and  C_18
REMARK    9  A    between atoms: C_18  and  O_19
REMARK   10  A    between atoms: O_19  and  C_20
REMARK                            x       y       z     vdW  Elec       q    Type
REMARK                         _______ _______ _______ _____ _____    ______ ____
ROOT
ATOM      1  C   UNL     1       1.795   3.008  18.173  0.00  0.00    +0.000 C 
ENDROOT
BRANCH   1   2
ATOM      2  C   UNL     1       1.827   4.420  18.736  0.00  0.00    +0.000 A 
ATOM      3  C   UNL     1       2.286   5.517  17.995  0.00  0.00    +0.000 A 
ATOM      4  C   UNL     1       2.306   6.804  18.534  0.00  0.00    +0.000 A 
ATOM      5  C   UNL     1       1.865   7.033  19.840  0.00  0.00    +0.000 A 
ATOM      6  C   UNL     1       1.387   5.947  20.586  0.00  0.00    +0.000 A 
ATOM      7  C   UNL     1       1.373   4.655  20.042  0.00  0.00    +0.000 A 
BRANCH   5   8
ATOM      8  C   UNL     1       1.872   8.430  20.409  0.00  0.00    +0.000 C 
BRANCH   8   9
ATOM      9  O   UNL     1       1.196   8.405  21.666  0.00  0.00    +0.000 OA
BRANCH   9  10
ATOM     10  C   UNL     1       0.472   9.523  21.982  0.00  0.00    +0.000 A 
ATOM     11  C   UNL     1       0.712  10.635  21.171  0.00  0.00    +0.000 A 
ATOM     12  C   UNL     1       0.022  11.830  21.381  0.00  0.00    +0.000 A 
ATOM     13  C   UNL     1      -0.929  11.913  22.396  0.00  0.00    +0.000 A 
ATOM     14  C   UNL     1      -1.186  10.802  23.196  0.00  0.00    +0.000 A 
ATOM     15  C   UNL     1      -0.487   9.608  22.992  0.00  0.00    +0.000 A 
ENDBRANCH   9  10
ENDBRANCH   8   9
ENDBRANCH   5   8
ENDBRANCH   1   2
BRANCH   1  16
ATOM     16  C   UNL     1       2.899   2.103  18.716  0.00  0.00    +0.000 C 
BRANCH  16  17
ATOM     17  C   UNL     1       3.765   2.728  19.792  0.00  0.00    +0.000 C 
ATOM     18  O   UNL     1       3.630   2.449  20.983  0.00  0.00    +0.000 OA
BRANCH  17  22
ATOM     19  C   UNL     1       6.186   4.481  17.869  0.00  0.00    +0.000 A 
ATOM     20  C   UNL     1       6.089   5.285  18.983  0.00  0.00    +0.000 A 
ATOM     21  N   UNL     1       5.170   4.770  19.863  0.00  0.00    +0.000 NA
ATOM     22  C   UNL     1       4.755   3.660  19.276  0.00  0.00    +0.000 A 
ATOM     23  O   UNL     1       5.340   3.420  18.065  0.00  0.00    +0.000 OA
BRANCH  19  27
ATOM     24  C   UNL     1       7.275   5.205  14.339  0.00  0.00    +0.000 C 
ATOM     25  N   UNL     1       6.448   5.148  15.530  0.00  0.00    +0.000 N 
ATOM     26  C   UNL     1       5.182   5.868  15.518  0.00  0.00    +0.000 C 
ATOM     27  C   UNL     1       7.010   4.580  16.684  0.00  0.00    +0.000 C 
ATOM     28  O   UNL     1       8.181   4.202  16.692  0.00  0.00    +0.000 OA
ENDBRANCH  19  27
ENDBRANCH  17  22
ENDBRANCH  16  17
ENDBRANCH   1  16
TORSDOF 8
ENDMDL
MODEL 7
REMARK VINA RESULT:      -7.4      2.487      3.577
REMARK  Name = 
REMARK  10 active torsions:
REMARK  status: ('A' for Active; 'I' for Inactive)
REMARK    1  A    between atoms: C_1  and  N_2
REMARK    2  A    between atoms: N_2  and  C_3
REMARK    3  A    between atoms: C_4  and  C_6
REMARK    4  A    between atoms: C_9  and  C_10
REMARK    5  A    between atoms: C_10  and  C_12
REMARK    6  A    between atoms: C_12  and  C_13
REMARK    7  A    between atoms: C_13  and  C_14
REMARK    8  A    between atoms: C_17  and  C_18
REMARK    9  A    between atoms: C_18  and  O_19
REMARK   10  A    between atoms: O_19  and  C_20
REMARK                            x       y       z     vdW  Elec       q    Type
REMARK                         _______ _______ _______ _____ _____    ______ ____
ROOT
ATOM      1  C   UNL     1       8.818   8.132  18.751  0.00  0.00    +0.000 C 
ENDROOT
BRANCH   1   2
ATOM      2  C   UNL     1       7.745   7.143  18.324  0.00  0.00    +0.000 A 
ATOM      3  C   UNL     1       7.579   5.897  18.941  0.00  0.00    +0.000 A 
ATOM      4  C   UNL     1       6.587   5.005  18.529  0.00  0.00    +0.000 A 
ATOM      5  C   UNL     1       5.727   5.337  17.480  0.00  0.00    +0.000 A 
ATOM      6  C   UNL     1       5.872   6.588  16.865  0.00  0.00    +0.000 A 
ATOM      7  C   UNL     1       6.872   7.479  17.279  0.00  0.00    +0.000 A 
BRANCH   5   8
ATOM      8  C   UNL     1       4.645   4.376  17.054  0.00  0.00    +0.000 C 
BRANCH   8   9
ATOM      9  O   UNL     1       3.379   4.972  17.337  0.00  0.00    +0.000 OA
BRANCH   9  10
ATOM     10  C   UNL     1       2.712   4.480  18.426  0.00  0.00    +0.000 A 
ATOM     11  C   UNL     1       1.618   3.664  18.133  0.00  0.00    +0.000 A 
ATOM     12  C   UNL     1       0.867   3.086  19.160  0.00  0.00    +0.000 A 
ATOM     13  C   UNL     1       1.222   3.308  20.488  0.00  0.00    +0.000 A 
ATOM     14  C   UNL     1       2.325   4.106  20.787  0.00  0.00    +0.000 A 
ATOM     15  C   UNL     1       3.070   4.693  19.758  0.00  0.00    +0.000 A 
ENDBRANCH   9  10
ENDBRANCH   8   9
ENDBRANCH   5   8
ENDBRANCH   1   2
BRANCH   1  16
ATOM     16  C   UNL     1       8.519   9.576  18.354  0.00  0.00    +0.000 C 
BRANCH  16  17
ATOM     17  C   UNL     1       9.182  10.627  19.223  0.00  0.00    +0.000 C 
ATOM     18  O   UNL     1       9.102  10.603  20.451  0.00  0.00    +0.000 OA
BRANCH  17  22
ATOM     19  C   UNL     1      10.528  13.622  17.864  0.00  0.00    +0.000 A 
ATOM     20  C   UNL     1      11.211  12.666  17.145  0.00  0.00    +0.000 A 
ATOM     21  N   UNL     1      10.830  11.408  17.544  0.00  0.00    +0.000 NA
ATOM     22  C   UNL     1       9.912  11.633  18.469  0.00  0.00    +0.000 A 
ATOM     23  O   UNL     1       9.674  12.957  18.706  0.00  0.00    +0.000 OA
BRANCH  19  27
ATOM     24  C   UNL     1      10.247  17.232  18.895  0.00  0.00    +0.000 C 
ATOM     25  N   UNL     1      10.247  15.783  18.977  0.00  0.00    +0.000 N 
ATOM     26  C   UNL     1      10.135  15.172  20.294  0.00  0.00    +0.000 C 
ATOM     27  C   UNL     1      10.561  15.067  17.811  0.00  0.00    +0.000 C 
ATOM     28  O   UNL     1      10.882  15.656  16.780  0.00  0.00    +0.000 OA
ENDBRANCH  19  27
ENDBRANCH  17  22
ENDBRANCH  16  17
ENDBRANCH   1  16
TORSDOF 8
ENDMDL
MODEL 8
REMARK VINA RESULT:      -7.4      0.883      1.071
REMARK  Name = 
REMARK  10 active torsions:
REMARK  status: ('A' for Active; 'I' for Inactive)
REMARK    1  A    between atoms: C_1  and  N_2
REMARK    2  A    between atoms: N_2  and  C_3
REMARK    3  A    between atoms: C_4  and  C_6
REMARK    4  A    between atoms: C_9  and  C_10
REMARK    5  A    between atoms: C_10  and  C_12
REMARK    6  A    between atoms: C_12  and  C_13
REMARK    7  A    between atoms: C_13  and  C_14
REMARK    8  A    between atoms: C_17  and  C_18
REMARK    9  A    between atoms: C_18  and  O_19
REMARK   10  A    between atoms: O_19  and  C_20
REMARK                            x       y       z     vdW  Elec       q    Type
REMARK                         _______ _______ _______ _____ _____    ______ ____
ROOT
ATOM      1  C   UNL     1       8.879   8.538  18.750  0.00  0.00    +0.000 C 
ENDROOT
BRANCH   1   2
ATOM      2  C   UNL     1       7.884   7.483  18.296  0.00  0.00    +0.000 A 
ATOM      3  C   UNL     1       6.925   7.727  17.305  0.00  0.00    +0.000 A 
ATOM      4  C   UNL     1       6.021   6.741  16.906  0.00  0.00    +0.000 A 
ATOM      5  C   UNL     1       6.050   5.474  17.493  0.00  0.00    +0.000 A 
ATOM      6  C   UNL     1       7.015   5.211  18.474  0.00  0.00    +0.000 A 
ATOM      7  C   UNL     1       7.919   6.206  18.875  0.00  0.00    +0.000 A 
BRANCH   5   8
ATOM      8  C   UNL     1       5.082   4.407  17.043  0.00  0.00    +0.000 C 
BRANCH   8   9
ATOM      9  O   UNL     1       3.758   4.853  17.336  0.00  0.00    +0.000 OA
BRANCH   9  10
ATOM     10  C   UNL     1       3.281   4.545  18.581  0.00  0.00    +0.000 A 
ATOM     11  C   UNL     1       2.481   5.528  19.170  0.00  0.00    +0.000 A 
ATOM     12  C   UNL     1       1.920   5.325  20.433  0.00  0.00    +0.000 A 
ATOM     13  C   UNL     1       2.142   4.126  21.106  0.00  0.00    +0.000 A 
ATOM     14  C   UNL     1       2.924   3.134  20.516  0.00  0.00    +0.000 A 
ATOM     15  C   UNL     1       3.494   3.342  19.256  0.00  0.00    +0.000 A 
ENDBRANCH   9  10
ENDBRANCH   8   9
ENDBRANCH   5   8
ENDBRANCH   1   2
BRANCH   1  16
ATOM     16  C   UNL     1       8.583   9.937  18.213  0.00  0.00    +0.000 C 
BRANCH  16  17
ATOM     17  C   UNL     1       9.691  10.950  18.424  0.00  0.00    +0.000 C 
ATOM     18  O   UNL     1      10.531  11.188  17.556  0.00  0.00    +0.000 OA
BRANCH  17  22
ATOM     19  C   UNL     1       8.909  12.046  21.713  0.00  0.00    +0.000 A 
ATOM     20  C   UNL     1      10.042  12.781  21.443  0.00  0.00    +0.000 A 
ATOM     21  N   UNL     1      10.517  12.482  20.190  0.00  0.00    +0.000 NA
ATOM     22  C   UNL     1       9.649  11.599  19.725  0.00  0.00    +0.000 A 
ATOM     23  O   UNL     1       8.642  11.296  20.596  0.00  0.00    +0.000 OA
BRANCH  19  27
ATOM     24  C   UNL     1       6.276  13.019  24.221  0.00  0.00    +0.000 C 
ATOM     25  N   UNL     1       7.112  13.050  23.035  0.00  0.00    +0.000 N 
ATOM     26  C   UNL     1       6.791  14.019  21.997  0.00  0.00    +0.000 C 
ATOM     27  C   UNL     1       8.042  12.011  22.870  0.00  0.00    +0.000 C 
ATOM     28  O   UNL     1       8.097  11.084  23.676  0.00  0.00    +0.000 OA
ENDBRANCH  19  27
ENDBRANCH  17  22
ENDBRANCH  16  17
ENDBRANCH   1  16
TORSDOF 8
ENDMDL
MODEL 9
REMARK VINA RESULT:      -7.4      5.937      9.386
REMARK  Name = 
REMARK  10 active torsions:
REMARK  status: ('A' for Active; 'I' for Inactive)
REMARK    1  A    between atoms: C_1  and  N_2
REMARK    2  A    between atoms: N_2  and  C_3
REMARK    3  A    between atoms: C_4  and  C_6
REMARK    4  A    between atoms: C_9  and  C_10
REMARK    5  A    between atoms: C_10  and  C_12
REMARK    6  A    between atoms: C_12  and  C_13
REMARK    7  A    between atoms: C_13  and  C_14
REMARK    8  A    between atoms: C_17  and  C_18
REMARK    9  A    between atoms: C_18  and  O_19
REMARK   10  A    between atoms: O_19  and  C_20
REMARK                            x       y       z     vdW  Elec       q    Type
REMARK                         _______ _______ _______ _____ _____    ______ ____
ROOT
ATOM      1  C   UNL     1       2.250   5.493  20.720  0.00  0.00    +0.000 C 
ENDROOT
BRANCH   1   2
ATOM      2  C   UNL     1       1.903   6.878  20.197  0.00  0.00    +0.000 A 
ATOM      3  C   UNL     1       1.231   7.831  20.973  0.00  0.00    +0.000 A 
ATOM      4  C   UNL     1       0.923   9.095  20.469  0.00  0.00    +0.000 A 
ATOM      5  C   UNL     1       1.279   9.445  19.164  0.00  0.00    +0.000 A 
ATOM      6  C   UNL     1       1.966   8.506  18.383  0.00  0.00    +0.000 A 
ATOM      7  C   UNL     1       2.270   7.235  18.891  0.00  0.00    +0.000 A 
BRANCH   5   8
ATOM      8  C   UNL     1       0.959  10.820  18.633  0.00  0.00    +0.000 C 
BRANCH   8   9
ATOM      9  O   UNL     1      -0.280  11.243  19.202  0.00  0.00    +0.000 OA
BRANCH   9  10
ATOM     10  C   UNL     1      -1.403  10.975  18.467  0.00  0.00    +0.000 A 
ATOM     11  C   UNL     1      -2.529  11.728  18.808  0.00  0.00    +0.000 A 
ATOM     12  C   UNL     1      -3.731  11.559  18.118  0.00  0.00    +0.000 A 
ATOM     13  C   UNL     1      -3.807  10.647  17.067  0.00  0.00    +0.000 A 
ATOM     14  C   UNL     1      -2.681   9.907  16.710  0.00  0.00    +0.000 A 
ATOM     15  C   UNL     1      -1.480  10.069  17.409  0.00  0.00    +0.000 A 
ENDBRANCH   9  10
ENDBRANCH   8   9
ENDBRANCH   5   8
ENDBRANCH   1   2
BRANCH   1  16
ATOM     16  C   UNL     1       1.139   4.463  20.524  0.00  0.00    +0.000 C 
BRANCH  16  17
ATOM     17  C   UNL     1       1.446   3.380  19.509  0.00  0.00    +0.000 C 
ATOM     18  O   UNL     1       0.583   2.600  19.107  0.00  0.00    +0.000 OA
BRANCH  17  22
ATOM     19  C   UNL     1       4.511   3.748  17.749  0.00  0.00    +0.000 A 
ATOM     20  C   UNL     1       4.933   3.127  18.904  0.00  0.00    +0.000 A 
ATOM     21  N   UNL     1       3.869   2.906  19.743  0.00  0.00    +0.000 NA
ATOM     22  C   UNL     1       2.831   3.369  19.066  0.00  0.00    +0.000 A 
ATOM     23  O   UNL     1       3.150   3.887  17.843  0.00  0.00    +0.000 OA
BRANCH  19  27
ATOM     24  C   UNL     1       7.187   5.223  15.551  0.00  0.00    +0.000 C 
ATOM     25  N   UNL     1       6.493   4.768  16.741  0.00  0.00    +0.000 N 
ATOM     26  C   UNL     1       7.227   4.759  18.000  0.00  0.00    +0.000 C 
ATOM     27  C   UNL     1       5.234   4.172  16.570  0.00  0.00    +0.000 C 
ATOM     28  O   UNL     1       4.772   3.993  15.444  0.00  0.00    +0.000 OA
ENDBRANCH  19  27
ENDBRANCH  17  22
ENDBRANCH  16  17
ENDBRANCH   1  16
TORSDOF 8
ENDMDL
