MODEL 1
REMARK VINA RESULT:      -8.8      0.000      0.000
REMARK  Name = 
REMARK  6 active torsions:
REMARK  status: ('A' for Active; 'I' for Inactive)
REMARK    1  A    between atoms: C_1  and  N_2
REMARK    2  A    between atoms: C_4  and  C_5
REMARK    3  A    between atoms: C_5  and  C_7
REMARK    4  A    between atoms: C_11  and  N_12
REMARK    5  A    between atoms: C_13  and  C_15
REMARK    6  A    between atoms: C_15  and  C_16
REMARK                            x       y       z     vdW  Elec       q    Type
REMARK                         _______ _______ _______ _____ _____    ______ ____
ROOT
ATOM      1  C   UNL     1       0.772   9.691  19.575  0.00  0.00    +0.000 A 
ATOM      2  C   UNL     1       0.360   9.233  20.821  0.00  0.00    +0.000 A 
ATOM      3  N   UNL     1       0.830   8.111  21.403  0.00  0.00    +0.000 NA
ATOM      4  C   UNL     1       1.714   7.378  20.683  0.00  0.00    +0.000 A 
ATOM      5  C   UNL     1       2.157   7.707  19.400  0.00  0.00    +0.000 A 
ATOM      6  C   UNL     1       1.681   8.904  18.850  0.00  0.00    +0.000 A 
ENDROOT
BRANCH   5   7
ATOM      7  N   UNL     1       3.042   6.900  18.642  0.00  0.00    +0.000 N 
ATOM      8  C   UNL     1       2.733   5.641  18.137  0.00  0.00    +0.000 C 
ATOM      9  O   UNL     1       1.653   5.070  18.268  0.00  0.00    +0.000 OA
ATOM     10  H   UNL     1       3.929   7.310  18.378  0.00  0.00    +0.000 HD
BRANCH   8  11
ATOM     11  C   UNL     1       3.850   4.983  17.353  0.00  0.00    +0.000 C 
BRANCH  11  12
ATOM     12  C   UNL     1       5.203   5.568  17.642  0.00  0.00    +0.000 A 
ATOM     13  C   UNL     1       5.768   6.544  16.816  0.00  0.00    +0.000 A 
ATOM     14  F   UNL     1       5.125   6.939  15.710  0.00  0.00    +0.000 F 
ATOM     15  C   UNL     1       6.987   7.149  17.130  0.00  0.00    +0.000 A 
ATOM     16  C   UNL     1       7.670   6.770  18.284  0.00  0.00    +0.000 A 
ATOM     17  C   UNL     1       7.139   5.767  19.089  0.00  0.00    +0.000 A 
ATOM     18  F   UNL     1       7.801   5.392  20.192  0.00  0.00    +0.000 F 
ATOM     19  C   UNL     1       5.925   5.165  18.766  0.00  0.00    +0.000 A 
ATOM     20  F   UNL     1       5.428   4.201  19.556  0.00  0.00    +0.000 F 
ENDBRANCH  11  12
ENDBRANCH   8  11
ENDBRANCH   5   7
BRANCH   1  21
ATOM     21  C   UNL     1       0.203  10.935  18.997  0.00  0.00    +0.000 C 
ATOM     22  O   UNL     1       0.862  11.966  19.059  0.00  0.00    +0.000 OA
BRANCH  21  26
ATOM     23  C   UNL     1      -3.481   9.955  15.748  0.00  0.00    +0.000 C 
ATOM     24  N   UNL     1      -2.765  10.448  16.902  0.00  0.00    +0.000 N 
ATOM     25  C   UNL     1      -1.436  10.237  17.169  0.00  0.00    +0.000 A 
ATOM     26  C   UNL     1      -1.111  10.892  18.350  0.00  0.00    +0.000 A 
ATOM     27  C   UNL     1      -2.328  11.487  18.823  0.00  0.00    +0.000 A 
ATOM     28  C   UNL     1      -2.715  12.260  19.917  0.00  0.00    +0.000 A 
ATOM     29  N   UNL     1      -4.000  12.673  20.028  0.00  0.00    +0.000 NA
ATOM     30  C   UNL     1      -4.864  12.311  19.059  0.00  0.00    +0.000 A 
ATOM     31  N   UNL     1      -4.613  11.580  17.960  0.00  0.00    +0.000 NA
ATOM     32  C   UNL     1      -3.326  11.198  17.900  0.00  0.00    +0.000 A 
ENDBRANCH  21  26
ENDBRANCH   1  21
TORSDOF 5
ENDMDL
MODEL 2
REMARK VINA RESULT:      -8.6      3.744      9.081
REMARK  Name = 
REMARK  6 active torsions:
REMARK  status: ('A' for Active; 'I' for Inactive)
REMARK    1  A    between atoms: C_1  and  N_2
REMARK    2  A    between atoms: C_4  and  C_5
REMARK    3  A    between atoms: C_5  and  C_7
REMARK    4  A    between atoms: C_11  and  N_12
REMARK    5  A    between atoms: C_13  and  C_15
REMARK    6  A    between atoms: C_15  and  C_16
REMARK                            x       y       z     vdW  Elec       q    Type
REMARK                         _______ _______ _______ _____ _____    ______ ____
ROOT
ATOM      1  C   UNL     1       2.488   4.503  18.725  0.00  0.00    +0.000 A 
ATOM      2  C   UNL     1       2.119   3.664  19.769  0.00  0.00    +0.000 A 
ATOM      3  N   UNL     1       1.630   4.101  20.948  0.00  0.00    +0.000 NA
ATOM      4  C   UNL     1       1.559   5.444  21.116  0.00  0.00    +0.000 A 
ATOM      5  C   UNL     1       1.955   6.384  20.161  0.00  0.00    +0.000 A 
ATOM      6  C   UNL     1       2.412   5.890  18.932  0.00  0.00    +0.000 A 
ENDROOT
BRANCH   5   7
ATOM      7  N   UNL     1       1.922   7.785  20.376  0.00  0.00    +0.000 N 
ATOM      8  C   UNL     1       0.875   8.470  20.983  0.00  0.00    +0.000 C 
ATOM      9  O   UNL     1      -0.149   7.953  21.425  0.00  0.00    +0.000 OA
ATOM     10  H   UNL     1       2.760   8.306  20.150  0.00  0.00    +0.000 HD
BRANCH   8  11
ATOM     11  C   UNL     1       1.083   9.966  21.103  0.00  0.00    +0.000 C 
BRANCH  11  12
ATOM     12  C   UNL     1      -0.043  10.769  20.515  0.00  0.00    +0.000 A 
ATOM     13  C   UNL     1      -0.303  10.768  19.142  0.00  0.00    +0.000 A 
ATOM     14  F   UNL     1       0.492  10.081  18.312  0.00  0.00    +0.000 F 
ATOM     15  C   UNL     1      -1.400  11.446  18.606  0.00  0.00    +0.000 A 
ATOM     16  C   UNL     1      -2.254  12.154  19.448  0.00  0.00    +0.000 A 
ATOM     17  C   UNL     1      -1.979  12.200  20.811  0.00  0.00    +0.000 A 
ATOM     18  F   UNL     1      -2.792  12.891  21.622  0.00  0.00    +0.000 F 
ATOM     19  C   UNL     1      -0.880  11.524  21.337  0.00  0.00    +0.000 A 
ATOM     20  F   UNL     1      -0.632  11.579  22.655  0.00  0.00    +0.000 F 
ENDBRANCH  11  12
ENDBRANCH   8  11
ENDBRANCH   5   7
BRANCH   1  21
ATOM     21  C   UNL     1       3.023   3.946  17.456  0.00  0.00    +0.000 C 
ATOM     22  O   UNL     1       2.300   3.222  16.781  0.00  0.00    +0.000 OA
BRANCH  21  26
ATOM     23  C   UNL     1       7.064   4.795  14.622  0.00  0.00    +0.000 C 
ATOM     24  N   UNL     1       6.192   4.684  15.768  0.00  0.00    +0.000 N 
ATOM     25  C   UNL     1       4.872   4.312  15.735  0.00  0.00    +0.000 A 
ATOM     26  C   UNL     1       4.382   4.294  17.034  0.00  0.00    +0.000 A 
ATOM     27  C   UNL     1       5.466   4.719  17.874  0.00  0.00    +0.000 A 
ATOM     28  C   UNL     1       5.665   4.926  19.238  0.00  0.00    +0.000 A 
ATOM     29  N   UNL     1       6.878   5.328  19.688  0.00  0.00    +0.000 NA
ATOM     30  C   UNL     1       7.857   5.513  18.779  0.00  0.00    +0.000 A 
ATOM     31  N   UNL     1       7.791   5.342  17.448  0.00  0.00    +0.000 NA
ATOM     32  C   UNL     1       6.568   4.944  17.057  0.00  0.00    +0.000 A 
ENDBRANCH  21  26
ENDBRANCH   1  21
TORSDOF 5
ENDMDL
MODEL 3
REMARK VINA RESULT:      -8.6      0.735      1.855
REMARK  Name = 
REMARK  6 active torsions:
REMARK  status: ('A' for Active; 'I' for Inactive)
REMARK    1  A    between atoms: C_1  and  N_2
REMARK    2  A    between atoms: C_4  and  C_5
REMARK    3  A    between atoms: C_5  and  C_7
REMARK    4  A    between atoms: C_11  and  N_12
REMARK    5  A    between atoms: C_13  and  C_15
REMARK    6  A    between atoms: C_15  and  C_16
REMARK                            x       y       z     vdW  Elec       q    Type
REMARK                         _______ _______ _______ _____ _____    ______ ____
ROOT
ATOM      1  C   UNL     1       0.542  10.260  19.743  0.00  0.00    +0.000 A 
ATOM      2  C   UNL     1       0.196   9.784  21.001  0.00  0.00    +0.000 A 
ATOM      3  N   UNL     1       0.650   8.624  21.517  0.00  0.00    +0.000 NA
ATOM      4  C   UNL     1       1.445   7.872  20.716  0.00  0.00    +0.000 A 
ATOM      5  C   UNL     1       1.812   8.220  19.414  0.00  0.00    +0.000 A 
ATOM      6  C   UNL     1       1.359   9.455  18.933  0.00  0.00    +0.000 A 
ENDROOT
BRANCH   5   7
ATOM      7  N   UNL     1       2.601   7.396  18.573  0.00  0.00    +0.000 N 
ATOM      8  C   UNL     1       2.635   6.007  18.628  0.00  0.00    +0.000 C 
ATOM      9  O   UNL     1       1.977   5.311  19.399  0.00  0.00    +0.000 OA
ATOM     10  H   UNL     1       3.107   7.851  17.823  0.00  0.00    +0.000 HD
BRANCH   8  11
ATOM     11  C   UNL     1       3.555   5.355  17.616  0.00  0.00    +0.000 C 
BRANCH  11  12
ATOM     12  C   UNL     1       4.991   5.770  17.766  0.00  0.00    +0.000 A 
ATOM     13  C   UNL     1       5.611   6.605  16.833  0.00  0.00    +0.000 A 
ATOM     14  F   UNL     1       4.940   7.011  15.748  0.00  0.00    +0.000 F 
ATOM     15  C   UNL     1       6.919   7.060  17.017  0.00  0.00    +0.000 A 
ATOM     16  C   UNL     1       7.636   6.669  18.146  0.00  0.00    +0.000 A 
ATOM     17  C   UNL     1       7.044   5.801  19.058  0.00  0.00    +0.000 A 
ATOM     18  F   UNL     1       7.735   5.413  20.138  0.00  0.00    +0.000 F 
ATOM     19  C   UNL     1       5.740   5.348  18.865  0.00  0.00    +0.000 A 
ATOM     20  F   UNL     1       5.186   4.513  19.757  0.00  0.00    +0.000 F 
ENDBRANCH  11  12
ENDBRANCH   8  11
ENDBRANCH   5   7
BRANCH   1  21
ATOM     21  C   UNL     1      -0.004  11.547  19.242  0.00  0.00    +0.000 C 
ATOM     22  O   UNL     1       0.779  12.414  18.873  0.00  0.00    +0.000 OA
BRANCH  21  26
ATOM     23  C   UNL     1      -4.716  12.737  20.453  0.00  0.00    +0.000 C 
ATOM     24  N   UNL     1      -3.566  12.276  19.711  0.00  0.00    +0.000 N 
ATOM     25  C   UNL     1      -2.270  12.284  20.159  0.00  0.00    +0.000 A 
ATOM     26  C   UNL     1      -1.456  11.736  19.176  0.00  0.00    +0.000 A 
ATOM     27  C   UNL     1      -2.319  11.428  18.072  0.00  0.00    +0.000 A 
ATOM     28  C   UNL     1      -2.172  10.879  16.798  0.00  0.00    +0.000 A 
ATOM     29  N   UNL     1      -3.259  10.714  16.007  0.00  0.00    +0.000 NA
ATOM     30  C   UNL     1      -4.457  11.096  16.495  0.00  0.00    +0.000 A 
ATOM     31  N   UNL     1      -4.726  11.627  17.699  0.00  0.00    +0.000 NA
ATOM     32  C   UNL     1      -3.614  11.768  18.441  0.00  0.00    +0.000 A 
ENDBRANCH  21  26
ENDBRANCH   1  21
TORSDOF 5
ENDMDL
MODEL 4
REMARK VINA RESULT:      -8.6      3.832      9.248
REMARK  Name = 
REMARK  6 active torsions:
REMARK  status: ('A' for Active; 'I' for Inactive)
REMARK    1  A    between atoms: C_1  and  N_2
REMARK    2  A    between atoms: C_4  and  C_5
REMARK    3  A    between atoms: C_5  and  C_7
REMARK    4  A    between atoms: C_11  and  N_12
REMARK    5  A    between atoms: C_13  and  C_15
REMARK    6  A    between atoms: C_15  and  C_16
REMARK                            x       y       z     vdW  Elec       q    Type
REMARK                         _______ _______ _______ _____ _____    ______ ____
ROOT
ATOM      1  C   UNL     1       2.449   4.723  18.749  0.00  0.00    +0.000 A 
ATOM      2  C   UNL     1       2.132   3.987  19.883  0.00  0.00    +0.000 A 
ATOM      3  N   UNL     1       1.645   4.526  21.018  0.00  0.00    +0.000 NA
ATOM      4  C   UNL     1       1.521   5.876  21.045  0.00  0.00    +0.000 A 
ATOM      5  C   UNL     1       1.863   6.724  19.989  0.00  0.00    +0.000 A 
ATOM      6  C   UNL     1       2.320   6.120  18.810  0.00  0.00    +0.000 A 
ENDROOT
BRANCH   5   7
ATOM      7  N   UNL     1       1.776   8.137  20.055  0.00  0.00    +0.000 N 
ATOM      8  C   UNL     1       0.808   8.840  20.765  0.00  0.00    +0.000 C 
ATOM      9  O   UNL     1      -0.086   8.333  21.438  0.00  0.00    +0.000 OA
ATOM     10  H   UNL     1       2.525   8.666  19.626  0.00  0.00    +0.000 HD
BRANCH   8  11
ATOM     11  C   UNL     1       0.934  10.348  20.684  0.00  0.00    +0.000 C 
BRANCH  11  12
ATOM     12  C   UNL     1      -0.382  11.043  20.484  0.00  0.00    +0.000 A 
ATOM     13  C   UNL     1      -1.046  11.669  21.543  0.00  0.00    +0.000 A 
ATOM     14  F   UNL     1      -0.536  11.612  22.780  0.00  0.00    +0.000 F 
ATOM     15  C   UNL     1      -2.226  12.388  21.342  0.00  0.00    +0.000 A 
ATOM     16  C   UNL     1      -2.771  12.480  20.062  0.00  0.00    +0.000 A 
ATOM     17  C   UNL     1      -2.143  11.822  19.009  0.00  0.00    +0.000 A 
ATOM     18  F   UNL     1      -2.672  11.898  17.780  0.00  0.00    +0.000 F 
ATOM     19  C   UNL     1      -0.968  11.103  19.220  0.00  0.00    +0.000 A 
ATOM     20  F   UNL     1      -0.377  10.477  18.191  0.00  0.00    +0.000 F 
ENDBRANCH  11  12
ENDBRANCH   8  11
ENDBRANCH   5   7
BRANCH   1  21
ATOM     21  C   UNL     1       2.987   4.056  17.535  0.00  0.00    +0.000 C 
ATOM     22  O   UNL     1       2.260   3.288  16.916  0.00  0.00    +0.000 OA
BRANCH  21  26
ATOM     23  C   UNL     1       7.036   4.707  14.660  0.00  0.00    +0.000 C 
ATOM     24  N   UNL     1       6.167   4.652  15.813  0.00  0.00    +0.000 N 
ATOM     25  C   UNL     1       4.836   4.322  15.796  0.00  0.00    +0.000 A 
ATOM     26  C   UNL     1       4.354   4.350  17.098  0.00  0.00    +0.000 A 
ATOM     27  C   UNL     1       5.456   4.759  17.921  0.00  0.00    +0.000 A 
ATOM     28  C   UNL     1       5.670   4.992  19.279  0.00  0.00    +0.000 A 
ATOM     29  N   UNL     1       6.898   5.364  19.713  0.00  0.00    +0.000 NA
ATOM     30  C   UNL     1       7.876   5.497  18.795  0.00  0.00    +0.000 A 
ATOM     31  N   UNL     1       7.797   5.297  17.469  0.00  0.00    +0.000 NA
ATOM     32  C   UNL     1       6.560   4.929  17.094  0.00  0.00    +0.000 A 
ENDBRANCH  21  26
ENDBRANCH   1  21
TORSDOF 5
ENDMDL
MODEL 5
REMARK VINA RESULT:      -8.6      0.912      1.774
REMARK  Name = 
REMARK  6 active torsions:
REMARK  status: ('A' for Active; 'I' for Inactive)
REMARK    1  A    between atoms: C_1  and  N_2
REMARK    2  A    between atoms: C_4  and  C_5
REMARK    3  A    between atoms: C_5  and  C_7
REMARK    4  A    between atoms: C_11  and  N_12
REMARK    5  A    between atoms: C_13  and  C_15
REMARK    6  A    between atoms: C_15  and  C_16
REMARK                            x       y       z     vdW  Elec       q    Type
REMARK                         _______ _______ _______ _____ _____    ______ ____
ROOT
ATOM      1  C   UNL     1       0.321  10.198  19.278  0.00  0.00    +0.000 A 
ATOM      2  C   UNL     1      -0.006   9.789  20.565  0.00  0.00    +0.000 A 
ATOM      3  N   UNL     1       0.568   8.742  21.190  0.00  0.00    +0.000 NA
ATOM      4  C   UNL     1       1.474   8.030  20.476  0.00  0.00    +0.000 A 
ATOM      5  C   UNL     1       1.840   8.311  19.157  0.00  0.00    +0.000 A 
ATOM      6  C   UNL     1       1.256   9.435  18.560  0.00  0.00    +0.000 A 
ENDROOT
BRANCH   5   7
ATOM      7  N   UNL     1       2.751   7.524  18.409  0.00  0.00    +0.000 N 
ATOM      8  C   UNL     1       2.731   6.135  18.342  0.00  0.00    +0.000 C 
ATOM      9  O   UNL     1       1.916   5.409  18.908  0.00  0.00    +0.000 OA
ATOM     10  H   UNL     1       3.405   8.016  17.813  0.00  0.00    +0.000 HD
BRANCH   8  11
ATOM     11  C   UNL     1       3.809   5.527  17.468  0.00  0.00    +0.000 C 
BRANCH  11  12
ATOM     12  C   UNL     1       5.201   5.829  17.946  0.00  0.00    +0.000 A 
ATOM     13  C   UNL     1       5.746   5.185  19.061  0.00  0.00    +0.000 A 
ATOM     14  F   UNL     1       5.004   4.316  19.760  0.00  0.00    +0.000 F 
ATOM     15  C   UNL     1       7.068   5.402  19.455  0.00  0.00    +0.000 A 
ATOM     16  C   UNL     1       7.868   6.287  18.736  0.00  0.00    +0.000 A 
ATOM     17  C   UNL     1       7.322   6.968  17.652  0.00  0.00    +0.000 A 
ATOM     18  F   UNL     1       8.086   7.829  16.966  0.00  0.00    +0.000 F 
ATOM     19  C   UNL     1       6.000   6.749  17.268  0.00  0.00    +0.000 A 
ATOM     20  F   UNL     1       5.493   7.414  16.219  0.00  0.00    +0.000 F 
ENDBRANCH  11  12
ENDBRANCH   8  11
ENDBRANCH   5   7
BRANCH   1  21
ATOM     21  C   UNL     1      -0.361  11.361  18.655  0.00  0.00    +0.000 C 
ATOM     22  O   UNL     1       0.174  12.461  18.723  0.00  0.00    +0.000 OA
BRANCH  21  26
ATOM     23  C   UNL     1      -3.758  10.008  15.232  0.00  0.00    +0.000 C 
ATOM     24  N   UNL     1      -3.159  10.547  16.431  0.00  0.00    +0.000 N 
ATOM     25  C   UNL     1      -1.823  10.517  16.740  0.00  0.00    +0.000 A 
ATOM     26  C   UNL     1      -1.633  11.160  17.956  0.00  0.00    +0.000 A 
ATOM     27  C   UNL     1      -2.938  11.554  18.406  0.00  0.00    +0.000 A 
ATOM     28  C   UNL     1      -3.468  12.215  19.513  0.00  0.00    +0.000 A 
ATOM     29  N   UNL     1      -4.802  12.435  19.591  0.00  0.00    +0.000 NA
ATOM     30  C   UNL     1      -5.573  11.996  18.576  0.00  0.00    +0.000 A 
ATOM     31  N   UNL     1      -5.184  11.357  17.460  0.00  0.00    +0.000 NA
ATOM     32  C   UNL     1      -3.853  11.166  17.435  0.00  0.00    +0.000 A 
ENDBRANCH  21  26
ENDBRANCH   1  21
TORSDOF 5
ENDMDL
MODEL 6
REMARK VINA RESULT:      -8.5      3.743      9.266
REMARK  Name = 
REMARK  6 active torsions:
REMARK  status: ('A' for Active; 'I' for Inactive)
REMARK    1  A    between atoms: C_1  and  N_2
REMARK    2  A    between atoms: C_4  and  C_5
REMARK    3  A    between atoms: C_5  and  C_7
REMARK    4  A    between atoms: C_11  and  N_12
REMARK    5  A    between atoms: C_13  and  C_15
REMARK    6  A    between atoms: C_15  and  C_16
REMARK                            x       y       z     vdW  Elec       q    Type
REMARK                         _______ _______ _______ _____ _____    ______ ____
ROOT
ATOM      1  C   UNL     1       3.524   4.658  19.662  0.00  0.00    +0.000 A 
ATOM      2  C   UNL     1       2.596   3.904  20.371  0.00  0.00    +0.000 A 
ATOM      3  N   UNL     1       1.431   4.393  20.841  0.00  0.00    +0.000 NA
ATOM      4  C   UNL     1       1.204   5.715  20.645  0.00  0.00    +0.000 A 
ATOM      5  C   UNL     1       2.088   6.584  20.000  0.00  0.00    +0.000 A 
ATOM      6  C   UNL     1       3.265   6.027  19.484  0.00  0.00    +0.000 A 
ENDROOT
BRANCH   5   7
ATOM      7  N   UNL     1       1.856   7.974  19.851  0.00  0.00    +0.000 N 
ATOM      8  C   UNL     1       0.948   8.712  20.603  0.00  0.00    +0.000 C 
ATOM      9  O   UNL     1       0.241   8.263  21.501  0.00  0.00    +0.000 OA
ATOM     10  H   UNL     1       2.460   8.477  19.212  0.00  0.00    +0.000 HD
BRANCH   8  11
ATOM     11  C   UNL     1       0.890  10.186  20.257  0.00  0.00    +0.000 C 
BRANCH  11  12
ATOM     12  C   UNL     1      -0.312  10.556  19.437  0.00  0.00    +0.000 A 
ATOM     13  C   UNL     1      -0.482  10.081  18.133  0.00  0.00    +0.000 A 
ATOM     14  F   UNL     1       0.466   9.321  17.570  0.00  0.00    +0.000 F 
ATOM     15  C   UNL     1      -1.640  10.355  17.401  0.00  0.00    +0.000 A 
ATOM     16  C   UNL     1      -2.650  11.129  17.968  0.00  0.00    +0.000 A 
ATOM     17  C   UNL     1      -2.472  11.644  19.248  0.00  0.00    +0.000 A 
ATOM     18  F   UNL     1      -3.437  12.399  19.791  0.00  0.00    +0.000 F 
ATOM     19  C   UNL     1      -1.312  11.370  19.970  0.00  0.00    +0.000 A 
ATOM     20  F   UNL     1      -1.160  11.876  21.203  0.00  0.00    +0.000 F 
ENDBRANCH  11  12
ENDBRANCH   8  11
ENDBRANCH   5   7
BRANCH   1  21
ATOM     21  C   UNL     1       4.789   4.048  19.180  0.00  0.00    +0.000 C 
ATOM     22  O   UNL     1       5.036   2.887  19.487  0.00  0.00    +0.000 OA
BRANCH  21  26
ATOM     23  C   UNL     1       8.031   7.531  17.618  0.00  0.00    +0.000 C 
ATOM     24  N   UNL     1       7.150   6.387  17.634  0.00  0.00    +0.000 N 
ATOM     25  C   UNL     1       6.446   5.934  18.721  0.00  0.00    +0.000 A 
ATOM     26  C   UNL     1       5.691   4.834  18.335  0.00  0.00    +0.000 A 
ATOM     27  C   UNL     1       6.001   4.604  16.953  0.00  0.00    +0.000 A 
ATOM     28  C   UNL     1       5.618   3.691  15.971  0.00  0.00    +0.000 A 
ATOM     29  N   UNL     1       6.124   3.798  14.719  0.00  0.00    +0.000 NA
ATOM     30  C   UNL     1       6.993   4.799  14.474  0.00  0.00    +0.000 A 
ATOM     31  N   UNL     1       7.433   5.738  15.328  0.00  0.00    +0.000 NA
ATOM     32  C   UNL     1       6.899   5.586  16.553  0.00  0.00    +0.000 A 
ENDBRANCH  21  26
ENDBRANCH   1  21
TORSDOF 5
ENDMDL
MODEL 7
REMARK VINA RESULT:      -8.5      2.443      3.442
REMARK  Name = 
REMARK  6 active torsions:
REMARK  status: ('A' for Active; 'I' for Inactive)
REMARK    1  A    between atoms: C_1  and  N_2
REMARK    2  A    between atoms: C_4  and  C_5
REMARK    3  A    between atoms: C_5  and  C_7
REMARK    4  A    between atoms: C_11  and  N_12
REMARK    5  A    between atoms: C_13  and  C_15
REMARK    6  A    between atoms: C_15  and  C_16
REMARK                            x       y       z     vdW  Elec       q    Type
REMARK                         _______ _______ _______ _____ _____    ______ ____
ROOT
ATOM      1  C   UNL     1       0.410   9.845  19.182  0.00  0.00    +0.000 A 
ATOM      2  C   UNL     1       0.225   9.569  20.531  0.00  0.00    +0.000 A 
ATOM      3  N   UNL     1       0.911   8.624  21.206  0.00  0.00    +0.000 NA
ATOM      4  C   UNL     1       1.785   7.878  20.488  0.00  0.00    +0.000 A 
ATOM      5  C   UNL     1       2.012   8.025  19.117  0.00  0.00    +0.000 A 
ATOM      6  C   UNL     1       1.315   9.049  18.463  0.00  0.00    +0.000 A 
ENDROOT
BRANCH   5   7
ATOM      7  N   UNL     1       2.893   7.200  18.373  0.00  0.00    +0.000 N 
ATOM      8  C   UNL     1       2.819   5.813  18.312  0.00  0.00    +0.000 C 
ATOM      9  O   UNL     1       1.976   5.122  18.880  0.00  0.00    +0.000 OA
ATOM     10  H   UNL     1       3.565   7.665  17.775  0.00  0.00    +0.000 HD
BRANCH   8  11
ATOM     11  C   UNL     1       3.873   5.161  17.440  0.00  0.00    +0.000 C 
BRANCH  11  12
ATOM     12  C   UNL     1       5.261   5.666  17.710  0.00  0.00    +0.000 A 
ATOM     13  C   UNL     1       5.883   6.585  16.859  0.00  0.00    +0.000 A 
ATOM     14  F   UNL     1       5.259   6.994  15.747  0.00  0.00    +0.000 F 
ATOM     15  C   UNL     1       7.138   7.120  17.154  0.00  0.00    +0.000 A 
ATOM     16  C   UNL     1       7.803   6.727  18.314  0.00  0.00    +0.000 A 
ATOM     17  C   UNL     1       7.214   5.778  19.145  0.00  0.00    +0.000 A 
ATOM     18  F   UNL     1       7.856   5.389  20.254  0.00  0.00    +0.000 F 
ATOM     19  C   UNL     1       5.962   5.246  18.841  0.00  0.00    +0.000 A 
ATOM     20  F   UNL     1       5.410   4.334  19.655  0.00  0.00    +0.000 F 
ENDBRANCH  11  12
ENDBRANCH   8  11
ENDBRANCH   5   7
BRANCH   1  21
ATOM     21  C   UNL     1      -0.389  10.900  18.507  0.00  0.00    +0.000 C 
ATOM     22  O   UNL     1      -1.252  10.560  17.706  0.00  0.00    +0.000 OA
BRANCH  21  26
ATOM     23  C   UNL     1      -1.049  15.624  20.031  0.00  0.00    +0.000 C 
ATOM     24  N   UNL     1      -0.433  14.421  19.522  0.00  0.00    +0.000 N 
ATOM     25  C   UNL     1      -1.051  13.205  19.378  0.00  0.00    +0.000 A 
ATOM     26  C   UNL     1      -0.144  12.307  18.832  0.00  0.00    +0.000 A 
ATOM     27  C   UNL     1       1.088  13.027  18.683  0.00  0.00    +0.000 A 
ATOM     28  C   UNL     1       2.372  12.746  18.217  0.00  0.00    +0.000 A 
ATOM     29  N   UNL     1       3.314  13.720  18.209  0.00  0.00    +0.000 NA
ATOM     30  C   UNL     1       2.961  14.939  18.662  0.00  0.00    +0.000 A 
ATOM     31  N   UNL     1       1.764  15.334  19.127  0.00  0.00    +0.000 NA
ATOM     32  C   UNL     1       0.870  14.330  19.113  0.00  0.00    +0.000 A 
ENDBRANCH  21  26
ENDBRANCH   1  21
TORSDOF 5
ENDMDL
MODEL 8
REMARK VINA RESULT:      -8.5      3.897      9.085
REMARK  Name = 
REMARK  6 active torsions:
REMARK  status: ('A' for Active; 'I' for Inactive)
REMARK    1  A    between atoms: C_1  and  N_2
REMARK    2  A    between atoms: C_4  and  C_5
REMARK    3  A    between atoms: C_5  and  C_7
REMARK    4  A    between atoms: C_11  and  N_12
REMARK    5  A    between atoms: C_13  and  C_15
REMARK    6  A    between atoms: C_15  and  C_16
REMARK                            x       y       z     vdW  Elec       q    Type
REMARK                         _______ _______ _______ _____ _____    ______ ____
ROOT
ATOM      1  C   UNL     1       3.376   4.136  19.696  0.00  0.00    +0.000 A 
ATOM      2  C   UNL     1       2.301   3.255  19.667  0.00  0.00    +0.000 A 
ATOM      3  N   UNL     1       1.030   3.612  19.939  0.00  0.00    +0.000 NA
ATOM      4  C   UNL     1       0.826   4.899  20.314  0.00  0.00    +0.000 A 
ATOM      5  C   UNL     1       1.835   5.858  20.435  0.00  0.00    +0.000 A 
ATOM      6  C   UNL     1       3.135   5.460  20.097  0.00  0.00    +0.000 A 
ENDROOT
BRANCH   5   7
ATOM      7  N   UNL     1       1.609   7.184  20.879  0.00  0.00    +0.000 N 
ATOM      8  C   UNL     1       1.667   8.313  20.069  0.00  0.00    +0.000 C 
ATOM      9  O   UNL     1       1.906   8.309  18.863  0.00  0.00    +0.000 OA
ATOM     10  H   UNL     1       1.297   7.304  21.835  0.00  0.00    +0.000 HD
BRANCH   8  11
ATOM     11  C   UNL     1       1.379   9.619  20.781  0.00  0.00    +0.000 C 
BRANCH  11  12
ATOM     12  C   UNL     1       0.532  10.561  19.973  0.00  0.00    +0.000 A 
ATOM     13  C   UNL     1       1.033  11.782  19.512  0.00  0.00    +0.000 A 
ATOM     14  F   UNL     1       2.277  12.158  19.834  0.00  0.00    +0.000 F 
ATOM     15  C   UNL     1       0.275  12.619  18.690  0.00  0.00    +0.000 A 
ATOM     16  C   UNL     1      -1.017  12.244  18.325  0.00  0.00    +0.000 A 
ATOM     17  C   UNL     1      -1.542  11.053  18.815  0.00  0.00    +0.000 A 
ATOM     18  F   UNL     1      -2.788  10.697  18.476  0.00  0.00    +0.000 F 
ATOM     19  C   UNL     1      -0.780  10.226  19.639  0.00  0.00    +0.000 A 
ATOM     20  F   UNL     1      -1.305   9.080  20.100  0.00  0.00    +0.000 F 
ENDBRANCH  11  12
ENDBRANCH   8  11
ENDBRANCH   5   7
BRANCH   1  21
ATOM     21  C   UNL     1       4.751   3.666  19.388  0.00  0.00    +0.000 C 
ATOM     22  O   UNL     1       5.088   2.549  19.764  0.00  0.00    +0.000 OA
BRANCH  21  26
ATOM     23  C   UNL     1       8.026   7.262  18.194  0.00  0.00    +0.000 C 
ATOM     24  N   UNL     1       7.128   6.136  18.089  0.00  0.00    +0.000 N 
ATOM     25  C   UNL     1       6.431   5.570  19.127  0.00  0.00    +0.000 A 
ATOM     26  C   UNL     1       5.654   4.533  18.627  0.00  0.00    +0.000 A 
ATOM     27  C   UNL     1       5.943   4.460  17.223  0.00  0.00    +0.000 A 
ATOM     28  C   UNL     1       5.534   3.673  16.148  0.00  0.00    +0.000 A 
ATOM     29  N   UNL     1       6.026   3.916  14.909  0.00  0.00    +0.000 NA
ATOM     30  C   UNL     1       6.908   4.927  14.770  0.00  0.00    +0.000 A 
ATOM     31  N   UNL     1       7.372   5.755  15.721  0.00  0.00    +0.000 NA
ATOM     32  C   UNL     1       6.851   5.469  16.927  0.00  0.00    +0.000 A 
ENDBRANCH  21  26
ENDBRANCH   1  21
TORSDOF 5
ENDMDL
MODEL 9
REMARK VINA RESULT:      -8.4      2.054      3.676
REMARK  Name = 
REMARK  6 active torsions:
REMARK  status: ('A' for Active; 'I' for Inactive)
REMARK    1  A    between atoms: C_1  and  N_2
REMARK    2  A    between atoms: C_4  and  C_5
REMARK    3  A    between atoms: C_5  and  C_7
REMARK    4  A    between atoms: C_11  and  N_12
REMARK    5  A    between atoms: C_13  and  C_15
REMARK    6  A    between atoms: C_15  and  C_16
REMARK                            x       y       z     vdW  Elec       q    Type
REMARK                         _______ _______ _______ _____ _____    ______ ____
ROOT
ATOM      1  C   UNL     1       0.287  10.506  20.272  0.00  0.00    +0.000 A 
ATOM      2  C   UNL     1      -0.041  10.299  21.606  0.00  0.00    +0.000 A 
ATOM      3  N   UNL     1       0.383   9.243  22.330  0.00  0.00    +0.000 NA
ATOM      4  C   UNL     1       1.126   8.317  21.676  0.00  0.00    +0.000 A 
ATOM      5  C   UNL     1       1.470   8.388  20.323  0.00  0.00    +0.000 A 
ATOM      6  C   UNL     1       1.050   9.524  19.619  0.00  0.00    +0.000 A 
ENDROOT
BRANCH   5   7
ATOM      7  N   UNL     1       2.204   7.384  19.645  0.00  0.00    +0.000 N 
ATOM      8  C   UNL     1       2.473   7.382  18.280  0.00  0.00    +0.000 C 
ATOM      9  O   UNL     1       2.124   8.255  17.488  0.00  0.00    +0.000 OA
ATOM     10  H   UNL     1       2.636   6.665  20.212  0.00  0.00    +0.000 HD
BRANCH   8  11
ATOM     11  C   UNL     1       3.285   6.198  17.796  0.00  0.00    +0.000 C 
BRANCH  11  12
ATOM     12  C   UNL     1       2.920   4.910  18.479  0.00  0.00    +0.000 A 
ATOM     13  C   UNL     1       3.716   4.368  19.491  0.00  0.00    +0.000 A 
ATOM     14  F   UNL     1       4.861   4.972  19.836  0.00  0.00    +0.000 F 
ATOM     15  C   UNL     1       3.334   3.218  20.184  0.00  0.00    +0.000 A 
ATOM     16  C   UNL     1       2.139   2.579  19.858  0.00  0.00    +0.000 A 
ATOM     17  C   UNL     1       1.361   3.084  18.821  0.00  0.00    +0.000 A 
ATOM     18  F   UNL     1       0.218   2.464  18.498  0.00  0.00    +0.000 F 
ATOM     19  C   UNL     1       1.752   4.230  18.132  0.00  0.00    +0.000 A 
ATOM     20  F   UNL     1       0.987   4.702  17.136  0.00  0.00    +0.000 F 
ENDBRANCH  11  12
ENDBRANCH   8  11
ENDBRANCH   5   7
BRANCH   1  21
ATOM     21  C   UNL     1      -0.224  11.693  19.540  0.00  0.00    +0.000 C 
ATOM     22  O   UNL     1       0.577  12.540  19.163  0.00  0.00    +0.000 OA
BRANCH  21  26
ATOM     23  C   UNL     1      -5.104  12.708  20.025  0.00  0.00    +0.000 C 
ATOM     24  N   UNL     1      -3.843  12.268  19.474  0.00  0.00    +0.000 N 
ATOM     25  C   UNL     1      -2.624  12.362  20.095  0.00  0.00    +0.000 A 
ATOM     26  C   UNL     1      -1.658  11.806  19.265  0.00  0.00    +0.000 A 
ATOM     27  C   UNL     1      -2.345  11.401  18.072  0.00  0.00    +0.000 A 
ATOM     28  C   UNL     1      -1.999  10.797  16.864  0.00  0.00    +0.000 A 
ATOM     29  N   UNL     1      -2.958  10.539  15.942  0.00  0.00    +0.000 NA
ATOM     30  C   UNL     1      -4.226  10.885  16.239  0.00  0.00    +0.000 A 
ATOM     31  N   UNL     1      -4.683  11.462  17.363  0.00  0.00    +0.000 NA
ATOM     32  C   UNL     1      -3.693  11.695  18.241  0.00  0.00    +0.000 A 
ENDBRANCH  21  26
ENDBRANCH   1  21
TORSDOF 5
ENDMDL
