MODEL 1
REMARK VINA RESULT:      -7.7      0.000      0.000
REMARK  Name = 
REMARK  2 active torsions:
REMARK  status: ('A' for Active; 'I' for Inactive)
REMARK    1  A    between atoms: N_3  and  C_4
REMARK    2  A    between atoms: C_15  and  C_16
REMARK                            x       y       z     vdW  Elec       q    Type
REMARK                         _______ _______ _______ _____ _____    ______ ____
ROOT
ATOM      1  O   UNL     1       4.139   6.355  17.233  0.00  0.00    +0.000 OA
ATOM      2  C   UNL     1       3.178   6.847  17.819  0.00  0.00    +0.000 C 
ATOM      3  N   UNL     1       2.229   6.143  18.513  0.00  0.00    +0.000 N 
ATOM      4  N   UNL     1       2.980   8.192  17.683  0.00  0.00    +0.000 N 
ATOM      5  C   UNL     1       2.148   9.059  18.337  0.00  0.00    +0.000 A 
ATOM      6  N   UNL     1       1.893  10.275  17.915  0.00  0.00    +0.000 NA
ATOM      7  N   UNL     1       1.024  10.946  18.757  0.00  0.00    +0.000 NA
ATOM      8  C   UNL     1       0.736  10.247  19.838  0.00  0.00    +0.000 A 
ATOM      9  S   UNL     1       1.441   8.679  19.838  0.00  0.00    +0.000 S 
ATOM     10  H   UNL     1       1.406   6.664  18.778  0.00  0.00    +0.000 HD
ATOM     11  H   UNL     1       3.545   8.614  16.958  0.00  0.00    +0.000 HD
ENDROOT
BRANCH   3  12
ATOM     12  C   UNL     1       2.153   4.748  18.704  0.00  0.00    +0.000 A 
ATOM     13  C   UNL     1       2.251   3.817  17.669  0.00  0.00    +0.000 A 
ATOM     14  C   UNL     1       2.104   2.451  17.927  0.00  0.00    +0.000 A 
ATOM     15  C   UNL     1       1.864   2.006  19.225  0.00  0.00    +0.000 A 
ATOM     16  C   UNL     1       1.795   2.929  20.264  0.00  0.00    +0.000 A 
ATOM     17 CL   UNL     1       1.491   2.387  21.870  0.00  0.00    +0.000 Cl
ATOM     18  C   UNL     1       1.952   4.292  20.013  0.00  0.00    +0.000 A 
ENDBRANCH   3  12
BRANCH   8  19
ATOM     19  C   UNL     1      -0.139  10.684  20.930  0.00  0.00    +0.000 A 
ATOM     20  C   UNL     1      -0.136   9.982  22.138  0.00  0.00    +0.000 A 
ATOM     21  C   UNL     1      -0.957  10.421  23.162  0.00  0.00    +0.000 A 
ATOM     22  N   UNL     1      -1.773  11.490  23.061  0.00  0.00    +0.000 NA
ATOM     23  C   UNL     1      -1.778  12.146  21.884  0.00  0.00    +0.000 A 
ATOM     24  C   UNL     1      -0.992  11.786  20.803  0.00  0.00    +0.000 A 
ENDBRANCH   8  19
TORSDOF 2
ENDMDL
MODEL 2
REMARK VINA RESULT:      -7.6      0.042      1.003
REMARK  Name = 
REMARK  2 active torsions:
REMARK  status: ('A' for Active; 'I' for Inactive)
REMARK    1  A    between atoms: N_3  and  C_4
REMARK    2  A    between atoms: C_15  and  C_16
REMARK                            x       y       z     vdW  Elec       q    Type
REMARK                         _______ _______ _______ _____ _____    ______ ____
ROOT
ATOM      1  O   UNL     1       4.147   6.335  17.239  0.00  0.00    +0.000 OA
ATOM      2  C   UNL     1       3.188   6.829  17.827  0.00  0.00    +0.000 C 
ATOM      3  N   UNL     1       2.240   6.126  18.524  0.00  0.00    +0.000 N 
ATOM      4  N   UNL     1       2.991   8.173  17.690  0.00  0.00    +0.000 N 
ATOM      5  C   UNL     1       2.161   9.042  18.347  0.00  0.00    +0.000 A 
ATOM      6  N   UNL     1       1.906  10.258  17.925  0.00  0.00    +0.000 NA
ATOM      7  N   UNL     1       1.040  10.930  18.769  0.00  0.00    +0.000 NA
ATOM      8  C   UNL     1       0.755  10.232  19.851  0.00  0.00    +0.000 A 
ATOM      9  S   UNL     1       1.459   8.664  19.850  0.00  0.00    +0.000 S 
ATOM     10  H   UNL     1       1.419   6.647  18.792  0.00  0.00    +0.000 HD
ATOM     11  H   UNL     1       3.554   8.594  16.964  0.00  0.00    +0.000 HD
ENDROOT
BRANCH   3  12
ATOM     12  C   UNL     1       2.164   4.731  18.717  0.00  0.00    +0.000 A 
ATOM     13  C   UNL     1       2.270   3.799  17.683  0.00  0.00    +0.000 A 
ATOM     14  C   UNL     1       2.122   2.433  17.942  0.00  0.00    +0.000 A 
ATOM     15  C   UNL     1       1.873   1.990  19.239  0.00  0.00    +0.000 A 
ATOM     16  C   UNL     1       1.795   2.914  20.277  0.00  0.00    +0.000 A 
ATOM     17 CL   UNL     1       1.480   2.374  21.880  0.00  0.00    +0.000 Cl
ATOM     18  C   UNL     1       1.953   4.277  20.025  0.00  0.00    +0.000 A 
ENDBRANCH   3  12
BRANCH   8  19
ATOM     19  C   UNL     1      -0.116  10.670  20.945  0.00  0.00    +0.000 A 
ATOM     20  C   UNL     1      -0.955  11.772  20.760  0.00  0.00    +0.000 A 
ATOM     21  C   UNL     1      -1.781  12.159  21.801  0.00  0.00    +0.000 A 
ATOM     22  N   UNL     1      -1.820  11.537  22.997  0.00  0.00    +0.000 NA
ATOM     23  C   UNL     1      -0.991  10.488  23.167  0.00  0.00    +0.000 A 
ATOM     24  C   UNL     1      -0.131  10.024  22.186  0.00  0.00    +0.000 A 
ENDBRANCH   8  19
TORSDOF 2
ENDMDL
MODEL 3
REMARK VINA RESULT:      -7.4      0.998      1.006
REMARK  Name = 
REMARK  2 active torsions:
REMARK  status: ('A' for Active; 'I' for Inactive)
REMARK    1  A    between atoms: N_3  and  C_4
REMARK    2  A    between atoms: C_15  and  C_16
REMARK                            x       y       z     vdW  Elec       q    Type
REMARK                         _______ _______ _______ _____ _____    ______ ____
ROOT
ATOM      1  O   UNL     1       4.247   6.140  17.079  0.00  0.00    +0.000 OA
ATOM      2  C   UNL     1       3.305   6.624  17.701  0.00  0.00    +0.000 C 
ATOM      3  N   UNL     1       2.399   5.913  18.444  0.00  0.00    +0.000 N 
ATOM      4  N   UNL     1       3.079   7.963  17.557  0.00  0.00    +0.000 N 
ATOM      5  C   UNL     1       2.261   8.826  18.237  0.00  0.00    +0.000 A 
ATOM      6  N   UNL     1       1.968  10.032  17.813  0.00  0.00    +0.000 NA
ATOM      7  N   UNL     1       1.126  10.699  18.684  0.00  0.00    +0.000 NA
ATOM      8  C   UNL     1       0.897  10.009  19.785  0.00  0.00    +0.000 A 
ATOM      9  S   UNL     1       1.628   8.453  19.773  0.00  0.00    +0.000 S 
ATOM     10  H   UNL     1       1.580   6.424  18.739  0.00  0.00    +0.000 HD
ATOM     11  H   UNL     1       3.604   8.386  16.804  0.00  0.00    +0.000 HD
ENDROOT
BRANCH   3  12
ATOM     12  C   UNL     1       2.355   4.520  18.655  0.00  0.00    +0.000 A 
ATOM     13  C   UNL     1       1.306   3.704  18.227  0.00  0.00    +0.000 A 
ATOM     14  C   UNL     1       1.303   2.339  18.527  0.00  0.00    +0.000 A 
ATOM     15  C   UNL     1       2.352   1.779  19.254  0.00  0.00    +0.000 A 
ATOM     16  C   UNL     1       3.413   2.584  19.657  0.00  0.00    +0.000 A 
ATOM     17 CL   UNL     1       4.709   1.901  20.560  0.00  0.00    +0.000 Cl
ATOM     18  C   UNL     1       3.426   3.944  19.350  0.00  0.00    +0.000 A 
ENDBRANCH   3  12
BRANCH   8  19
ATOM     19  C   UNL     1       0.064  10.445  20.909  0.00  0.00    +0.000 A 
ATOM     20  C   UNL     1       0.024   9.678  22.076  0.00  0.00    +0.000 A 
ATOM     21  C   UNL     1      -0.756  10.117  23.132  0.00  0.00    +0.000 A 
ATOM     22  N   UNL     1      -1.492  11.246  23.100  0.00  0.00    +0.000 NA
ATOM     23  C   UNL     1      -1.458  11.966  21.961  0.00  0.00    +0.000 A 
ATOM     24  C   UNL     1      -0.707  11.612  20.853  0.00  0.00    +0.000 A 
ENDBRANCH   8  19
TORSDOF 2
ENDMDL
MODEL 4
REMARK VINA RESULT:      -7.4      1.045      1.452
REMARK  Name = 
REMARK  2 active torsions:
REMARK  status: ('A' for Active; 'I' for Inactive)
REMARK    1  A    between atoms: N_3  and  C_4
REMARK    2  A    between atoms: C_15  and  C_16
REMARK                            x       y       z     vdW  Elec       q    Type
REMARK                         _______ _______ _______ _____ _____    ______ ____
ROOT
ATOM      1  O   UNL     1       4.276   6.134  16.993  0.00  0.00    +0.000 OA
ATOM      2  C   UNL     1       3.341   6.601  17.639  0.00  0.00    +0.000 C 
ATOM      3  N   UNL     1       2.464   5.873  18.400  0.00  0.00    +0.000 N 
ATOM      4  N   UNL     1       3.091   7.937  17.507  0.00  0.00    +0.000 N 
ATOM      5  C   UNL     1       2.276   8.783  18.210  0.00  0.00    +0.000 A 
ATOM      6  N   UNL     1       1.955   9.987  17.798  0.00  0.00    +0.000 NA
ATOM      7  N   UNL     1       1.123  10.637  18.692  0.00  0.00    +0.000 NA
ATOM      8  C   UNL     1       0.930   9.939  19.795  0.00  0.00    +0.000 A 
ATOM      9  S   UNL     1       1.685   8.394  19.758  0.00  0.00    +0.000 S 
ATOM     10  H   UNL     1       1.644   6.369  18.717  0.00  0.00    +0.000 HD
ATOM     11  H   UNL     1       3.592   8.370  16.744  0.00  0.00    +0.000 HD
ENDROOT
BRANCH   3  12
ATOM     12  C   UNL     1       2.447   4.478  18.606  0.00  0.00    +0.000 A 
ATOM     13  C   UNL     1       1.420   3.642  18.164  0.00  0.00    +0.000 A 
ATOM     14  C   UNL     1       1.442   2.276  18.459  0.00  0.00    +0.000 A 
ATOM     15  C   UNL     1       2.494   1.735  19.195  0.00  0.00    +0.000 A 
ATOM     16  C   UNL     1       3.533   2.561  19.613  0.00  0.00    +0.000 A 
ATOM     17 CL   UNL     1       4.833   1.901  20.529  0.00  0.00    +0.000 Cl
ATOM     18  C   UNL     1       3.522   3.922  19.311  0.00  0.00    +0.000 A 
ENDBRANCH   3  12
BRANCH   8  19
ATOM     19  C   UNL     1       0.118  10.357  20.940  0.00  0.00    +0.000 A 
ATOM     20  C   UNL     1      -0.564  11.576  20.893  0.00  0.00    +0.000 A 
ATOM     21  C   UNL     1      -1.340  11.944  21.980  0.00  0.00    +0.000 A 
ATOM     22  N   UNL     1      -1.471  11.195  23.093  0.00  0.00    +0.000 NA
ATOM     23  C   UNL     1      -0.793  10.032  23.132  0.00  0.00    +0.000 A 
ATOM     24  C   UNL     1       0.005   9.576  22.096  0.00  0.00    +0.000 A 
ENDBRANCH   8  19
TORSDOF 2
ENDMDL
MODEL 5
REMARK VINA RESULT:      -7.3      3.773      8.258
REMARK  Name = 
REMARK  2 active torsions:
REMARK  status: ('A' for Active; 'I' for Inactive)
REMARK    1  A    between atoms: N_3  and  C_4
REMARK    2  A    between atoms: C_15  and  C_16
REMARK                            x       y       z     vdW  Elec       q    Type
REMARK                         _______ _______ _______ _____ _____    ______ ____
ROOT
ATOM      1  O   UNL     1       0.727   9.029  21.838  0.00  0.00    +0.000 OA
ATOM      2  C   UNL     1       1.134   8.484  20.815  0.00  0.00    +0.000 C 
ATOM      3  N   UNL     1       1.065   9.017  19.554  0.00  0.00    +0.000 N 
ATOM      4  N   UNL     1       1.596   7.204  20.926  0.00  0.00    +0.000 N 
ATOM      5  C   UNL     1       2.279   6.404  20.049  0.00  0.00    +0.000 A 
ATOM      6  N   UNL     1       2.428   5.111  20.215  0.00  0.00    +0.000 NA
ATOM      7  N   UNL     1       3.159   4.538  19.190  0.00  0.00    +0.000 NA
ATOM      8  C   UNL     1       3.622   5.436  18.342  0.00  0.00    +0.000 A 
ATOM      9  S   UNL     1       3.104   7.035  18.701  0.00  0.00    +0.000 S 
ATOM     10  H   UNL     1       1.267   8.378  18.799  0.00  0.00    +0.000 HD
ATOM     11  H   UNL     1       1.383   6.771  21.814  0.00  0.00    +0.000 HD
ENDROOT
BRANCH   3  12
ATOM     12  C   UNL     1       0.537  10.266  19.169  0.00  0.00    +0.000 A 
ATOM     13  C   UNL     1       1.274  11.451  19.161  0.00  0.00    +0.000 A 
ATOM     14  C   UNL     1       0.665  12.663  18.826  0.00  0.00    +0.000 A 
ATOM     15  C   UNL     1      -0.688  12.698  18.492  0.00  0.00    +0.000 A 
ATOM     16  C   UNL     1      -1.419  11.515  18.472  0.00  0.00    +0.000 A 
ATOM     17 CL   UNL     1      -3.092  11.551  18.067  0.00  0.00    +0.000 Cl
ATOM     18  C   UNL     1      -0.813  10.301  18.794  0.00  0.00    +0.000 A 
ENDBRANCH   3  12
BRANCH   8  19
ATOM     19  C   UNL     1       4.445   5.154  17.163  0.00  0.00    +0.000 A 
ATOM     20  C   UNL     1       4.868   6.207  16.349  0.00  0.00    +0.000 A 
ATOM     21  C   UNL     1       5.660   5.920  15.250  0.00  0.00    +0.000 A 
ATOM     22  N   UNL     1       6.044   4.673  14.910  0.00  0.00    +0.000 NA
ATOM     23  C   UNL     1       5.612   3.666  15.693  0.00  0.00    +0.000 A 
ATOM     24  C   UNL     1       4.822   3.851  16.814  0.00  0.00    +0.000 A 
ENDBRANCH   8  19
TORSDOF 2
ENDMDL
MODEL 6
REMARK VINA RESULT:      -7.3      3.809      8.209
REMARK  Name = 
REMARK  2 active torsions:
REMARK  status: ('A' for Active; 'I' for Inactive)
REMARK    1  A    between atoms: N_3  and  C_4
REMARK    2  A    between atoms: C_15  and  C_16
REMARK                            x       y       z     vdW  Elec       q    Type
REMARK                         _______ _______ _______ _____ _____    ______ ____
ROOT
ATOM      1  O   UNL     1       0.698   9.182  21.805  0.00  0.00    +0.000 OA
ATOM      2  C   UNL     1       1.108   8.617  20.794  0.00  0.00    +0.000 C 
ATOM      3  N   UNL     1       1.020   9.114  19.520  0.00  0.00    +0.000 N 
ATOM      4  N   UNL     1       1.594   7.349  20.937  0.00  0.00    +0.000 N 
ATOM      5  C   UNL     1       2.284   6.537  20.077  0.00  0.00    +0.000 A 
ATOM      6  N   UNL     1       2.458   5.252  20.276  0.00  0.00    +0.000 NA
ATOM      7  N   UNL     1       3.191   4.664  19.262  0.00  0.00    +0.000 NA
ATOM      8  C   UNL     1       3.632   5.546  18.386  0.00  0.00    +0.000 A 
ATOM      9  S   UNL     1       3.088   7.146  18.705  0.00  0.00    +0.000 S 
ATOM     10  H   UNL     1       1.228   8.458  18.781  0.00  0.00    +0.000 HD
ATOM     11  H   UNL     1       1.395   6.936  21.838  0.00  0.00    +0.000 HD
ENDROOT
BRANCH   3  12
ATOM     12  C   UNL     1       0.467  10.342  19.105  0.00  0.00    +0.000 A 
ATOM     13  C   UNL     1       1.141  11.561  19.180  0.00  0.00    +0.000 A 
ATOM     14  C   UNL     1       0.505  12.749  18.808  0.00  0.00    +0.000 A 
ATOM     15  C   UNL     1      -0.812  12.723  18.353  0.00  0.00    +0.000 A 
ATOM     16  C   UNL     1      -1.479  11.506  18.250  0.00  0.00    +0.000 A 
ATOM     17 CL   UNL     1      -3.108  11.468  17.695  0.00  0.00    +0.000 Cl
ATOM     18  C   UNL     1      -0.843  10.318  18.609  0.00  0.00    +0.000 A 
ENDBRANCH   3  12
BRANCH   8  19
ATOM     19  C   UNL     1       4.452   5.247  17.210  0.00  0.00    +0.000 A 
ATOM     20  C   UNL     1       4.899   3.940  16.996  0.00  0.00    +0.000 A 
ATOM     21  C   UNL     1       5.659   3.676  15.868  0.00  0.00    +0.000 A 
ATOM     22  N   UNL     1       6.003   4.612  14.961  0.00  0.00    +0.000 NA
ATOM     23  C   UNL     1       5.579   5.870  15.191  0.00  0.00    +0.000 A 
ATOM     24  C   UNL     1       4.814   6.234  16.286  0.00  0.00    +0.000 A 
ENDBRANCH   8  19
TORSDOF 2
ENDMDL
MODEL 7
REMARK VINA RESULT:      -7.2      3.915      8.257
REMARK  Name = 
REMARK  2 active torsions:
REMARK  status: ('A' for Active; 'I' for Inactive)
REMARK    1  A    between atoms: N_3  and  C_4
REMARK    2  A    between atoms: C_15  and  C_16
REMARK                            x       y       z     vdW  Elec       q    Type
REMARK                         _______ _______ _______ _____ _____    ______ ____
ROOT
ATOM      1  O   UNL     1       0.694   9.060  21.919  0.00  0.00    +0.000 OA
ATOM      2  C   UNL     1       1.094   8.512  20.895  0.00  0.00    +0.000 C 
ATOM      3  N   UNL     1       0.988   9.027  19.629  0.00  0.00    +0.000 N 
ATOM      4  N   UNL     1       1.589   7.245  21.012  0.00  0.00    +0.000 N 
ATOM      5  C   UNL     1       2.272   6.450  20.131  0.00  0.00    +0.000 A 
ATOM      6  N   UNL     1       2.455   5.163  20.309  0.00  0.00    +0.000 NA
ATOM      7  N   UNL     1       3.179   4.594  19.277  0.00  0.00    +0.000 NA
ATOM      8  C   UNL     1       3.604   5.492  18.409  0.00  0.00    +0.000 A 
ATOM      9  S   UNL     1       3.056   7.083  18.759  0.00  0.00    +0.000 S 
ATOM     10  H   UNL     1       1.190   8.384  18.878  0.00  0.00    +0.000 HD
ATOM     11  H   UNL     1       1.403   6.818  21.909  0.00  0.00    +0.000 HD
ENDROOT
BRANCH   3  12
ATOM     12  C   UNL     1       0.422  10.259  19.240  0.00  0.00    +0.000 A 
ATOM     13  C   UNL     1      -0.935  10.437  18.970  0.00  0.00    +0.000 A 
ATOM     14  C   UNL     1      -1.414  11.674  18.528  0.00  0.00    +0.000 A 
ATOM     15  C   UNL     1      -0.537  12.744  18.358  0.00  0.00    +0.000 A 
ATOM     16  C   UNL     1       0.812  12.577  18.653  0.00  0.00    +0.000 A 
ATOM     17 CL   UNL     1       1.903  13.892  18.438  0.00  0.00    +0.000 Cl
ATOM     18  C   UNL     1       1.293  11.348  19.105  0.00  0.00    +0.000 A 
ENDBRANCH   3  12
BRANCH   8  19
ATOM     19  C   UNL     1       4.411   5.215  17.218  0.00  0.00    +0.000 A 
ATOM     20  C   UNL     1       4.778   3.899  16.925  0.00  0.00    +0.000 A 
ATOM     21  C   UNL     1       5.527   3.657  15.785  0.00  0.00    +0.000 A 
ATOM     22  N   UNL     1       5.933   4.624  14.938  0.00  0.00    +0.000 NA
ATOM     23  C   UNL     1       5.587   5.890  15.244  0.00  0.00    +0.000 A 
ATOM     24  C   UNL     1       4.839   6.232  16.357  0.00  0.00    +0.000 A 
ENDBRANCH   8  19
TORSDOF 2
ENDMDL
MODEL 8
REMARK VINA RESULT:      -7.2      3.935      8.292
REMARK  Name = 
REMARK  2 active torsions:
REMARK  status: ('A' for Active; 'I' for Inactive)
REMARK    1  A    between atoms: N_3  and  C_4
REMARK    2  A    between atoms: C_15  and  C_16
REMARK                            x       y       z     vdW  Elec       q    Type
REMARK                         _______ _______ _______ _____ _____    ______ ____
ROOT
ATOM      1  O   UNL     1       0.572   9.392  21.916  0.00  0.00    +0.000 OA
ATOM      2  C   UNL     1       0.954   8.807  20.907  0.00  0.00    +0.000 C 
ATOM      3  N   UNL     1       0.841   9.282  19.626  0.00  0.00    +0.000 N 
ATOM      4  N   UNL     1       1.436   7.538  21.060  0.00  0.00    +0.000 N 
ATOM      5  C   UNL     1       2.101   6.707  20.199  0.00  0.00    +0.000 A 
ATOM      6  N   UNL     1       2.272   5.425  20.417  0.00  0.00    +0.000 NA
ATOM      7  N   UNL     1       2.978   4.814  19.397  0.00  0.00    +0.000 NA
ATOM      8  C   UNL     1       3.404   5.678  18.496  0.00  0.00    +0.000 A 
ATOM      9  S   UNL     1       2.877   7.286  18.799  0.00  0.00    +0.000 S 
ATOM     10  H   UNL     1       1.028   8.612  18.894  0.00  0.00    +0.000 HD
ATOM     11  H   UNL     1       1.255   7.143  21.973  0.00  0.00    +0.000 HD
ENDROOT
BRANCH   3  12
ATOM     12  C   UNL     1       0.286  10.506  19.202  0.00  0.00    +0.000 A 
ATOM     13  C   UNL     1      -1.037  10.653  18.781  0.00  0.00    +0.000 A 
ATOM     14  C   UNL     1      -1.500  11.887  18.316  0.00  0.00    +0.000 A 
ATOM     15  C   UNL     1      -0.644  12.985  18.273  0.00  0.00    +0.000 A 
ATOM     16  C   UNL     1       0.667  12.850  18.719  0.00  0.00    +0.000 A 
ATOM     17 CL   UNL     1       1.733  14.200  18.664  0.00  0.00    +0.000 Cl
ATOM     18  C   UNL     1       1.131  11.623  19.195  0.00  0.00    +0.000 A 
ENDBRANCH   3  12
BRANCH   8  19
ATOM     19  C   UNL     1       4.195   5.353  17.306  0.00  0.00    +0.000 A 
ATOM     20  C   UNL     1       4.752   6.384  16.545  0.00  0.00    +0.000 A 
ATOM     21  C   UNL     1       5.509   6.053  15.434  0.00  0.00    +0.000 A 
ATOM     22  N   UNL     1       5.738   4.786  15.034  0.00  0.00    +0.000 NA
ATOM     23  C   UNL     1       5.179   3.803  15.767  0.00  0.00    +0.000 A 
ATOM     24  C   UNL     1       4.408   4.032  16.895  0.00  0.00    +0.000 A 
ENDBRANCH   8  19
TORSDOF 2
ENDMDL
MODEL 9
REMARK VINA RESULT:      -7.1      3.284      4.404
REMARK  Name = 
REMARK  2 active torsions:
REMARK  status: ('A' for Active; 'I' for Inactive)
REMARK    1  A    between atoms: N_3  and  C_4
REMARK    2  A    between atoms: C_15  and  C_16
REMARK                            x       y       z     vdW  Elec       q    Type
REMARK                         _______ _______ _______ _____ _____    ______ ____
ROOT
ATOM      1  O   UNL     1       3.351   4.047  19.715  0.00  0.00    +0.000 OA
ATOM      2  C   UNL     1       3.224   5.263  19.596  0.00  0.00    +0.000 C 
ATOM      3  N   UNL     1       3.999   6.064  18.797  0.00  0.00    +0.000 N 
ATOM      4  N   UNL     1       2.309   5.882  20.398  0.00  0.00    +0.000 N 
ATOM      5  C   UNL     1       1.798   7.152  20.384  0.00  0.00    +0.000 A 
ATOM      6  N   UNL     1       1.116   7.669  21.378  0.00  0.00    +0.000 NA
ATOM      7  N   UNL     1       0.710   8.964  21.111  0.00  0.00    +0.000 NA
ATOM      8  C   UNL     1       1.013   9.341  19.884  0.00  0.00    +0.000 A 
ATOM      9  S   UNL     1       1.903   8.156  19.013  0.00  0.00    +0.000 S 
ATOM     10  H   UNL     1       3.898   7.057  18.946  0.00  0.00    +0.000 HD
ATOM     11  H   UNL     1       1.959   5.294  21.143  0.00  0.00    +0.000 HD
ENDROOT
BRANCH   3  12
ATOM     12  C   UNL     1       5.069   5.681  17.964  0.00  0.00    +0.000 A 
ATOM     13  C   UNL     1       6.411   5.772  18.334  0.00  0.00    +0.000 A 
ATOM     14  C   UNL     1       7.421   5.430  17.430  0.00  0.00    +0.000 A 
ATOM     15  C   UNL     1       7.095   4.990  16.149  0.00  0.00    +0.000 A 
ATOM     16  C   UNL     1       5.757   4.871  15.786  0.00  0.00    +0.000 A 
ATOM     17 CL   UNL     1       5.345   4.335  14.202  0.00  0.00    +0.000 Cl
ATOM     18  C   UNL     1       4.745   5.200  16.688  0.00  0.00    +0.000 A 
ENDBRANCH   3  12
BRANCH   8  19
ATOM     19  C   UNL     1       0.704  10.643  19.289  0.00  0.00    +0.000 A 
ATOM     20  C   UNL     1      -0.622  10.970  18.995  0.00  0.00    +0.000 A 
ATOM     21  C   UNL     1      -0.893  12.213  18.448  0.00  0.00    +0.000 A 
ATOM     22  N   UNL     1       0.054  13.132  18.173  0.00  0.00    +0.000 NA
ATOM     23  C   UNL     1       1.330  12.796  18.444  0.00  0.00    +0.000 A 
ATOM     24  C   UNL     1       1.701  11.580  18.993  0.00  0.00    +0.000 A 
ENDBRANCH   8  19
TORSDOF 2
ENDMDL
