MODEL 1
REMARK VINA RESULT:      -8.6      0.000      0.000
REMARK  Name = 
REMARK  7 active torsions:
REMARK  status: ('A' for Active; 'I' for Inactive)
REMARK    1  A    between atoms: C_1  and  C_2
REMARK    2  A    between atoms: C_6  and  C_7
REMARK    3  A    between atoms: C_7  and  O_8
REMARK    4  A    between atoms: O_8  and  C_9
REMARK    5  A    between atoms: C_9  and  C_11
REMARK    6  A    between atoms: C_14  and  N_15
REMARK    7  A    between atoms: C_24  and  C_25
REMARK                            x       y       z     vdW  Elec       q    Type
REMARK                         _______ _______ _______ _____ _____    ______ ____
ROOT
ATOM      1  C   UNL     1       0.811  11.950  20.683  0.00  0.00    +0.000 C 
ATOM      2  C   UNL     1       0.248  10.614  20.119  0.00  0.00    +0.000 C 
ATOM      3  C   UNL     1      -0.610  10.034  21.291  0.00  0.00    +0.000 C 
ATOM      4  C   UNL     1      -0.378   8.564  21.642  0.00  0.00    +0.000 C 
ATOM      5  C   UNL     1       1.101   8.186  21.590  0.00  0.00    +0.000 C 
ATOM      6  C   UNL     1       1.614   8.429  20.199  0.00  0.00    +0.000 C 
ATOM      7  C   UNL     1       1.217   9.571  19.581  0.00  0.00    +0.000 C 
ATOM      8  C   UNL     1       1.183   9.592  18.097  0.00  0.00    +0.000 C 
ATOM      9  O   UNL     1       2.002   9.130  17.327  0.00  0.00    +0.000 OA
ATOM     10  O   UNL     1      -0.018  10.108  17.753  0.00  0.00    +0.000 OA
ATOM     11  C   UNL     1      -0.423  11.023  18.773  0.00  0.00    +0.000 C 
ENDROOT
BRANCH  11  12
ATOM     12  C   UNL     1      -1.887  11.284  18.760  0.00  0.00    +0.000 A 
ATOM     13  C   UNL     1      -2.891  10.679  17.956  0.00  0.00    +0.000 A 
ATOM     14  C   UNL     1      -4.083  11.264  18.312  0.00  0.00    +0.000 A 
ATOM     15  O   UNL     1      -3.879  12.218  19.256  0.00  0.00    +0.000 OA
ATOM     16  C   UNL     1      -2.548  12.238  19.511  0.00  0.00    +0.000 A 
ENDBRANCH  11  12
BRANCH   6  17
ATOM     17  C   UNL     1       2.247   7.229  19.492  0.00  0.00    +0.000 C 
BRANCH  17  18
ATOM     18  O   UNL     1       2.163   6.039  20.305  0.00  0.00    +0.000 OA
BRANCH  18  19
ATOM     19  C   UNL     1       2.197   4.851  19.644  0.00  0.00    +0.000 C 
ATOM     20  O   UNL     1       1.357   3.970  19.695  0.00  0.00    +0.000 OA
BRANCH  19  21
ATOM     21  C   UNL     1       3.447   4.724  18.835  0.00  0.00    +0.000 A 
ATOM     22  C   UNL     1       3.333   4.372  17.477  0.00  0.00    +0.000 A 
ATOM     23  C   UNL     1       4.473   4.235  16.674  0.00  0.00    +0.000 A 
ATOM     24  C   UNL     1       5.740   4.450  17.233  0.00  0.00    +0.000 A 
ATOM     25  C   UNL     1       5.867   4.800  18.584  0.00  0.00    +0.000 A 
ATOM     26  C   UNL     1       4.721   4.938  19.379  0.00  0.00    +0.000 A 
BRANCH  24  27
ATOM     27  N   UNL     1       6.940   4.311  16.394  0.00  0.00    +0.000 N 
ATOM     28  O   UNL     1       6.779   4.139  15.181  0.00  0.00    +0.000 OA
ATOM     29  O   UNL     1       8.044   4.379  16.960  0.00  0.00    +0.000 OA
ENDBRANCH  24  27
ENDBRANCH  19  21
ENDBRANCH  18  19
ENDBRANCH  17  18
ENDBRANCH   6  17
TORSDOF 6
ENDMDL
MODEL 2
REMARK VINA RESULT:      -8.3      0.825      1.247
REMARK  Name = 
REMARK  7 active torsions:
REMARK  status: ('A' for Active; 'I' for Inactive)
REMARK    1  A    between atoms: C_1  and  C_2
REMARK    2  A    between atoms: C_6  and  C_7
REMARK    3  A    between atoms: C_7  and  O_8
REMARK    4  A    between atoms: O_8  and  C_9
REMARK    5  A    between atoms: C_9  and  C_11
REMARK    6  A    between atoms: C_14  and  N_15
REMARK    7  A    between atoms: C_24  and  C_25
REMARK                            x       y       z     vdW  Elec       q    Type
REMARK                         _______ _______ _______ _____ _____    ______ ____
ROOT
ATOM      1  C   UNL     1       0.923  11.612  20.152  0.00  0.00    +0.000 C 
ATOM      2  C   UNL     1       0.426  10.196  19.744  0.00  0.00    +0.000 C 
ATOM      3  C   UNL     1      -0.528   9.774  20.909  0.00  0.00    +0.000 C 
ATOM      4  C   UNL     1      -0.315   8.376  21.492  0.00  0.00    +0.000 C 
ATOM      5  C   UNL     1       1.166   8.029  21.627  0.00  0.00    +0.000 C 
ATOM      6  C   UNL     1       1.800   8.077  20.265  0.00  0.00    +0.000 C 
ATOM      7  C   UNL     1       1.450   9.107  19.453  0.00  0.00    +0.000 C 
ATOM      8  C   UNL     1       1.550   8.910  17.985  0.00  0.00    +0.000 C 
ATOM      9  O   UNL     1       2.438   8.359  17.367  0.00  0.00    +0.000 OA
ATOM     10  O   UNL     1       0.379   9.342  17.465  0.00  0.00    +0.000 OA
ATOM     11  C   UNL     1      -0.125  10.387  18.298  0.00  0.00    +0.000 C 
ENDROOT
BRANCH  11  12
ATOM     12  C   UNL     1      -1.584  10.611  18.119  0.00  0.00    +0.000 A 
ATOM     13  C   UNL     1      -2.572   9.699  17.657  0.00  0.00    +0.000 A 
ATOM     14  C   UNL     1      -3.766  10.382  17.662  0.00  0.00    +0.000 A 
ATOM     15  O   UNL     1      -3.576  11.665  18.059  0.00  0.00    +0.000 OA
ATOM     16  C   UNL     1      -2.253  11.804  18.318  0.00  0.00    +0.000 A 
ENDBRANCH  11  12
BRANCH   6  17
ATOM     17  C   UNL     1       2.506   6.801  19.802  0.00  0.00    +0.000 C 
BRANCH  17  18
ATOM     18  O   UNL     1       1.562   5.733  19.576  0.00  0.00    +0.000 OA
BRANCH  18  19
ATOM     19  C   UNL     1       2.085   4.521  19.248  0.00  0.00    +0.000 C 
ATOM     20  O   UNL     1       1.582   3.433  19.462  0.00  0.00    +0.000 OA
BRANCH  19  21
ATOM     21  C   UNL     1       3.421   4.674  18.593  0.00  0.00    +0.000 A 
ATOM     22  C   UNL     1       4.546   4.888  19.410  0.00  0.00    +0.000 A 
ATOM     23  C   UNL     1       5.820   5.042  18.849  0.00  0.00    +0.000 A 
ATOM     24  C   UNL     1       5.972   4.985  17.457  0.00  0.00    +0.000 A 
ATOM     25  C   UNL     1       4.859   4.774  16.632  0.00  0.00    +0.000 A 
ATOM     26  C   UNL     1       3.588   4.617  17.203  0.00  0.00    +0.000 A 
BRANCH  24  27
ATOM     27  N   UNL     1       7.307   5.144  16.862  0.00  0.00    +0.000 N 
ATOM     28  O   UNL     1       7.599   6.245  16.385  0.00  0.00    +0.000 OA
ATOM     29  O   UNL     1       8.063   4.157  16.881  0.00  0.00    +0.000 OA
ENDBRANCH  24  27
ENDBRANCH  19  21
ENDBRANCH  18  19
ENDBRANCH  17  18
ENDBRANCH   6  17
TORSDOF 6
ENDMDL
MODEL 3
REMARK VINA RESULT:      -8.2      0.914      1.216
REMARK  Name = 
REMARK  7 active torsions:
REMARK  status: ('A' for Active; 'I' for Inactive)
REMARK    1  A    between atoms: C_1  and  C_2
REMARK    2  A    between atoms: C_6  and  C_7
REMARK    3  A    between atoms: C_7  and  O_8
REMARK    4  A    between atoms: O_8  and  C_9
REMARK    5  A    between atoms: C_9  and  C_11
REMARK    6  A    between atoms: C_14  and  N_15
REMARK    7  A    between atoms: C_24  and  C_25
REMARK                            x       y       z     vdW  Elec       q    Type
REMARK                         _______ _______ _______ _____ _____    ______ ____
ROOT
ATOM      1  C   UNL     1       1.301  11.578  20.631  0.00  0.00    +0.000 C 
ATOM      2  C   UNL     1       0.622  10.304  20.050  0.00  0.00    +0.000 C 
ATOM      3  C   UNL     1      -0.275   9.781  21.220  0.00  0.00    +0.000 C 
ATOM      4  C   UNL     1      -0.167   8.291  21.546  0.00  0.00    +0.000 C 
ATOM      5  C   UNL     1       1.273   7.789  21.477  0.00  0.00    +0.000 C 
ATOM      6  C   UNL     1       1.796   8.009  20.085  0.00  0.00    +0.000 C 
ATOM      7  C   UNL     1       1.495   9.191  19.488  0.00  0.00    +0.000 C 
ATOM      8  C   UNL     1       1.454   9.239  18.005  0.00  0.00    +0.000 C 
ATOM      9  O   UNL     1       2.224   8.721  17.222  0.00  0.00    +0.000 OA
ATOM     10  O   UNL     1       0.299   9.861  17.679  0.00  0.00    +0.000 OA
ATOM     11  C   UNL     1      -0.020  10.791  18.716  0.00  0.00    +0.000 C 
ENDROOT
BRANCH  11  12
ATOM     12  C   UNL     1      -1.456  11.177  18.718  0.00  0.00    +0.000 A 
ATOM     13  C   UNL     1      -2.093  12.224  19.440  0.00  0.00    +0.000 A 
ATOM     14  C   UNL     1      -3.427  12.168  19.111  0.00  0.00    +0.000 A 
ATOM     15  O   UNL     1      -3.664  11.135  18.265  0.00  0.00    +0.000 OA
ATOM     16  C   UNL     1      -2.473  10.528  18.044  0.00  0.00    +0.000 A 
ENDBRANCH  11  12
BRANCH   6  17
ATOM     17  C   UNL     1       2.320   6.771  19.356  0.00  0.00    +0.000 C 
BRANCH  17  18
ATOM     18  O   UNL     1       3.175   5.983  20.210  0.00  0.00    +0.000 OA
BRANCH  18  19
ATOM     19  C   UNL     1       3.430   4.710  19.805  0.00  0.00    +0.000 C 
ATOM     20  O   UNL     1       3.025   3.688  20.330  0.00  0.00    +0.000 OA
BRANCH  19  21
ATOM     21  C   UNL     1       4.326   4.698  18.608  0.00  0.00    +0.000 A 
ATOM     22  C   UNL     1       3.813   4.209  17.393  0.00  0.00    +0.000 A 
ATOM     23  C   UNL     1       4.610   4.172  16.242  0.00  0.00    +0.000 A 
ATOM     24  C   UNL     1       5.935   4.624  16.306  0.00  0.00    +0.000 A 
ATOM     25  C   UNL     1       6.458   5.112  17.510  0.00  0.00    +0.000 A 
ATOM     26  C   UNL     1       5.652   5.150  18.656  0.00  0.00    +0.000 A 
BRANCH  24  27
ATOM     27  N   UNL     1       6.776   4.590  15.100  0.00  0.00    +0.000 N 
ATOM     28  O   UNL     1       7.714   5.390  15.028  0.00  0.00    +0.000 OA
ATOM     29  O   UNL     1       6.491   3.752  14.227  0.00  0.00    +0.000 OA
ENDBRANCH  24  27
ENDBRANCH  19  21
ENDBRANCH  18  19
ENDBRANCH  17  18
ENDBRANCH   6  17
TORSDOF 6
ENDMDL
MODEL 4
REMARK VINA RESULT:      -7.9      1.117      1.519
REMARK  Name = 
REMARK  7 active torsions:
REMARK  status: ('A' for Active; 'I' for Inactive)
REMARK    1  A    between atoms: C_1  and  C_2
REMARK    2  A    between atoms: C_6  and  C_7
REMARK    3  A    between atoms: C_7  and  O_8
REMARK    4  A    between atoms: O_8  and  C_9
REMARK    5  A    between atoms: C_9  and  C_11
REMARK    6  A    between atoms: C_14  and  N_15
REMARK    7  A    between atoms: C_24  and  C_25
REMARK                            x       y       z     vdW  Elec       q    Type
REMARK                         _______ _______ _______ _____ _____    ______ ____
ROOT
ATOM      1  C   UNL     1       1.272  12.024  20.631  0.00  0.00    +0.000 C 
ATOM      2  C   UNL     1       0.456  10.777  20.187  0.00  0.00    +0.000 C 
ATOM      3  C   UNL     1      -0.294  10.327  21.483  0.00  0.00    +0.000 C 
ATOM      4  C   UNL     1      -0.217   8.841  21.834  0.00  0.00    +0.000 C 
ATOM      5  C   UNL     1       1.172   8.261  21.581  0.00  0.00    +0.000 C 
ATOM      6  C   UNL     1       1.507   8.423  20.125  0.00  0.00    +0.000 C 
ATOM      7  C   UNL     1       1.185   9.606  19.542  0.00  0.00    +0.000 C 
ATOM      8  C   UNL     1       0.940   9.624  18.078  0.00  0.00    +0.000 C 
ATOM      9  O   UNL     1       1.568   9.050  17.211  0.00  0.00    +0.000 OA
ATOM     10  O   UNL     1      -0.216  10.300  17.896  0.00  0.00    +0.000 OA
ATOM     11  C   UNL     1      -0.341  11.268  18.940  0.00  0.00    +0.000 C 
ENDROOT
BRANCH  11  12
ATOM     12  C   UNL     1      -1.741  11.730  19.130  0.00  0.00    +0.000 A 
ATOM     13  C   UNL     1      -2.259  12.612  20.118  0.00  0.00    +0.000 A 
ATOM     14  C   UNL     1      -3.609  12.719  19.876  0.00  0.00    +0.000 A 
ATOM     15  O   UNL     1      -3.967  11.934  18.829  0.00  0.00    +0.000 OA
ATOM     16  C   UNL     1      -2.837  11.325  18.391  0.00  0.00    +0.000 A 
ENDBRANCH  11  12
BRANCH   6  17
ATOM     17  C   UNL     1       1.862   7.144  19.366  0.00  0.00    +0.000 C 
BRANCH  17  18
ATOM     18  O   UNL     1       3.237   6.766  19.591  0.00  0.00    +0.000 OA
BRANCH  18  19
ATOM     19  C   UNL     1       3.541   5.453  19.412  0.00  0.00    +0.000 C 
ATOM     20  O   UNL     1       3.252   4.534  20.158  0.00  0.00    +0.000 OA
BRANCH  19  21
ATOM     21  C   UNL     1       4.332   5.252  18.159  0.00  0.00    +0.000 A 
ATOM     22  C   UNL     1       4.952   6.371  17.573  0.00  0.00    +0.000 A 
ATOM     23  C   UNL     1       5.701   6.240  16.396  0.00  0.00    +0.000 A 
ATOM     24  C   UNL     1       5.831   4.980  15.798  0.00  0.00    +0.000 A 
ATOM     25  C   UNL     1       5.218   3.858  16.371  0.00  0.00    +0.000 A 
ATOM     26  C   UNL     1       4.473   3.997  17.550  0.00  0.00    +0.000 A 
BRANCH  24  27
ATOM     27  N   UNL     1       6.619   4.836  14.564  0.00  0.00    +0.000 N 
ATOM     28  O   UNL     1       6.232   4.017  13.724  0.00  0.00    +0.000 OA
ATOM     29  O   UNL     1       7.626   5.554  14.442  0.00  0.00    +0.000 OA
ENDBRANCH  24  27
ENDBRANCH  19  21
ENDBRANCH  18  19
ENDBRANCH  17  18
ENDBRANCH   6  17
TORSDOF 6
ENDMDL
MODEL 5
REMARK VINA RESULT:      -7.9      5.145      7.927
REMARK  Name = 
REMARK  7 active torsions:
REMARK  status: ('A' for Active; 'I' for Inactive)
REMARK    1  A    between atoms: C_1  and  C_2
REMARK    2  A    between atoms: C_6  and  C_7
REMARK    3  A    between atoms: C_7  and  O_8
REMARK    4  A    between atoms: O_8  and  C_9
REMARK    5  A    between atoms: C_9  and  C_11
REMARK    6  A    between atoms: C_14  and  N_15
REMARK    7  A    between atoms: C_24  and  C_25
REMARK                            x       y       z     vdW  Elec       q    Type
REMARK                         _______ _______ _______ _____ _____    ______ ____
ROOT
ATOM      1  C   UNL     1       1.381   4.503  17.104  0.00  0.00    +0.000 C 
ATOM      2  C   UNL     1       2.704   4.725  17.890  0.00  0.00    +0.000 C 
ATOM      3  C   UNL     1       2.383   5.913  18.855  0.00  0.00    +0.000 C 
ATOM      4  C   UNL     1       3.404   7.051  18.897  0.00  0.00    +0.000 C 
ATOM      5  C   UNL     1       3.946   7.389  17.510  0.00  0.00    +0.000 C 
ATOM      6  C   UNL     1       4.617   6.170  16.943  0.00  0.00    +0.000 C 
ATOM      7  C   UNL     1       3.991   4.978  17.118  0.00  0.00    +0.000 C 
ATOM      8  C   UNL     1       4.818   3.745  17.127  0.00  0.00    +0.000 C 
ATOM      9  O   UNL     1       5.746   3.466  16.395  0.00  0.00    +0.000 OA
ATOM     10  O   UNL     1       4.429   3.036  18.210  0.00  0.00    +0.000 OA
ATOM     11  C   UNL     1       3.050   3.314  18.458  0.00  0.00    +0.000 C 
ENDROOT
BRANCH  11  12
ATOM     12  C   UNL     1       2.640   2.990  19.850  0.00  0.00    +0.000 A 
ATOM     13  C   UNL     1       1.335   2.989  20.415  0.00  0.00    +0.000 A 
ATOM     14  C   UNL     1       1.481   2.628  21.734  0.00  0.00    +0.000 A 
ATOM     15  O   UNL     1       2.791   2.443  22.032  0.00  0.00    +0.000 OA
ATOM     16  C   UNL     1       3.490   2.679  20.895  0.00  0.00    +0.000 A 
ENDBRANCH  11  12
BRANCH   6  17
ATOM     17  C   UNL     1       6.080   6.335  16.526  0.00  0.00    +0.000 C 
BRANCH  17  18
ATOM     18  O   UNL     1       6.594   7.625  16.919  0.00  0.00    +0.000 OA
BRANCH  18  19
ATOM     19  C   UNL     1       7.589   7.624  17.847  0.00  0.00    +0.000 C 
ATOM     20  O   UNL     1       8.013   6.656  18.452  0.00  0.00    +0.000 OA
BRANCH  19  21
ATOM     21  C   UNL     1       8.108   9.007  18.076  0.00  0.00    +0.000 A 
ATOM     22  C   UNL     1       9.104   9.195  19.052  0.00  0.00    +0.000 A 
ATOM     23  C   UNL     1       9.623  10.470  19.310  0.00  0.00    +0.000 A 
ATOM     24  C   UNL     1       9.141  11.570  18.587  0.00  0.00    +0.000 A 
ATOM     25  C   UNL     1       8.150  11.397  17.613  0.00  0.00    +0.000 A 
ATOM     26  C   UNL     1       7.638  10.116  17.359  0.00  0.00    +0.000 A 
BRANCH  24  27
ATOM     27  N   UNL     1       9.685  12.910  18.852  0.00  0.00    +0.000 N 
ATOM     28  O   UNL     1       9.517  13.781  17.992  0.00  0.00    +0.000 OA
ATOM     29  O   UNL     1      10.277  13.085  19.930  0.00  0.00    +0.000 OA
ENDBRANCH  24  27
ENDBRANCH  19  21
ENDBRANCH  18  19
ENDBRANCH  17  18
ENDBRANCH   6  17
TORSDOF 6
ENDMDL
MODEL 6
REMARK VINA RESULT:      -7.9      1.309      1.803
REMARK  Name = 
REMARK  7 active torsions:
REMARK  status: ('A' for Active; 'I' for Inactive)
REMARK    1  A    between atoms: C_1  and  C_2
REMARK    2  A    between atoms: C_6  and  C_7
REMARK    3  A    between atoms: C_7  and  O_8
REMARK    4  A    between atoms: O_8  and  C_9
REMARK    5  A    between atoms: C_9  and  C_11
REMARK    6  A    between atoms: C_14  and  N_15
REMARK    7  A    between atoms: C_24  and  C_25
REMARK                            x       y       z     vdW  Elec       q    Type
REMARK                         _______ _______ _______ _____ _____    ______ ____
ROOT
ATOM      1  C   UNL     1       1.423  11.417  20.277  0.00  0.00    +0.000 C 
ATOM      2  C   UNL     1       0.717  10.111  19.815  0.00  0.00    +0.000 C 
ATOM      3  C   UNL     1      -0.194   9.719  21.025  0.00  0.00    +0.000 C 
ATOM      4  C   UNL     1      -0.122   8.263  21.488  0.00  0.00    +0.000 C 
ATOM      5  C   UNL     1       1.306   7.725  21.472  0.00  0.00    +0.000 C 
ATOM      6  C   UNL     1       1.837   7.803  20.068  0.00  0.00    +0.000 C 
ATOM      7  C   UNL     1       1.564   8.930  19.363  0.00  0.00    +0.000 C 
ATOM      8  C   UNL     1       1.527   8.840  17.882  0.00  0.00    +0.000 C 
ATOM      9  O   UNL     1       2.287   8.234  17.153  0.00  0.00    +0.000 OA
ATOM     10  O   UNL     1       0.388   9.455  17.494  0.00  0.00    +0.000 OA
ATOM     11  C   UNL     1       0.088  10.485  18.438  0.00  0.00    +0.000 C 
ENDROOT
BRANCH  11  12
ATOM     12  C   UNL     1      -1.338  10.902  18.399  0.00  0.00    +0.000 A 
ATOM     13  C   UNL     1      -2.455  10.199  17.870  0.00  0.00    +0.000 A 
ATOM     14  C   UNL     1      -3.553  11.005  18.066  0.00  0.00    +0.000 A 
ATOM     15  O   UNL     1      -3.184  12.174  18.647  0.00  0.00    +0.000 OA
ATOM     16  C   UNL     1      -1.842  12.115  18.832  0.00  0.00    +0.000 A 
ENDBRANCH  11  12
BRANCH   6  17
ATOM     17  C   UNL     1       2.334   6.490  19.459  0.00  0.00    +0.000 C 
BRANCH  17  18
ATOM     18  O   UNL     1       3.776   6.449  19.411  0.00  0.00    +0.000 OA
BRANCH  18  19
ATOM     19  C   UNL     1       4.342   5.220  19.271  0.00  0.00    +0.000 C 
ATOM     20  O   UNL     1       4.341   4.324  20.096  0.00  0.00    +0.000 OA
BRANCH  19  21
ATOM     21  C   UNL     1       5.024   5.093  17.946  0.00  0.00    +0.000 A 
ATOM     22  C   UNL     1       6.193   5.841  17.720  0.00  0.00    +0.000 A 
ATOM     23  C   UNL     1       6.869   5.763  16.496  0.00  0.00    +0.000 A 
ATOM     24  C   UNL     1       6.370   4.930  15.485  0.00  0.00    +0.000 A 
ATOM     25  C   UNL     1       5.206   4.180  15.697  0.00  0.00    +0.000 A 
ATOM     26  C   UNL     1       4.538   4.262  16.927  0.00  0.00    +0.000 A 
BRANCH  24  27
ATOM     27  N   UNL     1       7.077   4.842  14.199  0.00  0.00    +0.000 N 
ATOM     28  O   UNL     1       8.118   5.494  14.066  0.00  0.00    +0.000 OA
ATOM     29  O   UNL     1       6.584   4.110  13.324  0.00  0.00    +0.000 OA
ENDBRANCH  24  27
ENDBRANCH  19  21
ENDBRANCH  18  19
ENDBRANCH  17  18
ENDBRANCH   6  17
TORSDOF 6
ENDMDL
MODEL 7
REMARK VINA RESULT:      -7.9      2.164      3.464
REMARK  Name = 
REMARK  7 active torsions:
REMARK  status: ('A' for Active; 'I' for Inactive)
REMARK    1  A    between atoms: C_1  and  C_2
REMARK    2  A    between atoms: C_6  and  C_7
REMARK    3  A    between atoms: C_7  and  O_8
REMARK    4  A    between atoms: O_8  and  C_9
REMARK    5  A    between atoms: C_9  and  C_11
REMARK    6  A    between atoms: C_14  and  N_15
REMARK    7  A    between atoms: C_24  and  C_25
REMARK                            x       y       z     vdW  Elec       q    Type
REMARK                         _______ _______ _______ _____ _____    ______ ____
ROOT
ATOM      1  C   UNL     1      -1.093  11.277  19.098  0.00  0.00    +0.000 C 
ATOM      2  C   UNL     1       0.356  10.963  19.567  0.00  0.00    +0.000 C 
ATOM      3  C   UNL     1       1.239  11.260  18.310  0.00  0.00    +0.000 C 
ATOM      4  C   UNL     1       2.259  10.187  17.926  0.00  0.00    +0.000 C 
ATOM      5  C   UNL     1       1.697   8.776  18.080  0.00  0.00    +0.000 C 
ATOM      6  C   UNL     1       1.306   8.566  19.516  0.00  0.00    +0.000 C 
ATOM      7  C   UNL     1       0.667   9.588  20.142  0.00  0.00    +0.000 C 
ATOM      8  C   UNL     1       0.783   9.690  21.618  0.00  0.00    +0.000 C 
ATOM      9  O   UNL     1       0.732   8.791  22.433  0.00  0.00    +0.000 OA
ATOM     10  O   UNL     1       1.101  10.977  21.885  0.00  0.00    +0.000 OA
ATOM     11  C   UNL     1       0.525  11.802  20.870  0.00  0.00    +0.000 C 
ENDROOT
BRANCH  11  12
ATOM     12  C   UNL     1       1.177  13.135  20.776  0.00  0.00    +0.000 A 
ATOM     13  C   UNL     1       2.557  13.459  20.887  0.00  0.00    +0.000 A 
ATOM     14  C   UNL     1       2.651  14.823  20.736  0.00  0.00    +0.000 A 
ATOM     15  O   UNL     1       1.419  15.368  20.577  0.00  0.00    +0.000 OA
ATOM     16  C   UNL     1       0.529  14.346  20.618  0.00  0.00    +0.000 A 
ENDBRANCH  11  12
BRANCH   6  17
ATOM     17  C   UNL     1       1.952   7.376  20.226  0.00  0.00    +0.000 C 
BRANCH  17  18
ATOM     18  O   UNL     1       3.091   6.882  19.489  0.00  0.00    +0.000 OA
BRANCH  18  19
ATOM     19  C   UNL     1       2.983   5.628  18.974  0.00  0.00    +0.000 C 
ATOM     20  O   UNL     1       2.261   4.737  19.384  0.00  0.00    +0.000 OA
BRANCH  19  21
ATOM     21  C   UNL     1       3.910   5.443  17.816  0.00  0.00    +0.000 A 
ATOM     22  C   UNL     1       4.159   4.136  17.360  0.00  0.00    +0.000 A 
ATOM     23  C   UNL     1       5.022   3.905  16.281  0.00  0.00    +0.000 A 
ATOM     24  C   UNL     1       5.645   4.992  15.652  0.00  0.00    +0.000 A 
ATOM     25  C   UNL     1       5.406   6.299  16.097  0.00  0.00    +0.000 A 
ATOM     26  C   UNL     1       4.538   6.520  17.175  0.00  0.00    +0.000 A 
BRANCH  24  27
ATOM     27  N   UNL     1       6.550   4.756  14.518  0.00  0.00    +0.000 N 
ATOM     28  O   UNL     1       6.301   3.805  13.768  0.00  0.00    +0.000 OA
ATOM     29  O   UNL     1       7.510   5.533  14.380  0.00  0.00    +0.000 OA
ENDBRANCH  24  27
ENDBRANCH  19  21
ENDBRANCH  18  19
ENDBRANCH  17  18
ENDBRANCH   6  17
TORSDOF 6
ENDMDL
MODEL 8
REMARK VINA RESULT:      -7.9      5.286      8.423
REMARK  Name = 
REMARK  7 active torsions:
REMARK  status: ('A' for Active; 'I' for Inactive)
REMARK    1  A    between atoms: C_1  and  C_2
REMARK    2  A    between atoms: C_6  and  C_7
REMARK    3  A    between atoms: C_7  and  O_8
REMARK    4  A    between atoms: O_8  and  C_9
REMARK    5  A    between atoms: C_9  and  C_11
REMARK    6  A    between atoms: C_14  and  N_15
REMARK    7  A    between atoms: C_24  and  C_25
REMARK                            x       y       z     vdW  Elec       q    Type
REMARK                         _______ _______ _______ _____ _____    ______ ____
ROOT
ATOM      1  C   UNL     1       3.590   3.398  16.597  0.00  0.00    +0.000 C 
ATOM      2  C   UNL     1       4.229   4.492  17.499  0.00  0.00    +0.000 C 
ATOM      3  C   UNL     1       3.182   5.654  17.491  0.00  0.00    +0.000 C 
ATOM      4  C   UNL     1       3.726   7.057  17.218  0.00  0.00    +0.000 C 
ATOM      5  C   UNL     1       4.795   7.059  16.129  0.00  0.00    +0.000 C 
ATOM      6  C   UNL     1       5.936   6.186  16.570  0.00  0.00    +0.000 C 
ATOM      7  C   UNL     1       5.622   5.007  17.165  0.00  0.00    +0.000 C 
ATOM      8  C   UNL     1       6.601   4.413  18.109  0.00  0.00    +0.000 C 
ATOM      9  O   UNL     1       7.808   4.349  17.988  0.00  0.00    +0.000 OA
ATOM     10  O   UNL     1       5.903   4.074  19.216  0.00  0.00    +0.000 OA
ATOM     11  C   UNL     1       4.570   3.742  18.823  0.00  0.00    +0.000 C 
ENDROOT
BRANCH  11  12
ATOM     12  C   UNL     1       3.604   3.817  19.950  0.00  0.00    +0.000 A 
ATOM     13  C   UNL     1       3.086   2.760  20.748  0.00  0.00    +0.000 A 
ATOM     14  C   UNL     1       2.224   3.337  21.651  0.00  0.00    +0.000 A 
ATOM     15  O   UNL     1       2.145   4.675  21.440  0.00  0.00    +0.000 OA
ATOM     16  C   UNL     1       2.968   4.959  20.401  0.00  0.00    +0.000 A 
ENDBRANCH  11  12
BRANCH   6  17
ATOM     17  C   UNL     1       7.315   6.846  16.615  0.00  0.00    +0.000 C 
BRANCH  17  18
ATOM     18  O   UNL     1       7.273   8.098  17.334  0.00  0.00    +0.000 OA
BRANCH  18  19
ATOM     19  C   UNL     1       8.193   8.261  18.321  0.00  0.00    +0.000 C 
ATOM     20  O   UNL     1       8.649   7.388  19.037  0.00  0.00    +0.000 OA
BRANCH  19  21
ATOM     21  C   UNL     1       8.579   9.699  18.461  0.00  0.00    +0.000 A 
ATOM     22  C   UNL     1       9.325  10.085  19.590  0.00  0.00    +0.000 A 
ATOM     23  C   UNL     1       9.709  11.419  19.773  0.00  0.00    +0.000 A 
ATOM     24  C   UNL     1       9.344  12.379  18.819  0.00  0.00    +0.000 A 
ATOM     25  C   UNL     1       8.601  12.008  17.691  0.00  0.00    +0.000 A 
ATOM     26  C   UNL     1       8.223  10.669  17.514  0.00  0.00    +0.000 A 
BRANCH  24  27
ATOM     27  N   UNL     1       9.747  13.781  19.004  0.00  0.00    +0.000 N 
ATOM     28  O   UNL     1       9.145  14.448  19.852  0.00  0.00    +0.000 OA
ATOM     29  O   UNL     1      10.675  14.207  18.296  0.00  0.00    +0.000 OA
ENDBRANCH  24  27
ENDBRANCH  19  21
ENDBRANCH  18  19
ENDBRANCH  17  18
ENDBRANCH   6  17
TORSDOF 6
ENDMDL
MODEL 9
REMARK VINA RESULT:      -7.8      0.732      1.259
REMARK  Name = 
REMARK  7 active torsions:
REMARK  status: ('A' for Active; 'I' for Inactive)
REMARK    1  A    between atoms: C_1  and  C_2
REMARK    2  A    between atoms: C_6  and  C_7
REMARK    3  A    between atoms: C_7  and  O_8
REMARK    4  A    between atoms: O_8  and  C_9
REMARK    5  A    between atoms: C_9  and  C_11
REMARK    6  A    between atoms: C_14  and  N_15
REMARK    7  A    between atoms: C_24  and  C_25
REMARK                            x       y       z     vdW  Elec       q    Type
REMARK                         _______ _______ _______ _____ _____    ______ ____
ROOT
ATOM      1  C   UNL     1       0.905  12.278  20.985  0.00  0.00    +0.000 C 
ATOM      2  C   UNL     1       0.196  11.012  20.425  0.00  0.00    +0.000 C 
ATOM      3  C   UNL     1      -0.572  10.426  21.655  0.00  0.00    +0.000 C 
ATOM      4  C   UNL     1      -0.405   8.928  21.910  0.00  0.00    +0.000 C 
ATOM      5  C   UNL     1       1.031   8.461  21.681  0.00  0.00    +0.000 C 
ATOM      6  C   UNL     1       1.410   8.744  20.254  0.00  0.00    +0.000 C 
ATOM      7  C   UNL     1       1.029   9.940  19.737  0.00  0.00    +0.000 C 
ATOM      8  C   UNL     1       0.841  10.042  18.268  0.00  0.00    +0.000 C 
ATOM      9  O   UNL     1       1.540   9.571  17.393  0.00  0.00    +0.000 OA
ATOM     10  O   UNL     1      -0.352  10.650  18.080  0.00  0.00    +0.000 OA
ATOM     11  C   UNL     1      -0.584  11.533  19.179  0.00  0.00    +0.000 C 
ENDROOT
BRANCH  11  12
ATOM     12  C   UNL     1      -2.019  11.887  19.338  0.00  0.00    +0.000 A 
ATOM     13  C   UNL     1      -2.648  12.596  20.398  0.00  0.00    +0.000 A 
ATOM     14  C   UNL     1      -3.986  12.660  20.086  0.00  0.00    +0.000 A 
ATOM     15  O   UNL     1      -4.233  12.005  18.923  0.00  0.00    +0.000 OA
ATOM     16  C   UNL     1      -3.044  11.525  18.483  0.00  0.00    +0.000 A 
ENDBRANCH  11  12
BRANCH   6  17
ATOM     17  C   UNL     1       1.882   7.546  19.429  0.00  0.00    +0.000 C 
BRANCH  17  18
ATOM     18  O   UNL     1       2.391   6.494  20.277  0.00  0.00    +0.000 OA
BRANCH  18  19
ATOM     19  C   UNL     1       2.482   5.257  19.719  0.00  0.00    +0.000 C 
ATOM     20  O   UNL     1       1.725   4.322  19.905  0.00  0.00    +0.000 OA
BRANCH  19  21
ATOM     21  C   UNL     1       3.684   5.156  18.836  0.00  0.00    +0.000 A 
ATOM     22  C   UNL     1       4.848   4.560  19.355  0.00  0.00    +0.000 A 
ATOM     23  C   UNL     1       6.004   4.443  18.572  0.00  0.00    +0.000 A 
ATOM     24  C   UNL     1       5.998   4.928  17.258  0.00  0.00    +0.000 A 
ATOM     25  C   UNL     1       4.846   5.525  16.729  0.00  0.00    +0.000 A 
ATOM     26  C   UNL     1       3.693   5.634  17.518  0.00  0.00    +0.000 A 
BRANCH  24  27
ATOM     27  N   UNL     1       7.207   4.806  16.430  0.00  0.00    +0.000 N 
ATOM     28  O   UNL     1       7.172   5.265  15.284  0.00  0.00    +0.000 OA
ATOM     29  O   UNL     1       8.195   4.249  16.939  0.00  0.00    +0.000 OA
ENDBRANCH  24  27
ENDBRANCH  19  21
ENDBRANCH  18  19
ENDBRANCH  17  18
ENDBRANCH   6  17
TORSDOF 6
ENDMDL
