MODEL 1
REMARK VINA RESULT:      -7.7      0.000      0.000
REMARK  Name = 
REMARK  4 active torsions:
REMARK  status: ('A' for Active; 'I' for Inactive)
REMARK    1  A    between atoms: C_1  and  C_2
REMARK    2  A    between atoms: C_5  and  C_6
REMARK    3  A    between atoms: C_6  and  N_7
REMARK    4  A    between atoms: C_10  and  C_11
REMARK                            x       y       z     vdW  Elec       q    Type
REMARK                         _______ _______ _______ _____ _____    ______ ____
ROOT
ATOM      1  N   UNL     1       6.211   5.712  15.591  0.00  0.00    +0.000 NA
ATOM      2  C   UNL     1       5.635   6.662  16.555  0.00  0.00    +0.000 C 
ATOM      3  C   UNL     1       6.275   6.601  17.954  0.00  0.00    +0.000 C 
ATOM      4  C   UNL     1       6.246   5.175  18.541  0.00  0.00    +0.000 C 
ATOM      5  C   UNL     1       7.029   4.316  17.535  0.00  0.00    +0.000 C 
ATOM      6  C   UNL     1       6.439   4.359  16.127  0.00  0.00    +0.000 C 
ENDROOT
BRANCH   4   7
ATOM      7  C   UNL     1       4.779   4.770  18.829  0.00  0.00    +0.000 C 
ATOM      8  C   UNL     1       3.940   5.884  19.515  0.00  0.00    +0.000 C 
ATOM      9  C   UNL     1       2.806   5.404  20.458  0.00  0.00    +0.000 C 
ATOM     10  C   UNL     1       2.207   4.106  19.984  0.00  0.00    +0.000 A 
ATOM     11  C   UNL     1       0.835   3.849  20.019  0.00  0.00    +0.000 A 
ATOM     12  C   UNL     1       0.325   2.756  19.307  0.00  0.00    +0.000 A 
ATOM     13  C   UNL     1       1.178   1.933  18.565  0.00  0.00    +0.000 A 
ATOM     14  C   UNL     1       2.558   2.102  18.647  0.00  0.00    +0.000 A 
ATOM     15  C   UNL     1       3.042   3.145  19.428  0.00  0.00    +0.000 A 
ATOM     16  C   UNL     1       4.490   3.435  19.466  0.00  0.00    +0.000 C 
ATOM     17  O   UNL     1       5.286   2.634  19.924  0.00  0.00    +0.000 OA
ENDBRANCH   4   7
BRANCH   1  18
ATOM     18  C   UNL     1       5.366   5.591  14.377  0.00  0.00    +0.000 C 
BRANCH  18  23
ATOM     19  C   UNL     1       7.061   1.427  10.668  0.00  0.00    +0.000 C 
ATOM     20  C   UNL     1       6.606   2.539  11.566  0.00  0.00    +0.000 A 
ATOM     21  C   UNL     1       5.279   2.604  12.004  0.00  0.00    +0.000 A 
ATOM     22  C   UNL     1       4.876   3.592  12.904  0.00  0.00    +0.000 A 
ATOM     23  C   UNL     1       5.799   4.525  13.396  0.00  0.00    +0.000 A 
ATOM     24  C   UNL     1       7.123   4.470  12.941  0.00  0.00    +0.000 A 
ATOM     25  C   UNL     1       7.525   3.482  12.039  0.00  0.00    +0.000 A 
ENDBRANCH  18  23
ENDBRANCH   1  18
TORSDOF 3
ENDMDL
MODEL 2
REMARK VINA RESULT:      -7.2      9.497     12.623
REMARK  Name = 
REMARK  4 active torsions:
REMARK  status: ('A' for Active; 'I' for Inactive)
REMARK    1  A    between atoms: C_1  and  C_2
REMARK    2  A    between atoms: C_5  and  C_6
REMARK    3  A    between atoms: C_6  and  N_7
REMARK    4  A    between atoms: C_10  and  C_11
REMARK                            x       y       z     vdW  Elec       q    Type
REMARK                         _______ _______ _______ _____ _____    ______ ____
ROOT
ATOM      1  N   UNL     1      -1.689  11.254  17.808  0.00  0.00    +0.000 NA
ATOM      2  C   UNL     1      -0.964  12.497  18.110  0.00  0.00    +0.000 C 
ATOM      3  C   UNL     1       0.371  12.281  18.847  0.00  0.00    +0.000 C 
ATOM      4  C   UNL     1       0.192  11.451  20.135  0.00  0.00    +0.000 C 
ATOM      5  C   UNL     1      -0.405  10.114  19.665  0.00  0.00    +0.000 C 
ATOM      6  C   UNL     1      -1.724  10.281  18.913  0.00  0.00    +0.000 C 
ENDROOT
BRANCH   4   7
ATOM      7  C   UNL     1      -0.626  12.271  21.163  0.00  0.00    +0.000 C 
ATOM      8  C   UNL     1      -0.243  13.776  21.217  0.00  0.00    +0.000 C 
ATOM      9  C   UNL     1      -0.418  14.478  22.589  0.00  0.00    +0.000 C 
ATOM     10  C   UNL     1      -1.577  13.902  23.359  0.00  0.00    +0.000 A 
ATOM     11  C   UNL     1      -2.466  14.693  24.089  0.00  0.00    +0.000 A 
ATOM     12  C   UNL     1      -3.671  14.134  24.536  0.00  0.00    +0.000 A 
ATOM     13  C   UNL     1      -3.983  12.801  24.251  0.00  0.00    +0.000 A 
ATOM     14  C   UNL     1      -3.035  11.975  23.651  0.00  0.00    +0.000 A 
ATOM     15  C   UNL     1      -1.815  12.536  23.292  0.00  0.00    +0.000 A 
ATOM     16  C   UNL     1      -0.816  11.733  22.557  0.00  0.00    +0.000 C 
ATOM     17  O   UNL     1      -0.293  10.754  23.061  0.00  0.00    +0.000 OA
ENDBRANCH   4   7
BRANCH   1  18
ATOM     18  C   UNL     1      -3.086  11.529  17.390  0.00  0.00    +0.000 C 
BRANCH  18  23
ATOM     19  C   UNL     1      -6.807  12.364  21.798  0.00  0.00    +0.000 C 
ATOM     20  C   UNL     1      -5.879  12.206  20.631  0.00  0.00    +0.000 A 
ATOM     21  C   UNL     1      -4.647  12.870  20.604  0.00  0.00    +0.000 A 
ATOM     22  C   UNL     1      -3.750  12.658  19.556  0.00  0.00    +0.000 A 
ATOM     23  C   UNL     1      -4.061  11.765  18.523  0.00  0.00    +0.000 A 
ATOM     24  C   UNL     1      -5.303  11.116  18.541  0.00  0.00    +0.000 A 
ATOM     25  C   UNL     1      -6.202  11.330  19.589  0.00  0.00    +0.000 A 
ENDBRANCH  18  23
ENDBRANCH   1  18
TORSDOF 3
ENDMDL
MODEL 3
REMARK VINA RESULT:      -7.2     10.365     13.017
REMARK  Name = 
REMARK  4 active torsions:
REMARK  status: ('A' for Active; 'I' for Inactive)
REMARK    1  A    between atoms: C_1  and  C_2
REMARK    2  A    between atoms: C_5  and  C_6
REMARK    3  A    between atoms: C_6  and  N_7
REMARK    4  A    between atoms: C_10  and  C_11
REMARK                            x       y       z     vdW  Elec       q    Type
REMARK                         _______ _______ _______ _____ _____    ______ ____
ROOT
ATOM      1  N   UNL     1      -1.082  12.987  22.605  0.00  0.00    +0.000 NA
ATOM      2  C   UNL     1      -1.674  14.301  22.307  0.00  0.00    +0.000 C 
ATOM      3  C   UNL     1      -2.894  14.651  23.179  0.00  0.00    +0.000 C 
ATOM      4  C   UNL     1      -3.982  13.559  23.115  0.00  0.00    +0.000 C 
ATOM      5  C   UNL     1      -3.290  12.282  23.618  0.00  0.00    +0.000 C 
ATOM      6  C   UNL     1      -2.062  11.903  22.793  0.00  0.00    +0.000 C 
ENDROOT
BRANCH   4   7
ATOM      7  C   UNL     1      -4.589  13.523  21.691  0.00  0.00    +0.000 C 
ATOM      8  C   UNL     1      -4.839  14.930  21.077  0.00  0.00    +0.000 C 
ATOM      9  C   UNL     1      -6.027  15.042  20.086  0.00  0.00    +0.000 C 
ATOM     10  C   UNL     1      -6.220  13.766  19.310  0.00  0.00    +0.000 A 
ATOM     11  C   UNL     1      -6.526  13.749  17.947  0.00  0.00    +0.000 A 
ATOM     12  C   UNL     1      -6.408  12.548  17.235  0.00  0.00    +0.000 A 
ATOM     13  C   UNL     1      -5.984  11.380  17.877  0.00  0.00    +0.000 A 
ATOM     14  C   UNL     1      -5.819  11.365  19.260  0.00  0.00    +0.000 A 
ATOM     15  C   UNL     1      -6.023  12.552  19.955  0.00  0.00    +0.000 A 
ATOM     16  C   UNL     1      -5.759  12.618  21.407  0.00  0.00    +0.000 C 
ATOM     17  O   UNL     1      -6.411  11.962  22.201  0.00  0.00    +0.000 OA
ENDBRANCH   4   7
BRANCH   1  18
ATOM     18  C   UNL     1      -0.128  12.569  21.549  0.00  0.00    +0.000 C 
BRANCH  18  23
ATOM     19  C   UNL     1      -2.599   9.943  16.971  0.00  0.00    +0.000 C 
ATOM     20  C   UNL     1      -1.915  10.648  18.104  0.00  0.00    +0.000 A 
ATOM     21  C   UNL     1      -2.302  11.941  18.476  0.00  0.00    +0.000 A 
ATOM     22  C   UNL     1      -1.720  12.564  19.582  0.00  0.00    +0.000 A 
ATOM     23  C   UNL     1      -0.753  11.899  20.347  0.00  0.00    +0.000 A 
ATOM     24  C   UNL     1      -0.353  10.612  19.960  0.00  0.00    +0.000 A 
ATOM     25  C   UNL     1      -0.934   9.990  18.852  0.00  0.00    +0.000 A 
ENDBRANCH  18  23
ENDBRANCH   1  18
TORSDOF 3
ENDMDL
MODEL 4
REMARK VINA RESULT:      -7.1      2.880      5.830
REMARK  Name = 
REMARK  4 active torsions:
REMARK  status: ('A' for Active; 'I' for Inactive)
REMARK    1  A    between atoms: C_1  and  C_2
REMARK    2  A    between atoms: C_5  and  C_6
REMARK    3  A    between atoms: C_6  and  N_7
REMARK    4  A    between atoms: C_10  and  C_11
REMARK                            x       y       z     vdW  Elec       q    Type
REMARK                         _______ _______ _______ _____ _____    ______ ____
ROOT
ATOM      1  N   UNL     1       7.329   6.512  17.295  0.00  0.00    +0.000 NA
ATOM      2  C   UNL     1       7.336   5.041  17.316  0.00  0.00    +0.000 C 
ATOM      3  C   UNL     1       6.446   4.394  16.239  0.00  0.00    +0.000 C 
ATOM      4  C   UNL     1       4.995   4.913  16.302  0.00  0.00    +0.000 C 
ATOM      5  C   UNL     1       5.107   6.431  16.089  0.00  0.00    +0.000 C 
ATOM      6  C   UNL     1       5.996   7.115  17.126  0.00  0.00    +0.000 C 
ENDROOT
BRANCH   4   7
ATOM      7  C   UNL     1       4.334   4.427  17.616  0.00  0.00    +0.000 C 
ATOM      8  C   UNL     1       5.321   3.742  18.602  0.00  0.00    +0.000 C 
ATOM      9  C   UNL     1       4.722   2.640  19.514  0.00  0.00    +0.000 C 
ATOM     10  C   UNL     1       3.288   2.935  19.866  0.00  0.00    +0.000 A 
ATOM     11  C   UNL     1       2.765   2.722  21.144  0.00  0.00    +0.000 A 
ATOM     12  C   UNL     1       1.523   3.280  21.475  0.00  0.00    +0.000 A 
ATOM     13  C   UNL     1       0.817   4.045  20.542  0.00  0.00    +0.000 A 
ATOM     14  C   UNL     1       1.269   4.135  19.228  0.00  0.00    +0.000 A 
ATOM     15  C   UNL     1       2.463   3.502  18.904  0.00  0.00    +0.000 A 
ATOM     16  C   UNL     1       3.042   3.655  17.553  0.00  0.00    +0.000 C 
ATOM     17  O   UNL     1       2.470   3.227  16.565  0.00  0.00    +0.000 OA
ENDBRANCH   4   7
BRANCH   1  18
ATOM     18  C   UNL     1       7.939   7.075  18.525  0.00  0.00    +0.000 C 
BRANCH  18  23
ATOM     19  C   UNL     1       9.445  12.695  18.172  0.00  0.00    +0.000 C 
ATOM     20  C   UNL     1       8.999  11.269  18.301  0.00  0.00    +0.000 A 
ATOM     21  C   UNL     1       8.137  10.703  17.355  0.00  0.00    +0.000 A 
ATOM     22  C   UNL     1       7.789   9.353  17.431  0.00  0.00    +0.000 A 
ATOM     23  C   UNL     1       8.310   8.539  18.446  0.00  0.00    +0.000 A 
ATOM     24  C   UNL     1       9.157   9.113  19.403  0.00  0.00    +0.000 A 
ATOM     25  C   UNL     1       9.504  10.464  19.328  0.00  0.00    +0.000 A 
ENDBRANCH  18  23
ENDBRANCH   1  18
TORSDOF 3
ENDMDL
MODEL 5
REMARK VINA RESULT:      -7.1      3.748      6.675
REMARK  Name = 
REMARK  4 active torsions:
REMARK  status: ('A' for Active; 'I' for Inactive)
REMARK    1  A    between atoms: C_1  and  C_2
REMARK    2  A    between atoms: C_5  and  C_6
REMARK    3  A    between atoms: C_6  and  N_7
REMARK    4  A    between atoms: C_10  and  C_11
REMARK                            x       y       z     vdW  Elec       q    Type
REMARK                         _______ _______ _______ _____ _____    ______ ____
ROOT
ATOM      1  N   UNL     1       8.003   7.764  17.677  0.00  0.00    +0.000 NA
ATOM      2  C   UNL     1       8.047   6.971  18.916  0.00  0.00    +0.000 C 
ATOM      3  C   UNL     1       8.055   5.449  18.685  0.00  0.00    +0.000 C 
ATOM      4  C   UNL     1       6.869   4.991  17.811  0.00  0.00    +0.000 C 
ATOM      5  C   UNL     1       7.037   5.753  16.486  0.00  0.00    +0.000 C 
ATOM      6  C   UNL     1       7.052   7.269  16.667  0.00  0.00    +0.000 C 
ENDROOT
BRANCH   4   7
ATOM      7  C   UNL     1       5.547   5.204  18.590  0.00  0.00    +0.000 C 
ATOM      8  C   UNL     1       5.193   4.042  19.560  0.00  0.00    +0.000 C 
ATOM      9  C   UNL     1       3.683   3.786  19.799  0.00  0.00    +0.000 C 
ATOM     10  C   UNL     1       2.889   5.064  19.732  0.00  0.00    +0.000 A 
ATOM     11  C   UNL     1       1.847   5.354  20.614  0.00  0.00    +0.000 A 
ATOM     12  C   UNL     1       1.350   6.662  20.681  0.00  0.00    +0.000 A 
ATOM     13  C   UNL     1       1.894   7.669  19.877  0.00  0.00    +0.000 A 
ATOM     14  C   UNL     1       2.831   7.350  18.898  0.00  0.00    +0.000 A 
ATOM     15  C   UNL     1       3.247   6.027  18.797  0.00  0.00    +0.000 A 
ATOM     16  C   UNL     1       4.315   5.654  17.848  0.00  0.00    +0.000 C 
ATOM     17  O   UNL     1       4.163   5.767  16.644  0.00  0.00    +0.000 OA
ENDBRANCH   4   7
BRANCH   1  18
ATOM     18  C   UNL     1       7.685   9.186  17.954  0.00  0.00    +0.000 C 
BRANCH  18  23
ATOM     19  C   UNL     1      12.227  12.344  19.790  0.00  0.00    +0.000 C 
ATOM     20  C   UNL     1      11.019  11.591  19.318  0.00  0.00    +0.000 A 
ATOM     21  C   UNL     1      10.747  11.463  17.951  0.00  0.00    +0.000 A 
ATOM     22  C   UNL     1       9.668  10.694  17.511  0.00  0.00    +0.000 A 
ATOM     23  C   UNL     1       8.849  10.026  18.430  0.00  0.00    +0.000 A 
ATOM     24  C   UNL     1       9.111  10.171  19.799  0.00  0.00    +0.000 A 
ATOM     25  C   UNL     1      10.189  10.942  20.239  0.00  0.00    +0.000 A 
ENDBRANCH  18  23
ENDBRANCH   1  18
TORSDOF 3
ENDMDL
MODEL 6
REMARK VINA RESULT:      -7.1     10.935     13.785
REMARK  Name = 
REMARK  4 active torsions:
REMARK  status: ('A' for Active; 'I' for Inactive)
REMARK    1  A    between atoms: C_1  and  C_2
REMARK    2  A    between atoms: C_5  and  C_6
REMARK    3  A    between atoms: C_6  and  N_7
REMARK    4  A    between atoms: C_10  and  C_11
REMARK                            x       y       z     vdW  Elec       q    Type
REMARK                         _______ _______ _______ _____ _____    ______ ____
ROOT
ATOM      1  N   UNL     1      -2.104  13.372  23.320  0.00  0.00    +0.000 NA
ATOM      2  C   UNL     1      -2.883  14.581  23.014  0.00  0.00    +0.000 C 
ATOM      3  C   UNL     1      -4.181  14.714  23.832  0.00  0.00    +0.000 C 
ATOM      4  C   UNL     1      -5.077  13.466  23.700  0.00  0.00    +0.000 C 
ATOM      5  C   UNL     1      -4.214  12.303  24.216  0.00  0.00    +0.000 C 
ATOM      6  C   UNL     1      -2.907  12.142  23.444  0.00  0.00    +0.000 C 
ENDROOT
BRANCH   4   7
ATOM      7  C   UNL     1      -5.608  13.367  22.248  0.00  0.00    +0.000 C 
ATOM      8  C   UNL     1      -5.958  14.740  21.610  0.00  0.00    +0.000 C 
ATOM      9  C   UNL     1      -7.100  14.736  20.562  0.00  0.00    +0.000 C 
ATOM     10  C   UNL     1      -7.134  13.444  19.788  0.00  0.00    +0.000 A 
ATOM     11  C   UNL     1      -7.370  13.392  18.413  0.00  0.00    +0.000 A 
ATOM     12  C   UNL     1      -7.105  12.205  17.718  0.00  0.00    +0.000 A 
ATOM     13  C   UNL     1      -6.606  11.085  18.391  0.00  0.00    +0.000 A 
ATOM     14  C   UNL     1      -6.509  11.091  19.780  0.00  0.00    +0.000 A 
ATOM     15  C   UNL     1      -6.857  12.257  20.454  0.00  0.00    +0.000 A 
ATOM     16  C   UNL     1      -6.672  12.353  21.916  0.00  0.00    +0.000 C 
ATOM     17  O   UNL     1      -7.298  11.643  22.684  0.00  0.00    +0.000 OA
ENDBRANCH   4   7
BRANCH   1  18
ATOM     18  C   UNL     1      -1.049  13.134  22.304  0.00  0.00    +0.000 C 
BRANCH  18  23
ATOM     19  C   UNL     1      -2.875  10.321  17.536  0.00  0.00    +0.000 C 
ATOM     20  C   UNL     1      -2.368  11.090  18.720  0.00  0.00    +0.000 A 
ATOM     21  C   UNL     1      -3.074  12.195  19.208  0.00  0.00    +0.000 A 
ATOM     22  C   UNL     1      -2.645  12.860  20.359  0.00  0.00    +0.000 A 
ATOM     23  C   UNL     1      -1.511  12.420  21.053  0.00  0.00    +0.000 A 
ATOM     24  C   UNL     1      -0.794  11.324  20.552  0.00  0.00    +0.000 A 
ATOM     25  C   UNL     1      -1.223  10.661  19.400  0.00  0.00    +0.000 A 
ENDBRANCH  18  23
ENDBRANCH   1  18
TORSDOF 3
ENDMDL
MODEL 7
REMARK VINA RESULT:      -7.0      2.822      5.844
REMARK  Name = 
REMARK  4 active torsions:
REMARK  status: ('A' for Active; 'I' for Inactive)
REMARK    1  A    between atoms: C_1  and  C_2
REMARK    2  A    between atoms: C_5  and  C_6
REMARK    3  A    between atoms: C_6  and  N_7
REMARK    4  A    between atoms: C_10  and  C_11
REMARK                            x       y       z     vdW  Elec       q    Type
REMARK                         _______ _______ _______ _____ _____    ______ ____
ROOT
ATOM      1  N   UNL     1       7.190   6.254  17.163  0.00  0.00    +0.000 NA
ATOM      2  C   UNL     1       7.210   4.785  17.093  0.00  0.00    +0.000 C 
ATOM      3  C   UNL     1       6.320   4.199  15.981  0.00  0.00    +0.000 C 
ATOM      4  C   UNL     1       4.865   4.700  16.081  0.00  0.00    +0.000 C 
ATOM      5  C   UNL     1       4.964   6.230  15.962  0.00  0.00    +0.000 C 
ATOM      6  C   UNL     1       5.851   6.856  17.036  0.00  0.00    +0.000 C 
ENDROOT
BRANCH   4   7
ATOM      7  C   UNL     1       4.213   4.129  17.364  0.00  0.00    +0.000 C 
ATOM      8  C   UNL     1       4.200   2.575  17.426  0.00  0.00    +0.000 C 
ATOM      9  C   UNL     1       3.018   1.932  18.199  0.00  0.00    +0.000 C 
ATOM     10  C   UNL     1       2.573   2.800  19.347  0.00  0.00    +0.000 A 
ATOM     11  C   UNL     1       2.222   2.280  20.594  0.00  0.00    +0.000 A 
ATOM     12  C   UNL     1       2.098   3.149  21.686  0.00  0.00    +0.000 A 
ATOM     13  C   UNL     1       2.327   4.520  21.532  0.00  0.00    +0.000 A 
ATOM     14  C   UNL     1       2.533   5.054  20.263  0.00  0.00    +0.000 A 
ATOM     15  C   UNL     1       2.570   4.178  19.184  0.00  0.00    +0.000 A 
ATOM     16  C   UNL     1       2.891   4.679  17.831  0.00  0.00    +0.000 C 
ATOM     17  O   UNL     1       2.159   5.465  17.255  0.00  0.00    +0.000 OA
ENDBRANCH   4   7
BRANCH   1  18
ATOM     18  C   UNL     1       7.800   6.746  18.423  0.00  0.00    +0.000 C 
BRANCH  18  23
ATOM     19  C   UNL     1       9.489  12.324  18.334  0.00  0.00    +0.000 C 
ATOM     20  C   UNL     1       8.995  10.909  18.391  0.00  0.00    +0.000 A 
ATOM     21  C   UNL     1       8.183  10.395  17.374  0.00  0.00    +0.000 A 
ATOM     22  C   UNL     1       7.791   9.055  17.388  0.00  0.00    +0.000 A 
ATOM     23  C   UNL     1       8.218   8.200  18.411  0.00  0.00    +0.000 A 
ATOM     24  C   UNL     1       9.014   8.721  19.440  0.00  0.00    +0.000 A 
ATOM     25  C   UNL     1       9.404  10.062  19.427  0.00  0.00    +0.000 A 
ENDBRANCH  18  23
ENDBRANCH   1  18
TORSDOF 3
ENDMDL
MODEL 8
REMARK VINA RESULT:      -6.9      3.001      5.426
REMARK  Name = 
REMARK  4 active torsions:
REMARK  status: ('A' for Active; 'I' for Inactive)
REMARK    1  A    between atoms: C_1  and  C_2
REMARK    2  A    between atoms: C_5  and  C_6
REMARK    3  A    between atoms: C_6  and  N_7
REMARK    4  A    between atoms: C_10  and  C_11
REMARK                            x       y       z     vdW  Elec       q    Type
REMARK                         _______ _______ _______ _____ _____    ______ ____
ROOT
ATOM      1  N   UNL     1       4.013   3.007  17.605  0.00  0.00    +0.000 NA
ATOM      2  C   UNL     1       4.273   3.633  18.911  0.00  0.00    +0.000 C 
ATOM      3  C   UNL     1       3.231   3.285  19.991  0.00  0.00    +0.000 C 
ATOM      4  C   UNL     1       1.794   3.606  19.532  0.00  0.00    +0.000 C 
ATOM      5  C   UNL     1       1.584   2.758  18.266  0.00  0.00    +0.000 C 
ATOM      6  C   UNL     1       2.605   3.058  17.172  0.00  0.00    +0.000 C 
ENDROOT
BRANCH   4   7
ATOM      7  C   UNL     1       1.631   5.140  19.395  0.00  0.00    +0.000 C 
ATOM      8  C   UNL     1       2.159   5.711  18.049  0.00  0.00    +0.000 C 
ATOM      9  C   UNL     1       2.708   7.161  18.090  0.00  0.00    +0.000 C 
ATOM     10  C   UNL     1       1.972   8.001  19.102  0.00  0.00    +0.000 A 
ATOM     11  C   UNL     1       1.607   9.327  18.861  0.00  0.00    +0.000 A 
ATOM     12  C   UNL     1       0.686   9.948  19.715  0.00  0.00    +0.000 A 
ATOM     13  C   UNL     1       0.135   9.249  20.794  0.00  0.00    +0.000 A 
ATOM     14  C   UNL     1       0.608   7.980  21.117  0.00  0.00    +0.000 A 
ATOM     15  C   UNL     1       1.583   7.418  20.300  0.00  0.00    +0.000 A 
ATOM     16  C   UNL     1       2.041   6.034  20.535  0.00  0.00    +0.000 C 
ATOM     17  O   UNL     1       2.626   5.724  21.559  0.00  0.00    +0.000 OA
ENDBRANCH   4   7
BRANCH   1  18
ATOM     18  C   UNL     1       4.847   3.612  16.538  0.00  0.00    +0.000 C 
BRANCH  18  23
ATOM     19  C   UNL     1       8.225   8.009  18.333  0.00  0.00    +0.000 C 
ATOM     20  C   UNL     1       7.402   6.867  17.817  0.00  0.00    +0.000 A 
ATOM     21  C   UNL     1       7.656   5.557  18.237  0.00  0.00    +0.000 A 
ATOM     22  C   UNL     1       6.838   4.506  17.819  0.00  0.00    +0.000 A 
ATOM     23  C   UNL     1       5.739   4.749  16.985  0.00  0.00    +0.000 A 
ATOM     24  C   UNL     1       5.498   6.059  16.549  0.00  0.00    +0.000 A 
ATOM     25  C   UNL     1       6.318   7.110  16.966  0.00  0.00    +0.000 A 
ENDBRANCH  18  23
ENDBRANCH   1  18
TORSDOF 3
ENDMDL
MODEL 9
REMARK VINA RESULT:      -6.9      9.422     12.625
REMARK  Name = 
REMARK  4 active torsions:
REMARK  status: ('A' for Active; 'I' for Inactive)
REMARK    1  A    between atoms: C_1  and  C_2
REMARK    2  A    between atoms: C_5  and  C_6
REMARK    3  A    between atoms: C_6  and  N_7
REMARK    4  A    between atoms: C_10  and  C_11
REMARK                            x       y       z     vdW  Elec       q    Type
REMARK                         _______ _______ _______ _____ _____    ______ ____
ROOT
ATOM      1  N   UNL     1      -4.974  13.990  21.936  0.00  0.00    +0.000 NA
ATOM      2  C   UNL     1      -4.738  12.701  22.604  0.00  0.00    +0.000 C 
ATOM      3  C   UNL     1      -3.838  12.796  23.850  0.00  0.00    +0.000 C 
ATOM      4  C   UNL     1      -2.491  13.480  23.539  0.00  0.00    +0.000 C 
ATOM      5  C   UNL     1      -2.867  14.877  23.019  0.00  0.00    +0.000 C 
ATOM      6  C   UNL     1      -3.774  14.833  21.791  0.00  0.00    +0.000 C 
ENDROOT
BRANCH   4   7
ATOM      7  C   UNL     1      -1.661  12.572  22.597  0.00  0.00    +0.000 C 
ATOM      8  C   UNL     1      -1.610  11.083  23.041  0.00  0.00    +0.000 C 
ATOM      9  C   UNL     1      -0.324  10.302  22.667  0.00  0.00    +0.000 C 
ATOM     10  C   UNL     1       0.257  10.786  21.364  0.00  0.00    +0.000 A 
ATOM     11  C   UNL     1       0.783   9.921  20.403  0.00  0.00    +0.000 A 
ATOM     12  C   UNL     1       1.037  10.405  19.113  0.00  0.00    +0.000 A 
ATOM     13  C   UNL     1       0.764  11.738  18.789  0.00  0.00    +0.000 A 
ATOM     14  C   UNL     1       0.378  12.633  19.783  0.00  0.00    +0.000 A 
ATOM     15  C   UNL     1       0.212  12.143  21.074  0.00  0.00    +0.000 A 
ATOM     16  C   UNL     1      -0.298  13.026  22.143  0.00  0.00    +0.000 C 
ATOM     17  O   UNL     1       0.334  13.997  22.521  0.00  0.00    +0.000 OA
ENDBRANCH   4   7
BRANCH   1  18
ATOM     18  C   UNL     1      -5.572  13.803  20.591  0.00  0.00    +0.000 C 
BRANCH  18  23
ATOM     19  C   UNL     1      -2.997   9.826  17.196  0.00  0.00    +0.000 C 
ATOM     20  C   UNL     1      -3.655  10.803  18.124  0.00  0.00    +0.000 A 
ATOM     21  C   UNL     1      -2.888  11.705  18.871  0.00  0.00    +0.000 A 
ATOM     22  C   UNL     1      -3.505  12.668  19.672  0.00  0.00    +0.000 A 
ATOM     23  C   UNL     1      -4.902  12.756  19.729  0.00  0.00    +0.000 A 
ATOM     24  C   UNL     1      -5.668  11.839  18.996  0.00  0.00    +0.000 A 
ATOM     25  C   UNL     1      -5.050  10.876  18.196  0.00  0.00    +0.000 A 
ENDBRANCH  18  23
ENDBRANCH   1  18
TORSDOF 3
ENDMDL
