MODEL 1
REMARK VINA RESULT:      -7.3      0.000      0.000
REMARK  Name = 
REMARK  15 active torsions:
REMARK  status: ('A' for Active; 'I' for Inactive)
REMARK    1  A    between atoms: C_1  and  O_2
REMARK    2  A    between atoms: O_2  and  C_3
REMARK    3  A    between atoms: C_3  and  C_4
REMARK    4  A    between atoms: C_4  and  C_5
REMARK    5  A    between atoms: C_4  and  C_8
REMARK    6  A    between atoms: C_5  and  C_6
REMARK    7  A    between atoms: C_5  and  C_7
REMARK    8  A    between atoms: C_8  and  C_9
REMARK    9  A    between atoms: C_8  and  C_18
REMARK   10  A    between atoms: C_12  and  O_13
REMARK   11  A    between atoms: C_14  and  O_15
REMARK   12  A    between atoms: O_15  and  C_16
REMARK   13  A    between atoms: C_21  and  O_22
REMARK   14  A    between atoms: C_23  and  O_24
REMARK   15  A    between atoms: O_24  and  C_25
REMARK                            x       y       z     vdW  Elec       q    Type
REMARK                         _______ _______ _______ _____ _____    ______ ____
ROOT
ATOM      1  C   UNL     1       3.915   5.417  18.880  0.00  0.00    +0.000 C 
ENDROOT
BRANCH   1   2
ATOM      2  C   UNL     1       4.855   5.441  17.665  0.00  0.00    +0.000 A 
ATOM      3  C   UNL     1       4.701   4.509  16.631  0.00  0.00    +0.000 A 
ATOM      4  C   UNL     1       5.632   4.451  15.585  0.00  0.00    +0.000 A 
ATOM      5  C   UNL     1       6.726   5.327  15.550  0.00  0.00    +0.000 A 
ATOM      6  C   UNL     1       6.895   6.273  16.558  0.00  0.00    +0.000 A 
ATOM      7  C   UNL     1       5.970   6.298  17.611  0.00  0.00    +0.000 A 
BRANCH   5   8
ATOM      8  O   UNL     1       7.626   5.208  14.526  0.00  0.00    +0.000 OA
ATOM      9  H   UNL     1       8.258   5.945  14.576  0.00  0.00    +0.000 HD
ENDBRANCH   5   8
BRANCH   6  10
ATOM     10  O   UNL     1       7.878   7.209  16.707  0.00  0.00    +0.000 OA
ATOM     11  C   UNL     1       7.819   8.076  17.828  0.00  0.00    +0.000 C 
ENDBRANCH   6  10
ENDBRANCH   1   2
BRANCH   1  12
ATOM     12  C   UNL     1       3.050   6.708  18.935  0.00  0.00    +0.000 A 
ATOM     13  C   UNL     1       2.875   7.510  17.790  0.00  0.00    +0.000 A 
ATOM     14  C   UNL     1       2.054   8.637  17.800  0.00  0.00    +0.000 A 
ATOM     15  C   UNL     1       1.414   9.027  18.972  0.00  0.00    +0.000 A 
ATOM     16  C   UNL     1       1.614   8.302  20.149  0.00  0.00    +0.000 A 
ATOM     17  C   UNL     1       2.444   7.163  20.119  0.00  0.00    +0.000 A 
BRANCH  15  18
ATOM     18  O   UNL     1       0.613  10.133  18.927  0.00  0.00    +0.000 OA
ATOM     19  H   UNL     1       0.086  10.106  18.111  0.00  0.00    +0.000 HD
ENDBRANCH  15  18
BRANCH  16  20
ATOM     20  O   UNL     1       1.087   8.546  21.390  0.00  0.00    +0.000 OA
ATOM     21  C   UNL     1      -0.314   8.385  21.560  0.00  0.00    +0.000 C 
ENDBRANCH  16  20
ENDBRANCH   1  12
BRANCH   1  22
ATOM     22  C   UNL     1       3.127   4.051  19.057  0.00  0.00    +0.000 C 
BRANCH  22  23
ATOM     23  C   UNL     1       1.568   4.086  18.853  0.00  0.00    +0.000 C 
ATOM     24  C   UNL     1       1.077   4.070  17.403  0.00  0.00    +0.000 C 
ATOM     25  C   UNL     1       0.831   3.024  19.674  0.00  0.00    +0.000 C 
ENDBRANCH  22  23
BRANCH  22  26
ATOM     26  C   UNL     1       3.499   3.313  20.361  0.00  0.00    +0.000 C 
BRANCH  26  28
ATOM     27  C   UNL     1       4.208   1.521  19.020  0.00  0.00    +0.000 C 
ATOM     28  O   UNL     1       4.536   2.358  20.123  0.00  0.00    +0.000 OA
ENDBRANCH  26  28
ENDBRANCH  22  26
ENDBRANCH   1  22
TORSDOF 10
ENDMDL
MODEL 2
REMARK VINA RESULT:      -7.0      1.058      1.828
REMARK  Name = 
REMARK  15 active torsions:
REMARK  status: ('A' for Active; 'I' for Inactive)
REMARK    1  A    between atoms: C_1  and  O_2
REMARK    2  A    between atoms: O_2  and  C_3
REMARK    3  A    between atoms: C_3  and  C_4
REMARK    4  A    between atoms: C_4  and  C_5
REMARK    5  A    between atoms: C_4  and  C_8
REMARK    6  A    between atoms: C_5  and  C_6
REMARK    7  A    between atoms: C_5  and  C_7
REMARK    8  A    between atoms: C_8  and  C_9
REMARK    9  A    between atoms: C_8  and  C_18
REMARK   10  A    between atoms: C_12  and  O_13
REMARK   11  A    between atoms: C_14  and  O_15
REMARK   12  A    between atoms: O_15  and  C_16
REMARK   13  A    between atoms: C_21  and  O_22
REMARK   14  A    between atoms: C_23  and  O_24
REMARK   15  A    between atoms: O_24  and  C_25
REMARK                            x       y       z     vdW  Elec       q    Type
REMARK                         _______ _______ _______ _____ _____    ______ ____
ROOT
ATOM      1  C   UNL     1       3.885   5.435  19.016  0.00  0.00    +0.000 C 
ENDROOT
BRANCH   1   2
ATOM      2  C   UNL     1       4.799   5.458  17.781  0.00  0.00    +0.000 A 
ATOM      3  C   UNL     1       4.539   4.617  16.692  0.00  0.00    +0.000 A 
ATOM      4  C   UNL     1       5.439   4.546  15.620  0.00  0.00    +0.000 A 
ATOM      5  C   UNL     1       6.608   5.321  15.615  0.00  0.00    +0.000 A 
ATOM      6  C   UNL     1       6.883   6.176  16.679  0.00  0.00    +0.000 A 
ATOM      7  C   UNL     1       5.986   6.213  17.755  0.00  0.00    +0.000 A 
BRANCH   5   8
ATOM      8  O   UNL     1       7.473   5.191  14.562  0.00  0.00    +0.000 OA
ATOM      9  H   UNL     1       6.960   5.148  13.738  0.00  0.00    +0.000 HD
ENDBRANCH   5   8
BRANCH   6  10
ATOM     10  O   UNL     1       7.951   7.008  16.863  0.00  0.00    +0.000 OA
ATOM     11  C   UNL     1       7.759   8.192  17.620  0.00  0.00    +0.000 C 
ENDBRANCH   6  10
ENDBRANCH   1   2
BRANCH   1  12
ATOM     12  C   UNL     1       2.971   6.694  19.050  0.00  0.00    +0.000 A 
ATOM     13  C   UNL     1       2.868   7.542  17.931  0.00  0.00    +0.000 A 
ATOM     14  C   UNL     1       2.009   8.641  17.917  0.00  0.00    +0.000 A 
ATOM     15  C   UNL     1       1.255   8.953  19.044  0.00  0.00    +0.000 A 
ATOM     16  C   UNL     1       1.377   8.180  20.201  0.00  0.00    +0.000 A 
ATOM     17  C   UNL     1       2.247   7.072  20.195  0.00  0.00    +0.000 A 
BRANCH  15  18
ATOM     18  O   UNL     1       0.421  10.034  18.976  0.00  0.00    +0.000 OA
ATOM     19  H   UNL     1       0.414  10.369  18.065  0.00  0.00    +0.000 HD
ENDBRANCH  15  18
BRANCH  16  20
ATOM     20  O   UNL     1       0.735   8.348  21.399  0.00  0.00    +0.000 OA
ATOM     21  C   UNL     1       1.307   9.247  22.339  0.00  0.00    +0.000 C 
ENDBRANCH  16  20
ENDBRANCH   1  12
BRANCH   1  22
ATOM     22  C   UNL     1       3.154   4.047  19.251  0.00  0.00    +0.000 C 
BRANCH  22  23
ATOM     23  C   UNL     1       3.995   2.739  19.014  0.00  0.00    +0.000 C 
ATOM     24  C   UNL     1       4.628   2.110  20.258  0.00  0.00    +0.000 C 
ATOM     25  C   UNL     1       3.239   1.678  18.208  0.00  0.00    +0.000 C 
ENDBRANCH  22  23
BRANCH  22  26
ATOM     26  C   UNL     1       1.787   3.964  18.538  0.00  0.00    +0.000 C 
BRANCH  26  28
ATOM     27  C   UNL     1       1.213   3.508  20.768  0.00  0.00    +0.000 C 
ATOM     28  O   UNL     1       0.722   3.898  19.490  0.00  0.00    +0.000 OA
ENDBRANCH  26  28
ENDBRANCH  22  26
ENDBRANCH   1  22
TORSDOF 10
ENDMDL
MODEL 3
REMARK VINA RESULT:      -7.0      1.135      1.159
REMARK  Name = 
REMARK  15 active torsions:
REMARK  status: ('A' for Active; 'I' for Inactive)
REMARK    1  A    between atoms: C_1  and  O_2
REMARK    2  A    between atoms: O_2  and  C_3
REMARK    3  A    between atoms: C_3  and  C_4
REMARK    4  A    between atoms: C_4  and  C_5
REMARK    5  A    between atoms: C_4  and  C_8
REMARK    6  A    between atoms: C_5  and  C_6
REMARK    7  A    between atoms: C_5  and  C_7
REMARK    8  A    between atoms: C_8  and  C_9
REMARK    9  A    between atoms: C_8  and  C_18
REMARK   10  A    between atoms: C_12  and  O_13
REMARK   11  A    between atoms: C_14  and  O_15
REMARK   12  A    between atoms: O_15  and  C_16
REMARK   13  A    between atoms: C_21  and  O_22
REMARK   14  A    between atoms: C_23  and  O_24
REMARK   15  A    between atoms: O_24  and  C_25
REMARK                            x       y       z     vdW  Elec       q    Type
REMARK                         _______ _______ _______ _____ _____    ______ ____
ROOT
ATOM      1  C   UNL     1       3.507   5.473  19.684  0.00  0.00    +0.000 C 
ENDROOT
BRANCH   1   2
ATOM      2  C   UNL     1       4.645   5.291  18.667  0.00  0.00    +0.000 A 
ATOM      3  C   UNL     1       4.581   4.276  17.706  0.00  0.00    +0.000 A 
ATOM      4  C   UNL     1       5.671   4.030  16.860  0.00  0.00    +0.000 A 
ATOM      5  C   UNL     1       6.838   4.801  16.955  0.00  0.00    +0.000 A 
ATOM      6  C   UNL     1       6.923   5.826  17.893  0.00  0.00    +0.000 A 
ATOM      7  C   UNL     1       5.835   6.039  18.749  0.00  0.00    +0.000 A 
BRANCH   5   8
ATOM      8  O   UNL     1       7.888   4.500  16.130  0.00  0.00    +0.000 OA
ATOM      9  H   UNL     1       8.631   4.183  16.670  0.00  0.00    +0.000 HD
ENDBRANCH   5   8
BRANCH   6  10
ATOM     10  O   UNL     1       7.956   6.685  18.142  0.00  0.00    +0.000 OA
ATOM     11  C   UNL     1       7.836   8.028  17.703  0.00  0.00    +0.000 C 
ENDBRANCH   6  10
ENDBRANCH   1   2
BRANCH   1  12
ATOM     12  C   UNL     1       2.720   6.785  19.404  0.00  0.00    +0.000 A 
ATOM     13  C   UNL     1       2.799   7.421  18.149  0.00  0.00    +0.000 A 
ATOM     14  C   UNL     1       2.055   8.563  17.856  0.00  0.00    +0.000 A 
ATOM     15  C   UNL     1       1.237   9.134  18.826  0.00  0.00    +0.000 A 
ATOM     16  C   UNL     1       1.180   8.577  20.105  0.00  0.00    +0.000 A 
ATOM     17  C   UNL     1       1.937   7.422  20.383  0.00  0.00    +0.000 A 
BRANCH  15  18
ATOM     18  O   UNL     1       0.520  10.247  18.484  0.00  0.00    +0.000 OA
ATOM     19  H   UNL     1       0.587  10.382  17.525  0.00  0.00    +0.000 HD
ENDBRANCH  15  18
BRANCH  16  20
ATOM     20  O   UNL     1       0.454   9.011  21.183  0.00  0.00    +0.000 OA
ATOM     21  C   UNL     1       1.155   9.291  22.387  0.00  0.00    +0.000 C 
ENDBRANCH  16  20
ENDBRANCH   1  12
BRANCH   1  22
ATOM     22  C   UNL     1       2.624   4.173  19.901  0.00  0.00    +0.000 C 
BRANCH  22  23
ATOM     23  C   UNL     1       1.297   4.054  19.066  0.00  0.00    +0.000 C 
ATOM     24  C   UNL     1       1.441   4.193  17.548  0.00  0.00    +0.000 C 
ATOM     25  C   UNL     1       0.483   2.803  19.410  0.00  0.00    +0.000 C 
ENDBRANCH  22  23
BRANCH  22  26
ATOM     26  C   UNL     1       2.370   3.868  21.393  0.00  0.00    +0.000 C 
BRANCH  26  28
ATOM     27  C   UNL     1       3.927   2.213  20.803  0.00  0.00    +0.000 C 
ATOM     28  O   UNL     1       2.954   2.615  21.760  0.00  0.00    +0.000 OA
ENDBRANCH  26  28
ENDBRANCH  22  26
ENDBRANCH   1  22
TORSDOF 10
ENDMDL
MODEL 4
REMARK VINA RESULT:      -6.9      1.256      5.666
REMARK  Name = 
REMARK  15 active torsions:
REMARK  status: ('A' for Active; 'I' for Inactive)
REMARK    1  A    between atoms: C_1  and  O_2
REMARK    2  A    between atoms: O_2  and  C_3
REMARK    3  A    between atoms: C_3  and  C_4
REMARK    4  A    between atoms: C_4  and  C_5
REMARK    5  A    between atoms: C_4  and  C_8
REMARK    6  A    between atoms: C_5  and  C_6
REMARK    7  A    between atoms: C_5  and  C_7
REMARK    8  A    between atoms: C_8  and  C_9
REMARK    9  A    between atoms: C_8  and  C_18
REMARK   10  A    between atoms: C_12  and  O_13
REMARK   11  A    between atoms: C_14  and  O_15
REMARK   12  A    between atoms: O_15  and  C_16
REMARK   13  A    between atoms: C_21  and  O_22
REMARK   14  A    between atoms: C_23  and  O_24
REMARK   15  A    between atoms: O_24  and  C_25
REMARK                            x       y       z     vdW  Elec       q    Type
REMARK                         _______ _______ _______ _____ _____    ______ ____
ROOT
ATOM      1  C   UNL     1       2.926   4.922  18.029  0.00  0.00    +0.000 C 
ENDROOT
BRANCH   1   2
ATOM      2  C   UNL     1       2.534   6.259  18.676  0.00  0.00    +0.000 A 
ATOM      3  C   UNL     1       2.200   6.318  20.034  0.00  0.00    +0.000 A 
ATOM      4  C   UNL     1       1.723   7.510  20.596  0.00  0.00    +0.000 A 
ATOM      5  C   UNL     1       1.581   8.664  19.812  0.00  0.00    +0.000 A 
ATOM      6  C   UNL     1       1.919   8.637  18.462  0.00  0.00    +0.000 A 
ATOM      7  C   UNL     1       2.367   7.429  17.910  0.00  0.00    +0.000 A 
BRANCH   5   8
ATOM      8  O   UNL     1       1.079   9.794  20.398  0.00  0.00    +0.000 OA
ATOM      9  H   UNL     1       0.557  10.284  19.741  0.00  0.00    +0.000 HD
ENDBRANCH   5   8
BRANCH   6  10
ATOM     10  O   UNL     1       1.859   9.640  17.536  0.00  0.00    +0.000 OA
ATOM     11  C   UNL     1       2.290  10.936  17.919  0.00  0.00    +0.000 C 
ENDBRANCH   6  10
ENDBRANCH   1   2
BRANCH   1  12
ATOM     12  C   UNL     1       4.263   5.058  17.246  0.00  0.00    +0.000 A 
ATOM     13  C   UNL     1       4.412   4.489  15.966  0.00  0.00    +0.000 A 
ATOM     14  C   UNL     1       5.580   4.650  15.221  0.00  0.00    +0.000 A 
ATOM     15  C   UNL     1       6.658   5.353  15.752  0.00  0.00    +0.000 A 
ATOM     16  C   UNL     1       6.580   5.876  17.044  0.00  0.00    +0.000 A 
ATOM     17  C   UNL     1       5.391   5.705  17.781  0.00  0.00    +0.000 A 
BRANCH  15  18
ATOM     18  O   UNL     1       7.775   5.492  14.977  0.00  0.00    +0.000 OA
ATOM     19  H   UNL     1       7.633   5.030  14.134  0.00  0.00    +0.000 HD
ENDBRANCH  15  18
BRANCH  16  20
ATOM     20  O   UNL     1       7.539   6.572  17.732  0.00  0.00    +0.000 OA
ATOM     21  C   UNL     1       7.620   7.975  17.522  0.00  0.00    +0.000 C 
ENDBRANCH  16  20
ENDBRANCH   1  12
BRANCH   1  22
ATOM     22  C   UNL     1       2.825   3.678  19.008  0.00  0.00    +0.000 C 
BRANCH  22  23
ATOM     23  C   UNL     1       3.983   2.616  18.948  0.00  0.00    +0.000 C 
ATOM     24  C   UNL     1       4.593   2.207  20.291  0.00  0.00    +0.000 C 
ATOM     25  C   UNL     1       3.616   1.374  18.131  0.00  0.00    +0.000 C 
ENDBRANCH  22  23
BRANCH  22  26
ATOM     26  C   UNL     1       1.442   2.994  18.962  0.00  0.00    +0.000 C 
BRANCH  26  28
ATOM     27  C   UNL     1       1.277   3.162  21.298  0.00  0.00    +0.000 C 
ATOM     28  O   UNL     1       1.185   2.287  20.179  0.00  0.00    +0.000 OA
ENDBRANCH  26  28
ENDBRANCH  22  26
ENDBRANCH   1  22
TORSDOF 10
ENDMDL
MODEL 5
REMARK VINA RESULT:      -6.9      1.310      1.545
REMARK  Name = 
REMARK  15 active torsions:
REMARK  status: ('A' for Active; 'I' for Inactive)
REMARK    1  A    between atoms: C_1  and  O_2
REMARK    2  A    between atoms: O_2  and  C_3
REMARK    3  A    between atoms: C_3  and  C_4
REMARK    4  A    between atoms: C_4  and  C_5
REMARK    5  A    between atoms: C_4  and  C_8
REMARK    6  A    between atoms: C_5  and  C_6
REMARK    7  A    between atoms: C_5  and  C_7
REMARK    8  A    between atoms: C_8  and  C_9
REMARK    9  A    between atoms: C_8  and  C_18
REMARK   10  A    between atoms: C_12  and  O_13
REMARK   11  A    between atoms: C_14  and  O_15
REMARK   12  A    between atoms: O_15  and  C_16
REMARK   13  A    between atoms: C_21  and  O_22
REMARK   14  A    between atoms: C_23  and  O_24
REMARK   15  A    between atoms: O_24  and  C_25
REMARK                            x       y       z     vdW  Elec       q    Type
REMARK                         _______ _______ _______ _____ _____    ______ ____
ROOT
ATOM      1  C   UNL     1       3.041   5.811  18.973  0.00  0.00    +0.000 C 
ENDROOT
BRANCH   1   2
ATOM      2  C   UNL     1       4.311   5.876  18.111  0.00  0.00    +0.000 A 
ATOM      3  C   UNL     1       4.234   6.247  16.763  0.00  0.00    +0.000 A 
ATOM      4  C   UNL     1       5.371   6.186  15.945  0.00  0.00    +0.000 A 
ATOM      5  C   UNL     1       6.603   5.762  16.462  0.00  0.00    +0.000 A 
ATOM      6  C   UNL     1       6.710   5.400  17.803  0.00  0.00    +0.000 A 
ATOM      7  C   UNL     1       5.557   5.440  18.599  0.00  0.00    +0.000 A 
BRANCH   5   8
ATOM      8  O   UNL     1       7.676   5.686  15.616  0.00  0.00    +0.000 OA
ATOM      9  H   UNL     1       8.084   6.565  15.546  0.00  0.00    +0.000 HD
ENDBRANCH   5   8
BRANCH   6  10
ATOM     10  O   UNL     1       7.805   4.968  18.495  0.00  0.00    +0.000 OA
ATOM     11  C   UNL     1       8.133   5.620  19.712  0.00  0.00    +0.000 C 
ENDBRANCH   6  10
ENDBRANCH   1   2
BRANCH   1  12
ATOM     12  C   UNL     1       2.365   7.209  19.065  0.00  0.00    +0.000 A 
ATOM     13  C   UNL     1       2.229   8.023  17.923  0.00  0.00    +0.000 A 
ATOM     14  C   UNL     1       1.571   9.252  17.970  0.00  0.00    +0.000 A 
ATOM     15  C   UNL     1       1.065   9.730  19.175  0.00  0.00    +0.000 A 
ATOM     16  C   UNL     1       1.238   8.988  20.346  0.00  0.00    +0.000 A 
ATOM     17  C   UNL     1       1.902   7.747  20.279  0.00  0.00    +0.000 A 
BRANCH  15  18
ATOM     18  O   UNL     1       0.421  10.935  19.165  0.00  0.00    +0.000 OA
ATOM     19  H   UNL     1      -0.146  10.982  18.378  0.00  0.00    +0.000 HD
ENDBRANCH  15  18
BRANCH  16  20
ATOM     20  O   UNL     1       0.828   9.307  21.614  0.00  0.00    +0.000 OA
ATOM     21  C   UNL     1      -0.424   8.801  22.054  0.00  0.00    +0.000 C 
ENDBRANCH  16  20
ENDBRANCH   1  12
BRANCH   1  22
ATOM     22  C   UNL     1       2.078   4.603  18.613  0.00  0.00    +0.000 C 
BRANCH  22  23
ATOM     23  C   UNL     1       1.164   4.041  19.763  0.00  0.00    +0.000 C 
ATOM     24  C   UNL     1       0.501   2.687  19.496  0.00  0.00    +0.000 C 
ATOM     25  C   UNL     1       1.856   4.033  21.129  0.00  0.00    +0.000 C 
ENDBRANCH  22  23
BRANCH  22  26
ATOM     26  C   UNL     1       2.807   3.460  17.874  0.00  0.00    +0.000 C 
BRANCH  26  28
ATOM     27  C   UNL     1       3.714   1.357  18.391  0.00  0.00    +0.000 C 
ATOM     28  O   UNL     1       3.641   2.726  18.775  0.00  0.00    +0.000 OA
ENDBRANCH  26  28
ENDBRANCH  22  26
ENDBRANCH   1  22
TORSDOF 10
ENDMDL
MODEL 6
REMARK VINA RESULT:      -6.9      1.145      5.801
REMARK  Name = 
REMARK  15 active torsions:
REMARK  status: ('A' for Active; 'I' for Inactive)
REMARK    1  A    between atoms: C_1  and  O_2
REMARK    2  A    between atoms: O_2  and  C_3
REMARK    3  A    between atoms: C_3  and  C_4
REMARK    4  A    between atoms: C_4  and  C_5
REMARK    5  A    between atoms: C_4  and  C_8
REMARK    6  A    between atoms: C_5  and  C_6
REMARK    7  A    between atoms: C_5  and  C_7
REMARK    8  A    between atoms: C_8  and  C_9
REMARK    9  A    between atoms: C_8  and  C_18
REMARK   10  A    between atoms: C_12  and  O_13
REMARK   11  A    between atoms: C_14  and  O_15
REMARK   12  A    between atoms: O_15  and  C_16
REMARK   13  A    between atoms: C_21  and  O_22
REMARK   14  A    between atoms: C_23  and  O_24
REMARK   15  A    between atoms: O_24  and  C_25
REMARK                            x       y       z     vdW  Elec       q    Type
REMARK                         _______ _______ _______ _____ _____    ______ ____
ROOT
ATOM      1  C   UNL     1       2.926   5.004  17.973  0.00  0.00    +0.000 C 
ENDROOT
BRANCH   1   2
ATOM      2  C   UNL     1       2.406   6.397  18.361  0.00  0.00    +0.000 A 
ATOM      3  C   UNL     1       2.332   7.417  17.405  0.00  0.00    +0.000 A 
ATOM      4  C   UNL     1       1.977   8.719  17.783  0.00  0.00    +0.000 A 
ATOM      5  C   UNL     1       1.681   9.021  19.120  0.00  0.00    +0.000 A 
ATOM      6  C   UNL     1       1.734   8.022  20.089  0.00  0.00    +0.000 A 
ATOM      7  C   UNL     1       2.119   6.732  19.698  0.00  0.00    +0.000 A 
BRANCH   5   8
ATOM      8  O   UNL     1       1.374  10.314  19.446  0.00  0.00    +0.000 OA
ATOM      9  H   UNL     1       0.429  10.367  19.665  0.00  0.00    +0.000 HD
ENDBRANCH   5   8
BRANCH   6  10
ATOM     10  O   UNL     1       1.483   8.105  21.429  0.00  0.00    +0.000 OA
ATOM     11  C   UNL     1       0.176   8.462  21.848  0.00  0.00    +0.000 C 
ENDBRANCH   6  10
ENDBRANCH   1   2
BRANCH   1  12
ATOM     12  C   UNL     1       4.278   5.112  17.211  0.00  0.00    +0.000 A 
ATOM     13  C   UNL     1       4.445   4.510  15.949  0.00  0.00    +0.000 A 
ATOM     14  C   UNL     1       5.627   4.645  15.220  0.00  0.00    +0.000 A 
ATOM     15  C   UNL     1       6.700   5.353  15.753  0.00  0.00    +0.000 A 
ATOM     16  C   UNL     1       6.604   5.908  17.031  0.00  0.00    +0.000 A 
ATOM     17  C   UNL     1       5.401   5.764  17.751  0.00  0.00    +0.000 A 
BRANCH  15  18
ATOM     18  O   UNL     1       7.832   5.465  14.995  0.00  0.00    +0.000 OA
ATOM     19  H   UNL     1       8.066   6.404  14.916  0.00  0.00    +0.000 HD
ENDBRANCH  15  18
BRANCH  16  20
ATOM     20  O   UNL     1       7.556   6.614  17.718  0.00  0.00    +0.000 OA
ATOM     21  C   UNL     1       7.619   8.018  17.511  0.00  0.00    +0.000 C 
ENDBRANCH  16  20
ENDBRANCH   1  12
BRANCH   1  22
ATOM     22  C   UNL     1       2.884   3.949  19.157  0.00  0.00    +0.000 C 
BRANCH  22  23
ATOM     23  C   UNL     1       3.944   2.787  19.125  0.00  0.00    +0.000 C 
ATOM     24  C   UNL     1       4.483   2.329  20.483  0.00  0.00    +0.000 C 
ATOM     25  C   UNL     1       3.486   1.581  18.300  0.00  0.00    +0.000 C 
ENDBRANCH  22  23
BRANCH  22  26
ATOM     26  C   UNL     1       1.466   3.398  19.415  0.00  0.00    +0.000 C 
BRANCH  26  28
ATOM     27  C   UNL     1       1.294   2.730  21.659  0.00  0.00    +0.000 C 
ATOM     28  O   UNL     1       1.011   3.763  20.721  0.00  0.00    +0.000 OA
ENDBRANCH  26  28
ENDBRANCH  22  26
ENDBRANCH   1  22
TORSDOF 10
ENDMDL
MODEL 7
REMARK VINA RESULT:      -6.8      1.047      5.445
REMARK  Name = 
REMARK  15 active torsions:
REMARK  status: ('A' for Active; 'I' for Inactive)
REMARK    1  A    between atoms: C_1  and  O_2
REMARK    2  A    between atoms: O_2  and  C_3
REMARK    3  A    between atoms: C_3  and  C_4
REMARK    4  A    between atoms: C_4  and  C_5
REMARK    5  A    between atoms: C_4  and  C_8
REMARK    6  A    between atoms: C_5  and  C_6
REMARK    7  A    between atoms: C_5  and  C_7
REMARK    8  A    between atoms: C_8  and  C_9
REMARK    9  A    between atoms: C_8  and  C_18
REMARK   10  A    between atoms: C_12  and  O_13
REMARK   11  A    between atoms: C_14  and  O_15
REMARK   12  A    between atoms: O_15  and  C_16
REMARK   13  A    between atoms: C_21  and  O_22
REMARK   14  A    between atoms: C_23  and  O_24
REMARK   15  A    between atoms: O_24  and  C_25
REMARK                            x       y       z     vdW  Elec       q    Type
REMARK                         _______ _______ _______ _____ _____    ______ ____
ROOT
ATOM      1  C   UNL     1       2.858   5.038  18.001  0.00  0.00    +0.000 C 
ENDROOT
BRANCH   1   2
ATOM      2  C   UNL     1       2.472   6.376  18.651  0.00  0.00    +0.000 A 
ATOM      3  C   UNL     1       2.163   6.437  20.015  0.00  0.00    +0.000 A 
ATOM      4  C   UNL     1       1.692   7.629  20.583  0.00  0.00    +0.000 A 
ATOM      5  C   UNL     1       1.530   8.780  19.799  0.00  0.00    +0.000 A 
ATOM      6  C   UNL     1       1.843   8.750  18.442  0.00  0.00    +0.000 A 
ATOM      7  C   UNL     1       2.287   7.542  17.886  0.00  0.00    +0.000 A 
BRANCH   5   8
ATOM      8  O   UNL     1       1.034   9.909  20.391  0.00  0.00    +0.000 OA
ATOM      9  H   UNL     1       0.630  10.470  19.708  0.00  0.00    +0.000 HD
ENDBRANCH   5   8
BRANCH   6  10
ATOM     10  O   UNL     1       1.762   9.750  17.515  0.00  0.00    +0.000 OA
ATOM     11  C   UNL     1       2.296  11.021  17.847  0.00  0.00    +0.000 C 
ENDBRANCH   6  10
ENDBRANCH   1   2
BRANCH   1  12
ATOM     12  C   UNL     1       4.199   5.168  17.224  0.00  0.00    +0.000 A 
ATOM     13  C   UNL     1       4.611   4.168  16.321  0.00  0.00    +0.000 A 
ATOM     14  C   UNL     1       5.778   4.293  15.568  0.00  0.00    +0.000 A 
ATOM     15  C   UNL     1       6.599   5.405  15.728  0.00  0.00    +0.000 A 
ATOM     16  C   UNL     1       6.266   6.388  16.663  0.00  0.00    +0.000 A 
ATOM     17  C   UNL     1       5.081   6.247  17.412  0.00  0.00    +0.000 A 
BRANCH  15  18
ATOM     18  O   UNL     1       7.726   5.485  14.959  0.00  0.00    +0.000 OA
ATOM     19  H   UNL     1       7.873   6.412  14.711  0.00  0.00    +0.000 HD
ENDBRANCH  15  18
BRANCH  16  20
ATOM     20  O   UNL     1       6.957   7.531  16.967  0.00  0.00    +0.000 OA
ATOM     21  C   UNL     1       7.871   7.484  18.054  0.00  0.00    +0.000 C 
ENDBRANCH  16  20
ENDBRANCH   1  12
BRANCH   1  22
ATOM     22  C   UNL     1       2.744   3.791  18.976  0.00  0.00    +0.000 C 
BRANCH  22  23
ATOM     23  C   UNL     1       1.318   3.445  19.541  0.00  0.00    +0.000 C 
ATOM     24  C   UNL     1       0.538   2.364  18.789  0.00  0.00    +0.000 C 
ATOM     25  C   UNL     1       1.326   3.146  21.043  0.00  0.00    +0.000 C 
ENDBRANCH  22  23
BRANCH  22  26
ATOM     26  C   UNL     1       3.797   3.819  20.104  0.00  0.00    +0.000 C 
BRANCH  26  28
ATOM     27  C   UNL     1       4.679   1.647  20.242  0.00  0.00    +0.000 C 
ATOM     28  O   UNL     1       4.906   2.975  19.783  0.00  0.00    +0.000 OA
ENDBRANCH  26  28
ENDBRANCH  22  26
ENDBRANCH   1  22
TORSDOF 10
ENDMDL
MODEL 8
REMARK VINA RESULT:      -6.8      0.981      1.273
REMARK  Name = 
REMARK  15 active torsions:
REMARK  status: ('A' for Active; 'I' for Inactive)
REMARK    1  A    between atoms: C_1  and  O_2
REMARK    2  A    between atoms: O_2  and  C_3
REMARK    3  A    between atoms: C_3  and  C_4
REMARK    4  A    between atoms: C_4  and  C_5
REMARK    5  A    between atoms: C_4  and  C_8
REMARK    6  A    between atoms: C_5  and  C_6
REMARK    7  A    between atoms: C_5  and  C_7
REMARK    8  A    between atoms: C_8  and  C_9
REMARK    9  A    between atoms: C_8  and  C_18
REMARK   10  A    between atoms: C_12  and  O_13
REMARK   11  A    between atoms: C_14  and  O_15
REMARK   12  A    between atoms: O_15  and  C_16
REMARK   13  A    between atoms: C_21  and  O_22
REMARK   14  A    between atoms: C_23  and  O_24
REMARK   15  A    between atoms: O_24  and  C_25
REMARK                            x       y       z     vdW  Elec       q    Type
REMARK                         _______ _______ _______ _____ _____    ______ ____
ROOT
ATOM      1  C   UNL     1       3.934   5.619  18.953  0.00  0.00    +0.000 C 
ENDROOT
BRANCH   1   2
ATOM      2  C   UNL     1       4.884   5.615  17.744  0.00  0.00    +0.000 A 
ATOM      3  C   UNL     1       4.685   4.715  16.691  0.00  0.00    +0.000 A 
ATOM      4  C   UNL     1       5.619   4.625  15.650  0.00  0.00    +0.000 A 
ATOM      5  C   UNL     1       6.761   5.440  15.640  0.00  0.00    +0.000 A 
ATOM      6  C   UNL     1       6.975   6.353  16.669  0.00  0.00    +0.000 A 
ATOM      7  C   UNL     1       6.045   6.409  17.716  0.00  0.00    +0.000 A 
BRANCH   5   8
ATOM      8  O   UNL     1       7.661   5.291  14.620  0.00  0.00    +0.000 OA
ATOM      9  H   UNL     1       7.175   5.190  13.784  0.00  0.00    +0.000 HD
ENDBRANCH   5   8
BRANCH   6  10
ATOM     10  O   UNL     1       8.008   7.230  16.843  0.00  0.00    +0.000 OA
ATOM     11  C   UNL     1       7.788   8.379  17.646  0.00  0.00    +0.000 C 
ENDBRANCH   6  10
ENDBRANCH   1   2
BRANCH   1  12
ATOM     12  C   UNL     1       3.022   6.879  18.934  0.00  0.00    +0.000 A 
ATOM     13  C   UNL     1       2.975   7.720  17.805  0.00  0.00    +0.000 A 
ATOM     14  C   UNL     1       2.119   8.819  17.743  0.00  0.00    +0.000 A 
ATOM     15  C   UNL     1       1.311   9.140  18.829  0.00  0.00    +0.000 A 
ATOM     16  C   UNL     1       1.375   8.374  19.996  0.00  0.00    +0.000 A 
ATOM     17  C   UNL     1       2.243   7.265  20.039  0.00  0.00    +0.000 A 
BRANCH  15  18
ATOM     18  O   UNL     1       0.482  10.221  18.714  0.00  0.00    +0.000 OA
ATOM     19  H   UNL     1      -0.130  10.230  19.467  0.00  0.00    +0.000 HD
ENDBRANCH  15  18
BRANCH  16  20
ATOM     20  O   UNL     1       0.675   8.551  21.160  0.00  0.00    +0.000 OA
ATOM     21  C   UNL     1       1.340   9.185  22.244  0.00  0.00    +0.000 C 
ENDBRANCH  16  20
ENDBRANCH   1  12
BRANCH   1  22
ATOM     22  C   UNL     1       3.195   4.237  19.195  0.00  0.00    +0.000 C 
BRANCH  22  23
ATOM     23  C   UNL     1       2.449   3.592  17.970  0.00  0.00    +0.000 C 
ATOM     24  C   UNL     1       2.313   2.067  17.990  0.00  0.00    +0.000 C 
ATOM     25  C   UNL     1       1.093   4.243  17.683  0.00  0.00    +0.000 C 
ENDBRANCH  22  23
BRANCH  22  26
ATOM     26  C   UNL     1       2.292   4.255  20.447  0.00  0.00    +0.000 C 
BRANCH  26  28
ATOM     27  C   UNL     1       1.490   2.491  21.772  0.00  0.00    +0.000 C 
ATOM     28  O   UNL     1       2.648   3.200  21.344  0.00  0.00    +0.000 OA
ENDBRANCH  26  28
ENDBRANCH  22  26
ENDBRANCH   1  22
TORSDOF 10
ENDMDL
MODEL 9
REMARK VINA RESULT:      -6.7      1.027      1.881
REMARK  Name = 
REMARK  15 active torsions:
REMARK  status: ('A' for Active; 'I' for Inactive)
REMARK    1  A    between atoms: C_1  and  O_2
REMARK    2  A    between atoms: O_2  and  C_3
REMARK    3  A    between atoms: C_3  and  C_4
REMARK    4  A    between atoms: C_4  and  C_5
REMARK    5  A    between atoms: C_4  and  C_8
REMARK    6  A    between atoms: C_5  and  C_6
REMARK    7  A    between atoms: C_5  and  C_7
REMARK    8  A    between atoms: C_8  and  C_9
REMARK    9  A    between atoms: C_8  and  C_18
REMARK   10  A    between atoms: C_12  and  O_13
REMARK   11  A    between atoms: C_14  and  O_15
REMARK   12  A    between atoms: O_15  and  C_16
REMARK   13  A    between atoms: C_21  and  O_22
REMARK   14  A    between atoms: C_23  and  O_24
REMARK   15  A    between atoms: O_24  and  C_25
REMARK                            x       y       z     vdW  Elec       q    Type
REMARK                         _______ _______ _______ _____ _____    ______ ____
ROOT
ATOM      1  C   UNL     1       3.876   5.237  19.225  0.00  0.00    +0.000 C 
ENDROOT
BRANCH   1   2
ATOM      2  C   UNL     1       4.643   5.351  17.898  0.00  0.00    +0.000 A 
ATOM      3  C   UNL     1       4.229   4.622  16.777  0.00  0.00    +0.000 A 
ATOM      4  C   UNL     1       4.998   4.627  15.605  0.00  0.00    +0.000 A 
ATOM      5  C   UNL     1       6.186   5.368  15.531  0.00  0.00    +0.000 A 
ATOM      6  C   UNL     1       6.613   6.112  16.628  0.00  0.00    +0.000 A 
ATOM      7  C   UNL     1       5.847   6.073  17.801  0.00  0.00    +0.000 A 
BRANCH   5   8
ATOM      8  O   UNL     1       6.920   5.314  14.377  0.00  0.00    +0.000 OA
ATOM      9  H   UNL     1       7.529   6.070  14.356  0.00  0.00    +0.000 HD
ENDBRANCH   5   8
BRANCH   6  10
ATOM     10  O   UNL     1       7.725   6.895  16.760  0.00  0.00    +0.000 OA
ATOM     11  C   UNL     1       7.708   7.932  17.727  0.00  0.00    +0.000 C 
ENDBRANCH   6  10
ENDBRANCH   1   2
BRANCH   1  12
ATOM     12  C   UNL     1       2.926   6.453  19.419  0.00  0.00    +0.000 A 
ATOM     13  C   UNL     1       2.179   6.604  20.604  0.00  0.00    +0.000 A 
ATOM     14  C   UNL     1       1.368   7.717  20.825  0.00  0.00    +0.000 A 
ATOM     15  C   UNL     1       1.244   8.699  19.846  0.00  0.00    +0.000 A 
ATOM     16  C   UNL     1       1.912   8.557  18.628  0.00  0.00    +0.000 A 
ATOM     17  C   UNL     1       2.729   7.427  18.424  0.00  0.00    +0.000 A 
BRANCH  15  18
ATOM     18  O   UNL     1       0.446   9.775  20.117  0.00  0.00    +0.000 OA
ATOM     19  H   UNL     1       0.344   9.857  21.079  0.00  0.00    +0.000 HD
ENDBRANCH  15  18
BRANCH  16  20
ATOM     20  O   UNL     1       1.893   9.403  17.551  0.00  0.00    +0.000 OA
ATOM     21  C   UNL     1       2.207  10.771  17.777  0.00  0.00    +0.000 C 
ENDBRANCH  16  20
ENDBRANCH   1  12
BRANCH   1  22
ATOM     22  C   UNL     1       3.229   3.811  19.475  0.00  0.00    +0.000 C 
BRANCH  22  23
ATOM     23  C   UNL     1       1.931   3.753  20.362  0.00  0.00    +0.000 C 
ATOM     24  C   UNL     1       0.692   3.142  19.703  0.00  0.00    +0.000 C 
ATOM     25  C   UNL     1       2.171   3.117  21.734  0.00  0.00    +0.000 C 
ENDBRANCH  22  23
BRANCH  22  26
ATOM     26  C   UNL     1       4.262   2.760  19.935  0.00  0.00    +0.000 C 
BRANCH  26  28
ATOM     27  C   UNL     1       3.496   1.671  18.001  0.00  0.00    +0.000 C 
ATOM     28  O   UNL     1       4.006   1.495  19.318  0.00  0.00    +0.000 OA
ENDBRANCH  26  28
ENDBRANCH  22  26
ENDBRANCH   1  22
TORSDOF 10
ENDMDL
