MODEL 1
REMARK VINA RESULT:      -7.8      0.000      0.000
REMARK  Name = 
REMARK  4 active torsions:
REMARK  status: ('A' for Active; 'I' for Inactive)
REMARK    1  A    between atoms: C_1  and  O_2
REMARK    2  A    between atoms: O_2  and  C_3
REMARK    3  A    between atoms: C_9  and  C_10
REMARK    4  A    between atoms: C_17  and  C_18
REMARK                            x       y       z     vdW  Elec       q    Type
REMARK                         _______ _______ _______ _____ _____    ______ ____
ROOT
ATOM      1  C   UNL     1       4.394   4.034  18.753  0.00  0.00    +0.000 A 
ATOM      2  C   UNL     1       4.890   2.736  18.758  0.00  0.00    +0.000 A 
ATOM      3  N   UNL     1       4.026   1.941  19.452  0.00  0.00    +0.000 N 
ATOM      4  C   UNL     1       3.008   2.688  19.947  0.00  0.00    +0.000 A 
ATOM      5  N   UNL     1       2.043   2.169  20.720  0.00  0.00    +0.000 NA
ATOM      6  C   UNL     1       1.160   3.092  21.106  0.00  0.00    +0.000 A 
ATOM      7  N   UNL     1       1.149   4.388  20.777  0.00  0.00    +0.000 NA
ATOM      8  C   UNL     1       2.127   4.882  19.957  0.00  0.00    +0.000 A 
ATOM      9  C   UNL     1       3.158   4.012  19.524  0.00  0.00    +0.000 A 
ATOM     10  H   UNL     1       4.119   0.945  19.603  0.00  0.00    +0.000 HD
ENDROOT
BRANCH   1  17
ATOM     11  C   UNL     1       6.337   5.668  18.594  0.00  0.00    +0.000 A 
ATOM     12  C   UNL     1       7.043   6.636  17.860  0.00  0.00    +0.000 A 
ATOM     13  C   UNL     1       6.561   7.080  16.633  0.00  0.00    +0.000 A 
ATOM     14  C   UNL     1       5.357   6.584  16.161  0.00  0.00    +0.000 A 
ATOM     15  F   UNL     1       4.908   6.991  14.965  0.00  0.00    +0.000 F 
ATOM     16  C   UNL     1       4.629   5.643  16.884  0.00  0.00    +0.000 A 
ATOM     17  C   UNL     1       5.132   5.117  18.082  0.00  0.00    +0.000 A 
BRANCH  11  19
ATOM     18  C   UNL     1       8.200   5.534  20.043  0.00  0.00    +0.000 C 
ATOM     19  O   UNL     1       6.841   5.182  19.778  0.00  0.00    +0.000 OA
ENDBRANCH  11  19
ENDBRANCH   1  17
BRANCH   8  20
ATOM     20  C   UNL     1       2.008   6.310  19.642  0.00  0.00    +0.000 A 
ATOM     21  C   UNL     1       2.209   6.762  18.321  0.00  0.00    +0.000 A 
ATOM     22  C   UNL     1       2.057   8.108  17.977  0.00  0.00    +0.000 A 
ATOM     23  C   UNL     1       1.692   9.032  18.949  0.00  0.00    +0.000 A 
ATOM     24  C   UNL     1       1.531   8.619  20.269  0.00  0.00    +0.000 A 
ATOM     25  C   UNL     1       1.725   7.277  20.616  0.00  0.00    +0.000 A 
ENDBRANCH   8  20
TORSDOF 3
ENDMDL
MODEL 2
REMARK VINA RESULT:      -7.8      1.056      1.462
REMARK  Name = 
REMARK  4 active torsions:
REMARK  status: ('A' for Active; 'I' for Inactive)
REMARK    1  A    between atoms: C_1  and  O_2
REMARK    2  A    between atoms: O_2  and  C_3
REMARK    3  A    between atoms: C_9  and  C_10
REMARK    4  A    between atoms: C_17  and  C_18
REMARK                            x       y       z     vdW  Elec       q    Type
REMARK                         _______ _______ _______ _____ _____    ______ ____
ROOT
ATOM      1  C   UNL     1       4.445   3.535  18.720  0.00  0.00    +0.000 A 
ATOM      2  C   UNL     1       4.863   2.240  19.004  0.00  0.00    +0.000 A 
ATOM      3  N   UNL     1       4.094   1.745  20.017  0.00  0.00    +0.000 N 
ATOM      4  C   UNL     1       3.224   2.696  20.441  0.00  0.00    +0.000 A 
ATOM      5  N   UNL     1       2.386   2.497  21.469  0.00  0.00    +0.000 NA
ATOM      6  C   UNL     1       1.639   3.573  21.721  0.00  0.00    +0.000 A 
ATOM      7  N   UNL     1       1.640   4.732  21.054  0.00  0.00    +0.000 NA
ATOM      8  C   UNL     1       2.482   4.893  19.987  0.00  0.00    +0.000 A 
ATOM      9  C   UNL     1       3.369   3.840  19.653  0.00  0.00    +0.000 A 
ATOM     10  H   UNL     1       4.158   0.819  20.419  0.00  0.00    +0.000 HD
ENDROOT
BRANCH   1  17
ATOM     11  C   UNL     1       6.104   5.300  17.945  0.00  0.00    +0.000 A 
ATOM     12  C   UNL     1       6.766   5.955  16.892  0.00  0.00    +0.000 A 
ATOM     13  C   UNL     1       6.443   5.668  15.570  0.00  0.00    +0.000 A 
ATOM     14  C   UNL     1       5.434   4.757  15.303  0.00  0.00    +0.000 A 
ATOM     15  F   UNL     1       5.143   4.461  14.029  0.00  0.00    +0.000 F 
ATOM     16  C   UNL     1       4.748   4.117  16.331  0.00  0.00    +0.000 A 
ATOM     17  C   UNL     1       5.110   4.324  17.669  0.00  0.00    +0.000 A 
BRANCH  11  19
ATOM     18  C   UNL     1       7.849   5.818  19.453  0.00  0.00    +0.000 C 
ATOM     19  O   UNL     1       6.463   5.536  19.251  0.00  0.00    +0.000 OA
ENDBRANCH  11  19
ENDBRANCH   1  17
BRANCH   8  20
ATOM     20  C   UNL     1       2.386   6.194  19.314  0.00  0.00    +0.000 A 
ATOM     21  C   UNL     1       1.978   7.335  20.035  0.00  0.00    +0.000 A 
ATOM     22  C   UNL     1       1.922   8.597  19.438  0.00  0.00    +0.000 A 
ATOM     23  C   UNL     1       2.281   8.746  18.103  0.00  0.00    +0.000 A 
ATOM     24  C   UNL     1       2.645   7.628  17.357  0.00  0.00    +0.000 A 
ATOM     25  C   UNL     1       2.660   6.359  17.949  0.00  0.00    +0.000 A 
ENDBRANCH   8  20
TORSDOF 3
ENDMDL
MODEL 3
REMARK VINA RESULT:      -7.7      1.490      1.591
REMARK  Name = 
REMARK  4 active torsions:
REMARK  status: ('A' for Active; 'I' for Inactive)
REMARK    1  A    between atoms: C_1  and  O_2
REMARK    2  A    between atoms: O_2  and  C_3
REMARK    3  A    between atoms: C_9  and  C_10
REMARK    4  A    between atoms: C_17  and  C_18
REMARK                            x       y       z     vdW  Elec       q    Type
REMARK                         _______ _______ _______ _____ _____    ______ ____
ROOT
ATOM      1  C   UNL     1       3.975   3.050  17.950  0.00  0.00    +0.000 A 
ATOM      2  C   UNL     1       4.061   1.667  18.058  0.00  0.00    +0.000 A 
ATOM      3  N   UNL     1       3.098   1.236  18.922  0.00  0.00    +0.000 N 
ATOM      4  C   UNL     1       2.421   2.298  19.426  0.00  0.00    +0.000 A 
ATOM      5  N   UNL     1       1.456   2.166  20.347  0.00  0.00    +0.000 NA
ATOM      6  C   UNL     1       0.944   3.345  20.709  0.00  0.00    +0.000 A 
ATOM      7  N   UNL     1       1.275   4.549  20.233  0.00  0.00    +0.000 NA
ATOM      8  C   UNL     1       2.240   4.649  19.268  0.00  0.00    +0.000 A 
ATOM      9  C   UNL     1       2.900   3.472  18.838  0.00  0.00    +0.000 A 
ATOM     10  H   UNL     1       2.911   0.275  19.179  0.00  0.00    +0.000 HD
ENDROOT
BRANCH   1  17
ATOM     11  C   UNL     1       6.055   4.469  17.583  0.00  0.00    +0.000 A 
ATOM     12  C   UNL     1       6.955   5.084  16.697  0.00  0.00    +0.000 A 
ATOM     13  C   UNL     1       6.723   5.057  15.325  0.00  0.00    +0.000 A 
ATOM     14  C   UNL     1       5.574   4.448  14.846  0.00  0.00    +0.000 A 
ATOM     15  F   UNL     1       5.367   4.397  13.523  0.00  0.00    +0.000 F 
ATOM     16  C   UNL     1       4.658   3.855  15.708  0.00  0.00    +0.000 A 
ATOM     17  C   UNL     1       4.907   3.794  17.086  0.00  0.00    +0.000 A 
BRANCH  11  19
ATOM     18  C   UNL     1       7.042   5.564  19.431  0.00  0.00    +0.000 C 
ATOM     19  O   UNL     1       6.311   4.441  18.934  0.00  0.00    +0.000 OA
ENDBRANCH  11  19
ENDBRANCH   1  17
BRANCH   8  20
ATOM     20  C   UNL     1       2.509   6.015  18.801  0.00  0.00    +0.000 A 
ATOM     21  C   UNL     1       3.406   6.234  17.735  0.00  0.00    +0.000 A 
ATOM     22  C   UNL     1       3.649   7.516  17.235  0.00  0.00    +0.000 A 
ATOM     23  C   UNL     1       2.993   8.609  17.788  0.00  0.00    +0.000 A 
ATOM     24  C   UNL     1       2.136   8.425  18.871  0.00  0.00    +0.000 A 
ATOM     25  C   UNL     1       1.928   7.143  19.394  0.00  0.00    +0.000 A 
ENDBRANCH   8  20
TORSDOF 3
ENDMDL
MODEL 4
REMARK VINA RESULT:      -7.6      1.658      2.253
REMARK  Name = 
REMARK  4 active torsions:
REMARK  status: ('A' for Active; 'I' for Inactive)
REMARK    1  A    between atoms: C_1  and  O_2
REMARK    2  A    between atoms: O_2  and  C_3
REMARK    3  A    between atoms: C_9  and  C_10
REMARK    4  A    between atoms: C_17  and  C_18
REMARK                            x       y       z     vdW  Elec       q    Type
REMARK                         _______ _______ _______ _____ _____    ______ ____
ROOT
ATOM      1  C   UNL     1       4.806   3.832  19.172  0.00  0.00    +0.000 A 
ATOM      2  C   UNL     1       5.206   2.544  19.509  0.00  0.00    +0.000 A 
ATOM      3  N   UNL     1       4.198   1.942  20.202  0.00  0.00    +0.000 N 
ATOM      4  C   UNL     1       3.173   2.813  20.377  0.00  0.00    +0.000 A 
ATOM      5  N   UNL     1       2.073   2.500  21.077  0.00  0.00    +0.000 NA
ATOM      6  C   UNL     1       1.209   3.516  21.132  0.00  0.00    +0.000 A 
ATOM      7  N   UNL     1       1.335   4.716  20.557  0.00  0.00    +0.000 NA
ATOM      8  C   UNL     1       2.454   4.994  19.819  0.00  0.00    +0.000 A 
ATOM      9  C   UNL     1       3.473   4.015  19.731  0.00  0.00    +0.000 A 
ATOM     10  H   UNL     1       4.199   0.995  20.559  0.00  0.00    +0.000 HD
ENDROOT
BRANCH   1  17
ATOM     11  C   UNL     1       5.685   4.840  17.008  0.00  0.00    +0.000 A 
ATOM     12  C   UNL     1       6.507   5.777  16.360  0.00  0.00    +0.000 A 
ATOM     13  C   UNL     1       7.364   6.590  17.094  0.00  0.00    +0.000 A 
ATOM     14  C   UNL     1       7.426   6.439  18.470  0.00  0.00    +0.000 A 
ATOM     15  F   UNL     1       8.230   7.242  19.179  0.00  0.00    +0.000 F 
ATOM     16  C   UNL     1       6.639   5.499  19.129  0.00  0.00    +0.000 A 
ATOM     17  C   UNL     1       5.707   4.725  18.423  0.00  0.00    +0.000 A 
BRANCH  11  19
ATOM     18  C   UNL     1       5.023   4.048  14.881  0.00  0.00    +0.000 C 
ATOM     19  O   UNL     1       4.793   4.077  16.291  0.00  0.00    +0.000 OA
ENDBRANCH  11  19
ENDBRANCH   1  17
BRANCH   8  20
ATOM     20  C   UNL     1       2.480   6.332  19.214  0.00  0.00    +0.000 A 
ATOM     21  C   UNL     1       3.023   6.514  17.925  0.00  0.00    +0.000 A 
ATOM     22  C   UNL     1       3.020   7.765  17.301  0.00  0.00    +0.000 A 
ATOM     23  C   UNL     1       2.467   8.861  17.953  0.00  0.00    +0.000 A 
ATOM     24  C   UNL     1       1.965   8.716  19.244  0.00  0.00    +0.000 A 
ATOM     25  C   UNL     1       2.007   7.470  19.881  0.00  0.00    +0.000 A 
ENDBRANCH   8  20
TORSDOF 3
ENDMDL
MODEL 5
REMARK VINA RESULT:      -7.4      1.929      2.456
REMARK  Name = 
REMARK  4 active torsions:
REMARK  status: ('A' for Active; 'I' for Inactive)
REMARK    1  A    between atoms: C_1  and  O_2
REMARK    2  A    between atoms: O_2  and  C_3
REMARK    3  A    between atoms: C_9  and  C_10
REMARK    4  A    between atoms: C_17  and  C_18
REMARK                            x       y       z     vdW  Elec       q    Type
REMARK                         _______ _______ _______ _____ _____    ______ ____
ROOT
ATOM      1  C   UNL     1       4.361   3.379  18.105  0.00  0.00    +0.000 A 
ATOM      2  C   UNL     1       4.680   2.042  17.900  0.00  0.00    +0.000 A 
ATOM      3  N   UNL     1       3.584   1.283  18.186  0.00  0.00    +0.000 N 
ATOM      4  C   UNL     1       2.574   2.077  18.623  0.00  0.00    +0.000 A 
ATOM      5  N   UNL     1       1.395   1.583  19.029  0.00  0.00    +0.000 NA
ATOM      6  C   UNL     1       0.563   2.546  19.433  0.00  0.00    +0.000 A 
ATOM      7  N   UNL     1       0.789   3.863  19.431  0.00  0.00    +0.000 NA
ATOM      8  C   UNL     1       1.990   4.339  18.978  0.00  0.00    +0.000 A 
ATOM      9  C   UNL     1       2.982   3.412  18.572  0.00  0.00    +0.000 A 
ATOM     10  H   UNL     1       3.516   0.276  18.108  0.00  0.00    +0.000 HD
ENDROOT
BRANCH   1  17
ATOM     11  C   UNL     1       5.554   5.074  16.630  0.00  0.00    +0.000 A 
ATOM     12  C   UNL     1       6.466   6.136  16.506  0.00  0.00    +0.000 A 
ATOM     13  C   UNL     1       7.209   6.558  17.603  0.00  0.00    +0.000 A 
ATOM     14  C   UNL     1       7.066   5.895  18.812  0.00  0.00    +0.000 A 
ATOM     15  F   UNL     1       7.761   6.322  19.875  0.00  0.00    +0.000 F 
ATOM     16  C   UNL     1       6.187   4.826  18.949  0.00  0.00    +0.000 A 
ATOM     17  C   UNL     1       5.366   4.433  17.883  0.00  0.00    +0.000 A 
BRANCH  11  19
ATOM     18  C   UNL     1       5.499   4.241  14.418  0.00  0.00    +0.000 C 
ATOM     19  O   UNL     1       4.774   4.693  15.563  0.00  0.00    +0.000 OA
ENDBRANCH  11  19
ENDBRANCH   1  17
BRANCH   8  20
ATOM     20  C   UNL     1       2.124   5.800  18.998  0.00  0.00    +0.000 A 
ATOM     21  C   UNL     1       2.511   6.491  17.831  0.00  0.00    +0.000 A 
ATOM     22  C   UNL     1       2.603   7.885  17.803  0.00  0.00    +0.000 A 
ATOM     23  C   UNL     1       2.302   8.621  18.944  0.00  0.00    +0.000 A 
ATOM     24  C   UNL     1       1.961   7.960  20.121  0.00  0.00    +0.000 A 
ATOM     25  C   UNL     1       1.911   6.562  20.155  0.00  0.00    +0.000 A 
ENDBRANCH   8  20
TORSDOF 3
ENDMDL
MODEL 6
REMARK VINA RESULT:      -7.3      2.620      4.557
REMARK  Name = 
REMARK  4 active torsions:
REMARK  status: ('A' for Active; 'I' for Inactive)
REMARK    1  A    between atoms: C_1  and  O_2
REMARK    2  A    between atoms: O_2  and  C_3
REMARK    3  A    between atoms: C_9  and  C_10
REMARK    4  A    between atoms: C_17  and  C_18
REMARK                            x       y       z     vdW  Elec       q    Type
REMARK                         _______ _______ _______ _____ _____    ______ ____
ROOT
ATOM      1  C   UNL     1       2.918   7.063  18.193  0.00  0.00    +0.000 A 
ATOM      2  C   UNL     1       3.107   8.305  17.598  0.00  0.00    +0.000 A 
ATOM      3  N   UNL     1       2.464   9.248  18.343  0.00  0.00    +0.000 N 
ATOM      4  C   UNL     1       1.814   8.656  19.377  0.00  0.00    +0.000 A 
ATOM      5  N   UNL     1       1.052   9.346  20.238  0.00  0.00    +0.000 NA
ATOM      6  C   UNL     1       0.497   8.555  21.159  0.00  0.00    +0.000 A 
ATOM      7  N   UNL     1       0.660   7.235  21.296  0.00  0.00    +0.000 NA
ATOM      8  C   UNL     1       1.473   6.564  20.423  0.00  0.00    +0.000 A 
ATOM      9  C   UNL     1       2.077   7.284  19.363  0.00  0.00    +0.000 A 
ATOM     10  H   UNL     1       2.445  10.244  18.162  0.00  0.00    +0.000 HD
ENDROOT
BRANCH   1  17
ATOM     11  C   UNL     1       4.792   5.809  17.015  0.00  0.00    +0.000 A 
ATOM     12  C   UNL     1       5.321   4.597  16.542  0.00  0.00    +0.000 A 
ATOM     13  C   UNL     1       4.576   3.425  16.617  0.00  0.00    +0.000 A 
ATOM     14  C   UNL     1       3.289   3.474  17.129  0.00  0.00    +0.000 A 
ATOM     15  F   UNL     1       2.583   2.340  17.227  0.00  0.00    +0.000 F 
ATOM     16  C   UNL     1       2.736   4.669  17.580  0.00  0.00    +0.000 A 
ATOM     17  C   UNL     1       3.495   5.848  17.594  0.00  0.00    +0.000 A 
BRANCH  11  19
ATOM     18  C   UNL     1       6.920   6.780  17.357  0.00  0.00    +0.000 C 
ATOM     19  O   UNL     1       5.548   6.958  16.999  0.00  0.00    +0.000 OA
ENDBRANCH  11  19
ENDBRANCH   1  17
BRANCH   8  20
ATOM     20  C   UNL     1       1.600   5.124  20.677  0.00  0.00    +0.000 A 
ATOM     21  C   UNL     1       0.666   4.224  20.122  0.00  0.00    +0.000 A 
ATOM     22  C   UNL     1       0.784   2.844  20.304  0.00  0.00    +0.000 A 
ATOM     23  C   UNL     1       1.845   2.332  21.042  0.00  0.00    +0.000 A 
ATOM     24  C   UNL     1       2.754   3.202  21.639  0.00  0.00    +0.000 A 
ATOM     25  C   UNL     1       2.608   4.586  21.487  0.00  0.00    +0.000 A 
ENDBRANCH   8  20
TORSDOF 3
ENDMDL
MODEL 7
REMARK VINA RESULT:      -7.3      3.195      5.745
REMARK  Name = 
REMARK  4 active torsions:
REMARK  status: ('A' for Active; 'I' for Inactive)
REMARK    1  A    between atoms: C_1  and  O_2
REMARK    2  A    between atoms: O_2  and  C_3
REMARK    3  A    between atoms: C_9  and  C_10
REMARK    4  A    between atoms: C_17  and  C_18
REMARK                            x       y       z     vdW  Elec       q    Type
REMARK                         _______ _______ _______ _____ _____    ______ ____
ROOT
ATOM      1  C   UNL     1       4.377   6.521  17.561  0.00  0.00    +0.000 A 
ATOM      2  C   UNL     1       5.181   7.559  17.103  0.00  0.00    +0.000 A 
ATOM      3  N   UNL     1       6.003   7.077  16.128  0.00  0.00    +0.000 N 
ATOM      4  C   UNL     1       5.801   5.744  15.971  0.00  0.00    +0.000 A 
ATOM      5  N   UNL     1       6.520   5.003  15.116  0.00  0.00    +0.000 NA
ATOM      6  C   UNL     1       6.161   3.718  15.145  0.00  0.00    +0.000 A 
ATOM      7  N   UNL     1       5.191   3.165  15.881  0.00  0.00    +0.000 NA
ATOM      8  C   UNL     1       4.451   3.954  16.719  0.00  0.00    +0.000 A 
ATOM      9  C   UNL     1       4.772   5.330  16.821  0.00  0.00    +0.000 A 
ATOM     10  H   UNL     1       6.682   7.610  15.600  0.00  0.00    +0.000 HD
ENDROOT
BRANCH   1  17
ATOM     11  C   UNL     1       2.519   7.872  18.654  0.00  0.00    +0.000 A 
ATOM     12  C   UNL     1       1.540   7.987  19.655  0.00  0.00    +0.000 A 
ATOM     13  C   UNL     1       1.425   7.016  20.644  0.00  0.00    +0.000 A 
ATOM     14  C   UNL     1       2.314   5.953  20.654  0.00  0.00    +0.000 A 
ATOM     15  F   UNL     1       2.184   5.003  21.591  0.00  0.00    +0.000 F 
ATOM     16  C   UNL     1       3.308   5.833  19.687  0.00  0.00    +0.000 A 
ATOM     17  C   UNL     1       3.392   6.751  18.631  0.00  0.00    +0.000 A 
BRANCH  11  19
ATOM     18  C   UNL     1       1.931  10.034  17.903  0.00  0.00    +0.000 C 
ATOM     19  O   UNL     1       2.596   8.797  17.640  0.00  0.00    +0.000 OA
ENDBRANCH  11  19
ENDBRANCH   1  17
BRANCH   8  20
ATOM     20  C   UNL     1       3.399   3.251  17.462  0.00  0.00    +0.000 A 
ATOM     21  C   UNL     1       3.713   2.097  18.211  0.00  0.00    +0.000 A 
ATOM     22  C   UNL     1       2.746   1.431  18.968  0.00  0.00    +0.000 A 
ATOM     23  C   UNL     1       1.441   1.910  18.998  0.00  0.00    +0.000 A 
ATOM     24  C   UNL     1       1.096   3.021  18.233  0.00  0.00    +0.000 A 
ATOM     25  C   UNL     1       2.059   3.660  17.443  0.00  0.00    +0.000 A 
ENDBRANCH   8  20
TORSDOF 3
ENDMDL
MODEL 8
REMARK VINA RESULT:      -7.2      1.723      4.408
REMARK  Name = 
REMARK  4 active torsions:
REMARK  status: ('A' for Active; 'I' for Inactive)
REMARK    1  A    between atoms: C_1  and  O_2
REMARK    2  A    between atoms: O_2  and  C_3
REMARK    3  A    between atoms: C_9  and  C_10
REMARK    4  A    between atoms: C_17  and  C_18
REMARK                            x       y       z     vdW  Elec       q    Type
REMARK                         _______ _______ _______ _____ _____    ______ ____
ROOT
ATOM      1  C   UNL     1       2.464   5.208  20.055  0.00  0.00    +0.000 A 
ATOM      2  C   UNL     1       1.411   4.872  20.898  0.00  0.00    +0.000 A 
ATOM      3  N   UNL     1       1.680   3.664  21.471  0.00  0.00    +0.000 N 
ATOM      4  C   UNL     1       2.848   3.173  20.987  0.00  0.00    +0.000 A 
ATOM      5  N   UNL     1       3.324   1.970  21.339  0.00  0.00    +0.000 NA
ATOM      6  C   UNL     1       4.476   1.689  20.726  0.00  0.00    +0.000 A 
ATOM      7  N   UNL     1       5.153   2.472  19.880  0.00  0.00    +0.000 NA
ATOM      8  C   UNL     1       4.660   3.710  19.567  0.00  0.00    +0.000 A 
ATOM      9  C   UNL     1       3.413   4.104  20.111  0.00  0.00    +0.000 A 
ATOM     10  H   UNL     1       1.100   3.179  22.144  0.00  0.00    +0.000 HD
ENDROOT
BRANCH   1  17
ATOM     11  C   UNL     1       1.845   7.660  19.776  0.00  0.00    +0.000 A 
ATOM     12  C   UNL     1       1.935   8.850  19.036  0.00  0.00    +0.000 A 
ATOM     13  C   UNL     1       2.589   8.869  17.808  0.00  0.00    +0.000 A 
ATOM     14  C   UNL     1       3.118   7.691  17.306  0.00  0.00    +0.000 A 
ATOM     15  F   UNL     1       3.773   7.717  16.137  0.00  0.00    +0.000 F 
ATOM     16  C   UNL     1       3.018   6.496  18.012  0.00  0.00    +0.000 A 
ATOM     17  C   UNL     1       2.439   6.465  19.288  0.00  0.00    +0.000 A 
BRANCH  11  19
ATOM     18  C   UNL     1       1.138   8.931  21.639  0.00  0.00    +0.000 C 
ATOM     19  O   UNL     1       1.253   7.650  21.018  0.00  0.00    +0.000 OA
ENDBRANCH  11  19
ENDBRANCH   1  17
BRANCH   8  20
ATOM     20  C   UNL     1       5.492   4.494  18.648  0.00  0.00    +0.000 A 
ATOM     21  C   UNL     1       5.408   4.276  17.257  0.00  0.00    +0.000 A 
ATOM     22  C   UNL     1       6.151   5.037  16.351  0.00  0.00    +0.000 A 
ATOM     23  C   UNL     1       6.993   6.040  16.818  0.00  0.00    +0.000 A 
ATOM     24  C   UNL     1       7.128   6.246  18.189  0.00  0.00    +0.000 A 
ATOM     25  C   UNL     1       6.412   5.453  19.094  0.00  0.00    +0.000 A 
ENDBRANCH   8  20
TORSDOF 3
ENDMDL
MODEL 9
REMARK VINA RESULT:      -7.2      2.993      4.721
REMARK  Name = 
REMARK  4 active torsions:
REMARK  status: ('A' for Active; 'I' for Inactive)
REMARK    1  A    between atoms: C_1  and  O_2
REMARK    2  A    between atoms: O_2  and  C_3
REMARK    3  A    between atoms: C_9  and  C_10
REMARK    4  A    between atoms: C_17  and  C_18
REMARK                            x       y       z     vdW  Elec       q    Type
REMARK                         _______ _______ _______ _____ _____    ______ ____
ROOT
ATOM      1  C   UNL     1       3.991   3.588  17.907  0.00  0.00    +0.000 A 
ATOM      2  C   UNL     1       4.682   2.575  17.254  0.00  0.00    +0.000 A 
ATOM      3  N   UNL     1       5.425   3.129  16.253  0.00  0.00    +0.000 N 
ATOM      4  C   UNL     1       5.199   4.465  16.196  0.00  0.00    +0.000 A 
ATOM      5  N   UNL     1       5.758   5.251  15.265  0.00  0.00    +0.000 NA
ATOM      6  C   UNL     1       5.378   6.524  15.391  0.00  0.00    +0.000 A 
ATOM      7  N   UNL     1       4.571   7.038  16.324  0.00  0.00    +0.000 NA
ATOM      8  C   UNL     1       4.044   6.217  17.284  0.00  0.00    +0.000 A 
ATOM      9  C   UNL     1       4.327   4.830  17.226  0.00  0.00    +0.000 A 
ATOM     10  H   UNL     1       6.044   2.635  15.624  0.00  0.00    +0.000 HD
ENDROOT
BRANCH   1  17
ATOM     11  C   UNL     1       3.555   2.776  20.278  0.00  0.00    +0.000 A 
ATOM     12  C   UNL     1       2.659   2.586  21.344  0.00  0.00    +0.000 A 
ATOM     13  C   UNL     1       1.306   2.870  21.186  0.00  0.00    +0.000 A 
ATOM     14  C   UNL     1       0.847   3.306  19.953  0.00  0.00    +0.000 A 
ATOM     15  F   UNL     1      -0.452   3.606  19.811  0.00  0.00    +0.000 F 
ATOM     16  C   UNL     1       1.713   3.476  18.878  0.00  0.00    +0.000 A 
ATOM     17  C   UNL     1       3.093   3.278  19.033  0.00  0.00    +0.000 A 
BRANCH  11  19
ATOM     18  C   UNL     1       5.242   1.248  20.917  0.00  0.00    +0.000 C 
ATOM     19  O   UNL     1       4.902   2.554  20.449  0.00  0.00    +0.000 OA
ENDBRANCH  11  19
ENDBRANCH   1  17
BRANCH   8  20
ATOM     20  C   UNL     1       3.191   6.888  18.272  0.00  0.00    +0.000 A 
ATOM     21  C   UNL     1       2.539   8.094  17.941  0.00  0.00    +0.000 A 
ATOM     22  C   UNL     1       1.682   8.733  18.841  0.00  0.00    +0.000 A 
ATOM     23  C   UNL     1       1.453   8.175  20.093  0.00  0.00    +0.000 A 
ATOM     24  C   UNL     1       2.120   7.009  20.461  0.00  0.00    +0.000 A 
ATOM     25  C   UNL     1       3.008   6.394  19.571  0.00  0.00    +0.000 A 
ENDBRANCH   8  20
TORSDOF 3
ENDMDL
