MODEL 1
REMARK VINA RESULT:      -8.5      0.000      0.000
REMARK  Name = 
REMARK  5 active torsions:
REMARK  status: ('A' for Active; 'I' for Inactive)
REMARK    1  A    between atoms: S_2  and  N_4
REMARK    2  A    between atoms: S_2  and  C_18
REMARK    3  A    between atoms: N_4  and  C_5
REMARK    4  A    between atoms: C_11  and  C_12
REMARK    5  A    between atoms: C_12  and  N_13
REMARK                            x       y       z     vdW  Elec       q    Type
REMARK                         _______ _______ _______ _____ _____    ______ ____
ROOT
ATOM      1  N   UNL     1       3.308   7.708  17.757  0.00  0.00    +0.000 N 
ATOM      2  H   UNL     1       3.577   7.870  16.757  0.00  0.00    +0.000 HD
ENDROOT
BRANCH   1   3
ATOM      3  C   UNL     1       3.262   6.181  18.084  0.00  0.00    +0.000 A 
ATOM      4  C   UNL     1       2.272   5.723  19.011  0.00  0.00    +0.000 A 
ATOM      5  C   UNL     1       2.061   4.328  19.297  0.00  0.00    +0.000 A 
ATOM      6 CL   UNL     1       0.744   3.782  20.278  0.00  0.00    +0.000 Cl
ATOM      7  C   UNL     1       2.837   3.329  18.740  0.00  0.00    +0.000 A 
ATOM      8  C   UNL     1       3.816   3.727  17.868  0.00  0.00    +0.000 A 
ATOM      9  C   UNL     1       4.051   5.106  17.508  0.00  0.00    +0.000 A 
BRANCH   9  10
ATOM     10  C   UNL     1       5.052   5.090  16.352  0.00  0.00    +0.000 C 
BRANCH  10  11
ATOM     11  N   UNL     1       6.434   5.365  16.708  0.00  0.00    +0.000 N 
ATOM     12  C   UNL     1       6.882   5.449  18.006  0.00  0.00    +0.000 A 
ATOM     13  C   UNL     1       7.417   6.716  17.939  0.00  0.00    +0.000 A 
ATOM     14  N   UNL     1       7.747   7.024  16.651  0.00  0.00    +0.000 NA
ATOM     15  N   UNL     1       7.189   6.105  15.883  0.00  0.00    +0.000 NA
ENDBRANCH  10  11
ENDBRANCH   9  10
ENDBRANCH   1   3
BRANCH   1  17
ATOM     16  O   UNL     1       2.506  10.215  17.693  0.00  0.00    +0.000 OA
ATOM     17  S   UNL     1       1.897   8.914  18.123  0.00  0.00    +0.000 S 
ATOM     18  O   UNL     1       0.764   8.406  17.390  0.00  0.00    +0.000 OA
BRANCH  17  19
ATOM     19  C   UNL     1       1.286   9.309  19.852  0.00  0.00    +0.000 A 
ATOM     20  C   UNL     1       0.544  10.388  19.396  0.00  0.00    +0.000 A 
ATOM     21  C   UNL     1      -0.824  10.632  19.715  0.00  0.00    +0.000 A 
ATOM     22  C   UNL     1      -0.977  11.536  20.716  0.00  0.00    +0.000 A 
ATOM     23  C   UNL     1      -0.274  10.781  21.656  0.00  0.00    +0.000 A 
ATOM     24  N   UNL     1      -0.325  10.878  22.984  0.00  0.00    +0.000 NA
ATOM     25  O   UNL     1       0.413   9.802  23.432  0.00  0.00    +0.000 OA
ATOM     26  N   UNL     1       1.068   9.080  22.412  0.00  0.00    +0.000 NA
ATOM     27  C   UNL     1       0.777   9.649  21.187  0.00  0.00    +0.000 A 
ENDBRANCH  17  19
ENDBRANCH   1  17
TORSDOF 5
ENDMDL
MODEL 2
REMARK VINA RESULT:      -8.4      0.732      1.220
REMARK  Name = 
REMARK  5 active torsions:
REMARK  status: ('A' for Active; 'I' for Inactive)
REMARK    1  A    between atoms: S_2  and  N_4
REMARK    2  A    between atoms: S_2  and  C_18
REMARK    3  A    between atoms: N_4  and  C_5
REMARK    4  A    between atoms: C_11  and  C_12
REMARK    5  A    between atoms: C_12  and  N_13
REMARK                            x       y       z     vdW  Elec       q    Type
REMARK                         _______ _______ _______ _____ _____    ______ ____
ROOT
ATOM      1  N   UNL     1       3.361   7.678  17.796  0.00  0.00    +0.000 N 
ATOM      2  H   UNL     1       3.425   7.585  16.754  0.00  0.00    +0.000 HD
ENDROOT
BRANCH   1   3
ATOM      3  C   UNL     1       3.507   6.287  18.493  0.00  0.00    +0.000 A 
ATOM      4  C   UNL     1       2.329   5.677  19.031  0.00  0.00    +0.000 A 
ATOM      5  C   UNL     1       2.325   4.350  19.588  0.00  0.00    +0.000 A 
ATOM      6 CL   UNL     1       0.861   3.561  20.065  0.00  0.00    +0.000 Cl
ATOM      7  C   UNL     1       3.471   3.587  19.697  0.00  0.00    +0.000 A 
ATOM      8  C   UNL     1       4.629   4.144  19.221  0.00  0.00    +0.000 A 
ATOM      9  C   UNL     1       4.691   5.453  18.613  0.00  0.00    +0.000 A 
BRANCH   9  10
ATOM     10  C   UNL     1       6.092   5.589  18.014  0.00  0.00    +0.000 C 
BRANCH  10  11
ATOM     11  N   UNL     1       6.152   5.710  16.566  0.00  0.00    +0.000 N 
ATOM     12  C   UNL     1       5.461   4.890  15.705  0.00  0.00    +0.000 A 
ATOM     13  C   UNL     1       6.536   4.433  14.977  0.00  0.00    +0.000 A 
ATOM     14  N   UNL     1       7.565   5.327  15.038  0.00  0.00    +0.000 NA
ATOM     15  N   UNL     1       7.267   6.188  15.994  0.00  0.00    +0.000 NA
ENDBRANCH  10  11
ENDBRANCH   9  10
ENDBRANCH   1   3
BRANCH   1  17
ATOM     16  O   UNL     1       2.543  10.176  17.660  0.00  0.00    +0.000 OA
ATOM     17  S   UNL     1       1.942   8.885  18.129  0.00  0.00    +0.000 S 
ATOM     18  O   UNL     1       0.812   8.349  17.414  0.00  0.00    +0.000 OA
BRANCH  17  19
ATOM     19  C   UNL     1       1.331   9.328  19.846  0.00  0.00    +0.000 A 
ATOM     20  C   UNL     1       0.521  10.338  19.351  0.00  0.00    +0.000 A 
ATOM     21  C   UNL     1      -0.855  10.516  19.680  0.00  0.00    +0.000 A 
ATOM     22  C   UNL     1      -1.048  11.458  20.638  0.00  0.00    +0.000 A 
ATOM     23  C   UNL     1      -0.290  10.793  21.602  0.00  0.00    +0.000 A 
ATOM     24  N   UNL     1      -0.329  10.951  22.924  0.00  0.00    +0.000 NA
ATOM     25  O   UNL     1       0.477   9.944  23.412  0.00  0.00    +0.000 OA
ATOM     26  N   UNL     1       1.161   9.212  22.418  0.00  0.00    +0.000 NA
ATOM     27  C   UNL     1       0.821   9.702  21.171  0.00  0.00    +0.000 A 
ENDBRANCH  17  19
ENDBRANCH   1  17
TORSDOF 5
ENDMDL
MODEL 3
REMARK VINA RESULT:      -8.2      4.418      8.288
REMARK  Name = 
REMARK  5 active torsions:
REMARK  status: ('A' for Active; 'I' for Inactive)
REMARK    1  A    between atoms: S_2  and  N_4
REMARK    2  A    between atoms: S_2  and  C_18
REMARK    3  A    between atoms: N_4  and  C_5
REMARK    4  A    between atoms: C_11  and  C_12
REMARK    5  A    between atoms: C_12  and  N_13
REMARK                            x       y       z     vdW  Elec       q    Type
REMARK                         _______ _______ _______ _____ _____    ______ ____
ROOT
ATOM      1  N   UNL     1       5.104   4.445  18.284  0.00  0.00    +0.000 N 
ATOM      2  H   UNL     1       4.706   3.767  17.592  0.00  0.00    +0.000 HD
ENDROOT
BRANCH   1   3
ATOM      3  C   UNL     1       3.990   5.375  18.862  0.00  0.00    +0.000 A 
ATOM      4  C   UNL     1       3.760   6.631  18.214  0.00  0.00    +0.000 A 
ATOM      5  C   UNL     1       2.685   7.513  18.586  0.00  0.00    +0.000 A 
ATOM      6 CL   UNL     1       2.310   8.936  17.676  0.00  0.00    +0.000 Cl
ATOM      7  C   UNL     1       1.829   7.239  19.635  0.00  0.00    +0.000 A 
ATOM      8  C   UNL     1       2.032   6.060  20.302  0.00  0.00    +0.000 A 
ATOM      9  C   UNL     1       3.065   5.114  19.951  0.00  0.00    +0.000 A 
BRANCH   9  10
ATOM     10  C   UNL     1       2.798   3.852  20.773  0.00  0.00    +0.000 C 
BRANCH  10  11
ATOM     11  N   UNL     1       2.206   2.739  20.049  0.00  0.00    +0.000 N 
ATOM     12  C   UNL     1       2.912   1.931  19.188  0.00  0.00    +0.000 A 
ATOM     13  C   UNL     1       2.129   2.118  18.070  0.00  0.00    +0.000 A 
ATOM     14  N   UNL     1       0.865   2.482  18.432  0.00  0.00    +0.000 NA
ATOM     15  N   UNL     1       0.907   2.789  19.716  0.00  0.00    +0.000 NA
ENDBRANCH  10  11
ENDBRANCH   9  10
ENDBRANCH   1   3
BRANCH   1  17
ATOM     16  O   UNL     1       6.644   6.536  17.847  0.00  0.00    +0.000 OA
ATOM     17  S   UNL     1       6.724   5.072  17.533  0.00  0.00    +0.000 S 
ATOM     18  O   UNL     1       7.760   4.287  18.156  0.00  0.00    +0.000 OA
BRANCH  17  19
ATOM     19  C   UNL     1       7.086   5.077  15.692  0.00  0.00    +0.000 A 
ATOM     20  C   UNL     1       6.121   4.111  15.450  0.00  0.00    +0.000 A 
ATOM     21  C   UNL     1       5.113   4.198  14.445  0.00  0.00    +0.000 A 
ATOM     22  C   UNL     1       5.431   3.507  13.321  0.00  0.00    +0.000 A 
ATOM     23  C   UNL     1       6.589   4.240  13.063  0.00  0.00    +0.000 A 
ATOM     24  N   UNL     1       7.239   4.359  11.907  0.00  0.00    +0.000 NA
ATOM     25  O   UNL     1       8.197   5.321  12.153  0.00  0.00    +0.000 OA
ATOM     26  N   UNL     1       8.277   5.733  13.500  0.00  0.00    +0.000 NA
ATOM     27  C   UNL     1       7.332   5.053  14.245  0.00  0.00    +0.000 A 
ENDBRANCH  17  19
ENDBRANCH   1  17
TORSDOF 5
ENDMDL
MODEL 4
REMARK VINA RESULT:      -8.1      4.667      7.979
REMARK  Name = 
REMARK  5 active torsions:
REMARK  status: ('A' for Active; 'I' for Inactive)
REMARK    1  A    between atoms: S_2  and  N_4
REMARK    2  A    between atoms: S_2  and  C_18
REMARK    3  A    between atoms: N_4  and  C_5
REMARK    4  A    between atoms: C_11  and  C_12
REMARK    5  A    between atoms: C_12  and  N_13
REMARK                            x       y       z     vdW  Elec       q    Type
REMARK                         _______ _______ _______ _____ _____    ______ ____
ROOT
ATOM      1  N   UNL     1       5.970   5.428  19.500  0.00  0.00    +0.000 N 
ATOM      2  H   UNL     1       6.116   4.555  20.061  0.00  0.00    +0.000 HD
ENDROOT
BRANCH   1   3
ATOM      3  C   UNL     1       4.476   5.568  19.062  0.00  0.00    +0.000 A 
ATOM      4  C   UNL     1       4.011   6.863  18.668  0.00  0.00    +0.000 A 
ATOM      5  C   UNL     1       2.692   7.086  18.136  0.00  0.00    +0.000 A 
ATOM      6 CL   UNL     1       2.210   8.620  17.496  0.00  0.00    +0.000 Cl
ATOM      7  C   UNL     1       1.757   6.076  18.018  0.00  0.00    +0.000 A 
ATOM      8  C   UNL     1       2.152   4.825  18.412  0.00  0.00    +0.000 A 
ATOM      9  C   UNL     1       3.474   4.528  18.914  0.00  0.00    +0.000 A 
BRANCH   9  10
ATOM     10  C   UNL     1       3.571   3.004  19.007  0.00  0.00    +0.000 C 
BRANCH  10  11
ATOM     11  N   UNL     1       2.871   2.392  20.125  0.00  0.00    +0.000 N 
ATOM     12  C   UNL     1       1.509   2.199  20.155  0.00  0.00    +0.000 A 
ATOM     13  C   UNL     1       1.246   2.887  21.319  0.00  0.00    +0.000 A 
ATOM     14  N   UNL     1       2.359   2.925  22.109  0.00  0.00    +0.000 NA
ATOM     15  N   UNL     1       3.372   2.523  21.363  0.00  0.00    +0.000 NA
ENDBRANCH  10  11
ENDBRANCH   9  10
ENDBRANCH   1   3
BRANCH   1  17
ATOM     16  O   UNL     1       7.755   7.005  18.380  0.00  0.00    +0.000 OA
ATOM     17  S   UNL     1       7.438   5.541  18.312  0.00  0.00    +0.000 S 
ATOM     18  O   UNL     1       8.407   4.600  18.815  0.00  0.00    +0.000 OA
BRANCH  17  19
ATOM     19  C   UNL     1       7.309   5.244  16.465  0.00  0.00    +0.000 A 
ATOM     20  C   UNL     1       6.349   4.259  16.641  0.00  0.00    +0.000 A 
ATOM     21  C   UNL     1       5.112   4.189  15.934  0.00  0.00    +0.000 A 
ATOM     22  C   UNL     1       5.152   3.321  14.891  0.00  0.00    +0.000 A 
ATOM     23  C   UNL     1       6.177   3.994  14.225  0.00  0.00    +0.000 A 
ATOM     24  N   UNL     1       6.499   3.919  12.935  0.00  0.00    +0.000 NA
ATOM     25  O   UNL     1       7.454   4.901  12.765  0.00  0.00    +0.000 OA
ATOM     26  N   UNL     1       7.866   5.526  13.961  0.00  0.00    +0.000 NA
ATOM     27  C   UNL     1       7.171   4.983  15.026  0.00  0.00    +0.000 A 
ENDBRANCH  17  19
ENDBRANCH   1  17
TORSDOF 5
ENDMDL
MODEL 5
REMARK VINA RESULT:      -8.0      1.107      1.185
REMARK  Name = 
REMARK  5 active torsions:
REMARK  status: ('A' for Active; 'I' for Inactive)
REMARK    1  A    between atoms: S_2  and  N_4
REMARK    2  A    between atoms: S_2  and  C_18
REMARK    3  A    between atoms: N_4  and  C_5
REMARK    4  A    between atoms: C_11  and  C_12
REMARK    5  A    between atoms: C_12  and  N_13
REMARK                            x       y       z     vdW  Elec       q    Type
REMARK                         _______ _______ _______ _____ _____    ______ ____
ROOT
ATOM      1  N   UNL     1       3.849   6.610  18.480  0.00  0.00    +0.000 N 
ATOM      2  H   UNL     1       4.471   6.866  17.676  0.00  0.00    +0.000 HD
ENDROOT
BRANCH   1   3
ATOM      3  C   UNL     1       3.732   5.059  18.626  0.00  0.00    +0.000 A 
ATOM      4  C   UNL     1       3.066   4.542  19.782  0.00  0.00    +0.000 A 
ATOM      5  C   UNL     1       2.797   3.139  19.963  0.00  0.00    +0.000 A 
ATOM      6 CL   UNL     1       1.832   2.553  21.274  0.00  0.00    +0.000 Cl
ATOM      7  C   UNL     1       3.213   2.181  19.060  0.00  0.00    +0.000 A 
ATOM      8  C   UNL     1       3.881   2.630  17.951  0.00  0.00    +0.000 A 
ATOM      9  C   UNL     1       4.145   4.027  17.692  0.00  0.00    +0.000 A 
BRANCH   9  10
ATOM     10  C   UNL     1       4.688   4.109  16.264  0.00  0.00    +0.000 C 
BRANCH  10  11
ATOM     11  N   UNL     1       5.860   4.949  16.080  0.00  0.00    +0.000 N 
ATOM     12  C   UNL     1       7.071   4.709  16.687  0.00  0.00    +0.000 A 
ATOM     13  C   UNL     1       7.207   5.923  17.323  0.00  0.00    +0.000 A 
ATOM     14  N   UNL     1       6.486   6.882  16.672  0.00  0.00    +0.000 NA
ATOM     15  N   UNL     1       5.695   6.255  15.820  0.00  0.00    +0.000 NA
ENDBRANCH  10  11
ENDBRANCH   9  10
ENDBRANCH   1   3
BRANCH   1  17
ATOM     16  O   UNL     1       2.942   8.922  17.605  0.00  0.00    +0.000 OA
ATOM     17  S   UNL     1       2.366   7.781  18.388  0.00  0.00    +0.000 S 
ATOM     18  O   UNL     1       1.305   7.004  17.798  0.00  0.00    +0.000 OA
BRANCH  17  19
ATOM     19  C   UNL     1       1.630   8.650  19.879  0.00  0.00    +0.000 A 
ATOM     20  C   UNL     1       1.088   9.652  19.089  0.00  0.00    +0.000 A 
ATOM     21  C   UNL     1      -0.264  10.102  19.156  0.00  0.00    +0.000 A 
ATOM     22  C   UNL     1      -0.403  11.236  19.889  0.00  0.00    +0.000 A 
ATOM     23  C   UNL     1       0.091  10.671  21.065  0.00  0.00    +0.000 A 
ATOM     24  N   UNL     1      -0.087  11.098  22.314  0.00  0.00    +0.000 NA
ATOM     25  O   UNL     1       0.453  10.097  23.095  0.00  0.00    +0.000 OA
ATOM     26  N   UNL     1       1.114   9.084  22.370  0.00  0.00    +0.000 NA
ATOM     27  C   UNL     1       1.031   9.358  21.018  0.00  0.00    +0.000 A 
ENDBRANCH  17  19
ENDBRANCH   1  17
TORSDOF 5
ENDMDL
MODEL 6
REMARK VINA RESULT:      -7.9      2.652      3.892
REMARK  Name = 
REMARK  5 active torsions:
REMARK  status: ('A' for Active; 'I' for Inactive)
REMARK    1  A    between atoms: S_2  and  N_4
REMARK    2  A    between atoms: S_2  and  C_18
REMARK    3  A    between atoms: N_4  and  C_5
REMARK    4  A    between atoms: C_11  and  C_12
REMARK    5  A    between atoms: C_12  and  N_13
REMARK                            x       y       z     vdW  Elec       q    Type
REMARK                         _______ _______ _______ _____ _____    ______ ____
ROOT
ATOM      1  N   UNL     1       3.956   7.784  17.835  0.00  0.00    +0.000 N 
ATOM      2  H   UNL     1       4.370   8.530  17.227  0.00  0.00    +0.000 HD
ENDROOT
BRANCH   1   3
ATOM      3  C   UNL     1       4.373   6.362  17.341  0.00  0.00    +0.000 A 
ATOM      4  C   UNL     1       5.090   6.263  16.105  0.00  0.00    +0.000 A 
ATOM      5  C   UNL     1       5.624   5.020  15.613  0.00  0.00    +0.000 A 
ATOM      6 CL   UNL     1       6.642   4.950  14.215  0.00  0.00    +0.000 Cl
ATOM      7  C   UNL     1       5.436   3.819  16.268  0.00  0.00    +0.000 A 
ATOM      8  C   UNL     1       4.730   3.863  17.442  0.00  0.00    +0.000 A 
ATOM      9  C   UNL     1       4.204   5.084  18.009  0.00  0.00    +0.000 A 
BRANCH   9  10
ATOM     10  C   UNL     1       3.704   4.731  19.411  0.00  0.00    +0.000 C 
BRANCH  10  11
ATOM     11  N   UNL     1       2.706   3.675  19.480  0.00  0.00    +0.000 N 
ATOM     12  C   UNL     1       1.396   3.841  19.091  0.00  0.00    +0.000 A 
ATOM     13  C   UNL     1       0.800   3.473  20.277  0.00  0.00    +0.000 A 
ATOM     14  N   UNL     1       1.629   2.658  20.992  0.00  0.00    +0.000 NA
ATOM     15  N   UNL     1       2.819   2.726  20.421  0.00  0.00    +0.000 NA
ENDBRANCH  10  11
ENDBRANCH   9  10
ENDBRANCH   1   3
BRANCH   1  17
ATOM     16  O   UNL     1       2.076   9.560  17.346  0.00  0.00    +0.000 OA
ATOM     17  S   UNL     1       2.169   8.309  18.167  0.00  0.00    +0.000 S 
ATOM     18  O   UNL     1       1.364   7.174  17.791  0.00  0.00    +0.000 OA
BRANCH  17  19
ATOM     19  C   UNL     1       1.544   8.880  19.841  0.00  0.00    +0.000 A 
ATOM     20  C   UNL     1       0.765   9.872  19.266  0.00  0.00    +0.000 A 
ATOM     21  C   UNL     1      -0.612  10.103  19.561  0.00  0.00    +0.000 A 
ATOM     22  C   UNL     1      -0.796  11.111  20.450  0.00  0.00    +0.000 A 
ATOM     23  C   UNL     1      -0.068  10.496  21.469  0.00  0.00    +0.000 A 
ATOM     24  N   UNL     1      -0.122  10.745  22.776  0.00  0.00    +0.000 NA
ATOM     25  O   UNL     1       0.654   9.755  23.343  0.00  0.00    +0.000 OA
ATOM     26  N   UNL     1       1.335   8.943  22.411  0.00  0.00    +0.000 NA
ATOM     27  C   UNL     1       1.024   9.355  21.129  0.00  0.00    +0.000 A 
ENDBRANCH  17  19
ENDBRANCH   1  17
TORSDOF 5
ENDMDL
MODEL 7
REMARK VINA RESULT:      -7.9      3.568      7.833
REMARK  Name = 
REMARK  5 active torsions:
REMARK  status: ('A' for Active; 'I' for Inactive)
REMARK    1  A    between atoms: S_2  and  N_4
REMARK    2  A    between atoms: S_2  and  C_18
REMARK    3  A    between atoms: N_4  and  C_5
REMARK    4  A    between atoms: C_11  and  C_12
REMARK    5  A    between atoms: C_12  and  N_13
REMARK                            x       y       z     vdW  Elec       q    Type
REMARK                         _______ _______ _______ _____ _____    ______ ____
ROOT
ATOM      1  N   UNL     1       5.830   5.355  19.236  0.00  0.00    +0.000 N 
ATOM      2  H   UNL     1       6.098   4.753  20.050  0.00  0.00    +0.000 HD
ENDROOT
BRANCH   1   3
ATOM      3  C   UNL     1       4.397   5.000  18.723  0.00  0.00    +0.000 A 
ATOM      4  C   UNL     1       3.951   3.647  18.861  0.00  0.00    +0.000 A 
ATOM      5  C   UNL     1       2.612   3.232  18.532  0.00  0.00    +0.000 A 
ATOM      6 CL   UNL     1       2.037   1.637  18.876  0.00  0.00    +0.000 Cl
ATOM      7  C   UNL     1       1.675   4.098  18.005  0.00  0.00    +0.000 A 
ATOM      8  C   UNL     1       2.069   5.399  17.829  0.00  0.00    +0.000 A 
ATOM      9  C   UNL     1       3.384   5.886  18.178  0.00  0.00    +0.000 A 
BRANCH   9  10
ATOM     10  C   UNL     1       3.331   7.409  18.050  0.00  0.00    +0.000 C 
BRANCH  10  11
ATOM     11  N   UNL     1       2.069   8.032  18.416  0.00  0.00    +0.000 N 
ATOM     12  C   UNL     1       1.470   9.027  17.679  0.00  0.00    +0.000 A 
ATOM     13  C   UNL     1       1.383   9.973  18.677  0.00  0.00    +0.000 A 
ATOM     14  N   UNL     1       1.377   9.371  19.902  0.00  0.00    +0.000 NA
ATOM     15  N   UNL     1       1.729   8.112  19.712  0.00  0.00    +0.000 NA
ENDBRANCH  10  11
ENDBRANCH   9  10
ENDBRANCH   1   3
BRANCH   1  17
ATOM     16  O   UNL     1       7.727   6.897  18.259  0.00  0.00    +0.000 OA
ATOM     17  S   UNL     1       7.360   5.450  18.127  0.00  0.00    +0.000 S 
ATOM     18  O   UNL     1       8.266   4.456  18.646  0.00  0.00    +0.000 OA
BRANCH  17  19
ATOM     19  C   UNL     1       7.314   5.215  16.266  0.00  0.00    +0.000 A 
ATOM     20  C   UNL     1       6.312   4.262  16.362  0.00  0.00    +0.000 A 
ATOM     21  C   UNL     1       5.111   4.261  15.593  0.00  0.00    +0.000 A 
ATOM     22  C   UNL     1       5.172   3.426  14.525  0.00  0.00    +0.000 A 
ATOM     23  C   UNL     1       6.252   4.081  13.933  0.00  0.00    +0.000 A 
ATOM     24  N   UNL     1       6.637   4.034  12.659  0.00  0.00    +0.000 NA
ATOM     25  O   UNL     1       7.633   4.984  12.569  0.00  0.00    +0.000 OA
ATOM     26  N   UNL     1       8.007   5.556  13.804  0.00  0.00    +0.000 NA
ATOM     27  C   UNL     1       7.240   5.006  14.815  0.00  0.00    +0.000 A 
ENDBRANCH  17  19
ENDBRANCH   1  17
TORSDOF 5
ENDMDL
MODEL 8
REMARK VINA RESULT:      -7.6      3.662      7.944
REMARK  Name = 
REMARK  5 active torsions:
REMARK  status: ('A' for Active; 'I' for Inactive)
REMARK    1  A    between atoms: S_2  and  N_4
REMARK    2  A    between atoms: S_2  and  C_18
REMARK    3  A    between atoms: N_4  and  C_5
REMARK    4  A    between atoms: C_11  and  C_12
REMARK    5  A    between atoms: C_12  and  N_13
REMARK                            x       y       z     vdW  Elec       q    Type
REMARK                         _______ _______ _______ _____ _____    ______ ____
ROOT
ATOM      1  N   UNL     1       5.433   5.972  18.648  0.00  0.00    +0.000 N 
ATOM      2  H   UNL     1       5.654   5.979  19.673  0.00  0.00    +0.000 HD
ENDROOT
BRANCH   1   3
ATOM      3  C   UNL     1       4.099   5.210  18.367  0.00  0.00    +0.000 A 
ATOM      4  C   UNL     1       4.085   3.791  18.551  0.00  0.00    +0.000 A 
ATOM      5  C   UNL     1       2.885   3.003  18.435  0.00  0.00    +0.000 A 
ATOM      6 CL   UNL     1       2.850   1.321  18.839  0.00  0.00    +0.000 Cl
ATOM      7  C   UNL     1       1.668   3.551  18.081  0.00  0.00    +0.000 A 
ATOM      8  C   UNL     1       1.642   4.905  17.867  0.00  0.00    +0.000 A 
ATOM      9  C   UNL     1       2.801   5.755  18.009  0.00  0.00    +0.000 A 
BRANCH   9  10
ATOM     10  C   UNL     1       2.297   7.197  17.918  0.00  0.00    +0.000 C 
BRANCH  10  11
ATOM     11  N   UNL     1       2.231   7.924  19.175  0.00  0.00    +0.000 N 
ATOM     12  C   UNL     1       2.148   7.312  20.404  0.00  0.00    +0.000 A 
ATOM     13  C   UNL     1       0.990   7.918  20.839  0.00  0.00    +0.000 A 
ATOM     14  N   UNL     1       0.813   9.112  20.203  0.00  0.00    +0.000 NA
ATOM     15  N   UNL     1       1.670   9.143  19.198  0.00  0.00    +0.000 NA
ENDBRANCH  10  11
ENDBRANCH   9  10
ENDBRANCH   1   3
BRANCH   1  17
ATOM     16  O   UNL     1       7.793   6.910  17.953  0.00  0.00    +0.000 OA
ATOM     17  S   UNL     1       7.066   5.613  17.763  0.00  0.00    +0.000 S 
ATOM     18  O   UNL     1       7.589   4.429  18.396  0.00  0.00    +0.000 OA
BRANCH  17  19
ATOM     19  C   UNL     1       7.211   5.341  15.912  0.00  0.00    +0.000 A 
ATOM     20  C   UNL     1       6.227   4.364  15.930  0.00  0.00    +0.000 A 
ATOM     21  C   UNL     1       5.107   4.317  15.047  0.00  0.00    +0.000 A 
ATOM     22  C   UNL     1       5.294   3.462  14.009  0.00  0.00    +0.000 A 
ATOM     23  C   UNL     1       6.412   4.133  13.512  0.00  0.00    +0.000 A 
ATOM     24  N   UNL     1       6.922   4.070  12.283  0.00  0.00    +0.000 NA
ATOM     25  O   UNL     1       7.899   5.044  12.271  0.00  0.00    +0.000 OA
ATOM     26  N   UNL     1       8.135   5.649  13.524  0.00  0.00    +0.000 NA
ATOM     27  C   UNL     1       7.285   5.100  14.466  0.00  0.00    +0.000 A 
ENDBRANCH  17  19
ENDBRANCH   1  17
TORSDOF 5
ENDMDL
MODEL 9
REMARK VINA RESULT:      -7.6      1.102      1.212
REMARK  Name = 
REMARK  5 active torsions:
REMARK  status: ('A' for Active; 'I' for Inactive)
REMARK    1  A    between atoms: S_2  and  N_4
REMARK    2  A    between atoms: S_2  and  C_18
REMARK    3  A    between atoms: N_4  and  C_5
REMARK    4  A    between atoms: C_11  and  C_12
REMARK    5  A    between atoms: C_12  and  N_13
REMARK                            x       y       z     vdW  Elec       q    Type
REMARK                         _______ _______ _______ _____ _____    ______ ____
ROOT
ATOM      1  N   UNL     1       2.016   6.176  17.750  0.00  0.00    +0.000 N 
ATOM      2  H   UNL     1       0.999   6.011  17.559  0.00  0.00    +0.000 HD
ENDROOT
BRANCH   1   3
ATOM      3  C   UNL     1       2.631   4.994  18.566  0.00  0.00    +0.000 A 
ATOM      4  C   UNL     1       1.922   4.536  19.722  0.00  0.00    +0.000 A 
ATOM      5  C   UNL     1       2.332   3.382  20.480  0.00  0.00    +0.000 A 
ATOM      6 CL   UNL     1       1.365   2.735  21.760  0.00  0.00    +0.000 Cl
ATOM      7  C   UNL     1       3.474   2.665  20.181  0.00  0.00    +0.000 A 
ATOM      8  C   UNL     1       4.200   3.088  19.098  0.00  0.00    +0.000 A 
ATOM      9  C   UNL     1       3.818   4.211  18.273  0.00  0.00    +0.000 A 
BRANCH   9  10
ATOM     10  C   UNL     1       4.748   4.194  17.059  0.00  0.00    +0.000 C 
BRANCH  10  11
ATOM     11  N   UNL     1       6.068   4.770  17.264  0.00  0.00    +0.000 N 
ATOM     12  C   UNL     1       6.313   5.824  18.113  0.00  0.00    +0.000 A 
ATOM     13  C   UNL     1       6.893   6.673  17.196  0.00  0.00    +0.000 A 
ATOM     14  N   UNL     1       7.426   5.960  16.161  0.00  0.00    +0.000 NA
ATOM     15  N   UNL     1       6.964   4.727  16.267  0.00  0.00    +0.000 NA
ENDBRANCH  10  11
ENDBRANCH   9  10
ENDBRANCH   1   3
BRANCH   1  17
ATOM     16  O   UNL     1       3.656   8.140  18.367  0.00  0.00    +0.000 OA
ATOM     17  S   UNL     1       2.169   7.997  18.241  0.00  0.00    +0.000 S 
ATOM     18  O   UNL     1       1.490   8.729  17.202  0.00  0.00    +0.000 OA
BRANCH  17  19
ATOM     19  C   UNL     1       1.559   8.691  19.874  0.00  0.00    +0.000 A 
ATOM     20  C   UNL     1       0.856   9.702  19.238  0.00  0.00    +0.000 A 
ATOM     21  C   UNL     1      -0.506  10.037  19.496  0.00  0.00    +0.000 A 
ATOM     22  C   UNL     1      -0.636  11.098  20.332  0.00  0.00    +0.000 A 
ATOM     23  C   UNL     1       0.035  10.488  21.392  0.00  0.00    +0.000 A 
ATOM     24  N   UNL     1      -0.021  10.805  22.685  0.00  0.00    +0.000 NA
ATOM     25  O   UNL     1       0.679   9.796  23.313  0.00  0.00    +0.000 OA
ATOM     26  N   UNL     1       1.318   8.895  22.434  0.00  0.00    +0.000 NA
ATOM     27  C   UNL     1       1.053   9.262  21.128  0.00  0.00    +0.000 A 
ENDBRANCH  17  19
ENDBRANCH   1  17
TORSDOF 5
ENDMDL
