MODEL 1
REMARK VINA RESULT:      -8.6      0.000      0.000
REMARK  Name = 
REMARK  9 active torsions:
REMARK  status: ('A' for Active; 'I' for Inactive)
REMARK    1  A    between atoms: C_1  and  C_2
REMARK    2  A    between atoms: C_2  and  C_3
REMARK    3  A    between atoms: C_6  and  C_7
REMARK    4  A    between atoms: C_7  and  N_8
REMARK    5  A    between atoms: N_8  and  C_9
REMARK    6  A    between atoms: N_8  and  C_10
REMARK    7  A    between atoms: N_13  and  C_14
REMARK    8  A    between atoms: C_18  and  C_19
REMARK    9  A    between atoms: C_23  and  C_24
REMARK                            x       y       z     vdW  Elec       q    Type
REMARK                         _______ _______ _______ _____ _____    ______ ____
ROOT
ATOM      1  C   UNL     1       2.547   3.506  19.433  0.00  0.00    +0.000 C 
ATOM      2  C   UNL     1       1.833   4.170  18.229  0.00  0.00    +0.000 C 
ATOM      3  C   UNL     1       2.378   5.564  17.937  0.00  0.00    +0.000 C 
ATOM      4  N   UNL     1       2.177   6.374  19.134  0.00  0.00    +0.000 N 
ATOM      5  C   UNL     1       2.825   5.894  20.355  0.00  0.00    +0.000 C 
ATOM      6  C   UNL     1       2.359   4.467  20.636  0.00  0.00    +0.000 C 
ENDROOT
BRANCH   4   7
ATOM      7  C   UNL     1       1.867   7.721  19.036  0.00  0.00    +0.000 A 
ATOM      8  C   UNL     1       2.301   8.451  17.924  0.00  0.00    +0.000 A 
ATOM      9  C   UNL     1       2.037   9.810  17.801  0.00  0.00    +0.000 A 
ATOM     10  C   UNL     1       1.349  10.474  18.811  0.00  0.00    +0.000 A 
ATOM     11  C   UNL     1       0.922   9.795  19.964  0.00  0.00    +0.000 A 
ATOM     12  C   UNL     1       1.188   8.412  20.043  0.00  0.00    +0.000 A 
BRANCH  11  13
ATOM     13  C   UNL     1       0.251  10.513  21.066  0.00  0.00    +0.000 A 
ATOM     14  C   UNL     1      -0.383   9.859  22.104  0.00  0.00    +0.000 A 
ATOM     15  C   UNL     1      -0.908  10.654  23.091  0.00  0.00    +0.000 A 
ATOM     16  N   UNL     1      -0.840  11.986  23.089  0.00  0.00    +0.000 NA
ATOM     17  C   UNL     1      -0.216  12.550  22.032  0.00  0.00    +0.000 A 
ATOM     18  C   UNL     1      -0.125  14.037  21.981  0.00  0.00    +0.000 C 
ATOM     19  N   UNL     1       0.329  11.857  21.014  0.00  0.00    +0.000 NA
ENDBRANCH  11  13
ENDBRANCH   4   7
BRANCH   1  20
ATOM     20  N   UNL     1       3.970   3.141  19.178  0.00  0.00    +0.000 NA
ATOM     21  C   UNL     1       4.426   1.997  19.984  0.00  0.00    +0.000 C 
BRANCH  20  22
ATOM     22  C   UNL     1       4.905   4.294  19.361  0.00  0.00    +0.000 C 
BRANCH  22  26
ATOM     23  C   UNL     1       6.754   4.409  16.342  0.00  0.00    +0.000 A 
ATOM     24  N   UNL     1       7.771   4.607  17.152  0.00  0.00    +0.000 NA
ATOM     25  N   UNL     1       7.245   4.656  18.428  0.00  0.00    +0.000 NA
ATOM     26  C   UNL     1       5.947   4.476  18.303  0.00  0.00    +0.000 A 
ATOM     27  O   UNL     1       5.551   4.361  16.993  0.00  0.00    +0.000 OA
BRANCH  23  29
ATOM     28  C   UNL     1       5.414   4.492  14.277  0.00  0.00    +0.000 C 
ATOM     29  C   UNL     1       6.752   4.107  14.895  0.00  0.00    +0.000 C 
ENDBRANCH  23  29
ENDBRANCH  22  26
ENDBRANCH  20  22
ENDBRANCH   1  20
TORSDOF 6
ENDMDL
MODEL 2
REMARK VINA RESULT:      -8.4      3.178      8.973
REMARK  Name = 
REMARK  9 active torsions:
REMARK  status: ('A' for Active; 'I' for Inactive)
REMARK    1  A    between atoms: C_1  and  C_2
REMARK    2  A    between atoms: C_2  and  C_3
REMARK    3  A    between atoms: C_6  and  C_7
REMARK    4  A    between atoms: C_7  and  N_8
REMARK    5  A    between atoms: N_8  and  C_9
REMARK    6  A    between atoms: N_8  and  C_10
REMARK    7  A    between atoms: N_13  and  C_14
REMARK    8  A    between atoms: C_18  and  C_19
REMARK    9  A    between atoms: C_23  and  C_24
REMARK                            x       y       z     vdW  Elec       q    Type
REMARK                         _______ _______ _______ _____ _____    ______ ____
ROOT
ATOM      1  C   UNL     1       0.035  10.538  19.371  0.00  0.00    +0.000 C 
ATOM      2  C   UNL     1      -0.075   9.516  20.530  0.00  0.00    +0.000 C 
ATOM      3  C   UNL     1       1.247   8.803  20.793  0.00  0.00    +0.000 C 
ATOM      4  N   UNL     1       1.626   8.112  19.565  0.00  0.00    +0.000 N 
ATOM      5  C   UNL     1       1.805   8.952  18.380  0.00  0.00    +0.000 C 
ATOM      6  C   UNL     1       0.521   9.742  18.132  0.00  0.00    +0.000 C 
ENDROOT
BRANCH   4   7
ATOM      7  C   UNL     1       2.270   6.886  19.608  0.00  0.00    +0.000 A 
ATOM      8  C   UNL     1       1.820   5.902  20.494  0.00  0.00    +0.000 A 
ATOM      9  C   UNL     1       2.455   4.668  20.592  0.00  0.00    +0.000 A 
ATOM     10  C   UNL     1       3.577   4.407  19.813  0.00  0.00    +0.000 A 
ATOM     11  C   UNL     1       4.089   5.374  18.932  0.00  0.00    +0.000 A 
ATOM     12  C   UNL     1       3.405   6.604  18.844  0.00  0.00    +0.000 A 
BRANCH  11  13
ATOM     13  C   UNL     1       5.319   5.121  18.155  0.00  0.00    +0.000 A 
ATOM     14  C   UNL     1       6.582   5.217  18.708  0.00  0.00    +0.000 A 
ATOM     15  C   UNL     1       7.630   4.893  17.885  0.00  0.00    +0.000 A 
ATOM     16  N   UNL     1       7.488   4.508  16.615  0.00  0.00    +0.000 NA
ATOM     17  C   UNL     1       6.223   4.453  16.145  0.00  0.00    +0.000 A 
ATOM     18  C   UNL     1       6.016   4.040  14.729  0.00  0.00    +0.000 C 
ATOM     19  N   UNL     1       5.130   4.754  16.873  0.00  0.00    +0.000 NA
ENDBRANCH  11  13
ENDBRANCH   4   7
BRANCH   1  20
ATOM     20  N   UNL     1       0.874  11.731  19.681  0.00  0.00    +0.000 NA
ATOM     21  C   UNL     1       0.577  12.320  20.996  0.00  0.00    +0.000 C 
BRANCH  20  22
ATOM     22  C   UNL     1       0.791  12.786  18.623  0.00  0.00    +0.000 C 
BRANCH  22  26
ATOM     23  C   UNL     1       3.785  14.669  18.421  0.00  0.00    +0.000 A 
ATOM     24  N   UNL     1       3.109  15.534  19.146  0.00  0.00    +0.000 NA
ATOM     25  N   UNL     1       1.843  15.002  19.301  0.00  0.00    +0.000 NA
ATOM     26  C   UNL     1       1.843  13.849  18.666  0.00  0.00    +0.000 A 
ATOM     27  O   UNL     1       3.036  13.591  18.035  0.00  0.00    +0.000 OA
BRANCH  23  29
ATOM     28  C   UNL     1       5.896  15.929  18.561  0.00  0.00    +0.000 C 
ATOM     29  C   UNL     1       5.227  14.643  18.095  0.00  0.00    +0.000 C 
ENDBRANCH  23  29
ENDBRANCH  22  26
ENDBRANCH  20  22
ENDBRANCH   1  20
TORSDOF 6
ENDMDL
MODEL 3
REMARK VINA RESULT:      -8.4      1.345      1.644
REMARK  Name = 
REMARK  9 active torsions:
REMARK  status: ('A' for Active; 'I' for Inactive)
REMARK    1  A    between atoms: C_1  and  C_2
REMARK    2  A    between atoms: C_2  and  C_3
REMARK    3  A    between atoms: C_6  and  C_7
REMARK    4  A    between atoms: C_7  and  N_8
REMARK    5  A    between atoms: N_8  and  C_9
REMARK    6  A    between atoms: N_8  and  C_10
REMARK    7  A    between atoms: N_13  and  C_14
REMARK    8  A    between atoms: C_18  and  C_19
REMARK    9  A    between atoms: C_23  and  C_24
REMARK                            x       y       z     vdW  Elec       q    Type
REMARK                         _______ _______ _______ _____ _____    ______ ____
ROOT
ATOM      1  C   UNL     1       4.006   4.076  19.145  0.00  0.00    +0.000 C 
ATOM      2  C   UNL     1       2.489   4.334  19.317  0.00  0.00    +0.000 C 
ATOM      3  C   UNL     1       2.004   5.496  18.457  0.00  0.00    +0.000 C 
ATOM      4  N   UNL     1       2.752   6.683  18.860  0.00  0.00    +0.000 N 
ATOM      5  C   UNL     1       4.207   6.607  18.720  0.00  0.00    +0.000 C 
ATOM      6  C   UNL     1       4.720   5.404  19.509  0.00  0.00    +0.000 C 
ENDROOT
BRANCH   4   7
ATOM      7  C   UNL     1       2.154   7.933  18.866  0.00  0.00    +0.000 A 
ATOM      8  C   UNL     1       2.357   8.801  17.788  0.00  0.00    +0.000 A 
ATOM      9  C   UNL     1       1.800  10.075  17.768  0.00  0.00    +0.000 A 
ATOM     10  C   UNL     1       1.043  10.514  18.848  0.00  0.00    +0.000 A 
ATOM     11  C   UNL     1       0.837   9.693  19.970  0.00  0.00    +0.000 A 
ATOM     12  C   UNL     1       1.399   8.401  19.945  0.00  0.00    +0.000 A 
BRANCH  11  13
ATOM     13  C   UNL     1       0.090  10.185  21.146  0.00  0.00    +0.000 A 
ATOM     14  C   UNL     1      -0.029   9.452  22.311  0.00  0.00    +0.000 A 
ATOM     15  C   UNL     1      -0.698  10.061  23.343  0.00  0.00    +0.000 A 
ATOM     16  N   UNL     1      -1.225  11.284  23.270  0.00  0.00    +0.000 NA
ATOM     17  C   UNL     1      -1.077  11.929  22.092  0.00  0.00    +0.000 A 
ATOM     18  C   UNL     1      -1.660  13.294  21.960  0.00  0.00    +0.000 C 
ATOM     19  N   UNL     1      -0.441  11.416  21.022  0.00  0.00    +0.000 NA
ENDBRANCH  11  13
ENDBRANCH   4   7
BRANCH   1  20
ATOM     20  N   UNL     1       4.390   3.539  17.807  0.00  0.00    +0.000 NA
ATOM     21  C   UNL     1       3.903   2.171  17.572  0.00  0.00    +0.000 C 
BRANCH  20  22
ATOM     22  C   UNL     1       5.865   3.600  17.561  0.00  0.00    +0.000 C 
BRANCH  22  26
ATOM     23  C   UNL     1       6.526   4.336  14.160  0.00  0.00    +0.000 A 
ATOM     24  N   UNL     1       7.314   5.257  14.672  0.00  0.00    +0.000 NA
ATOM     25  N   UNL     1       7.160   5.180  16.043  0.00  0.00    +0.000 NA
ATOM     26  C   UNL     1       6.294   4.212  16.265  0.00  0.00    +0.000 A 
ATOM     27  O   UNL     1       5.807   3.659  15.107  0.00  0.00    +0.000 OA
BRANCH  23  29
ATOM     28  C   UNL     1       7.397   4.622  11.874  0.00  0.00    +0.000 C 
ATOM     29  C   UNL     1       6.421   3.863  12.764  0.00  0.00    +0.000 C 
ENDBRANCH  23  29
ENDBRANCH  22  26
ENDBRANCH  20  22
ENDBRANCH   1  20
TORSDOF 6
ENDMDL
MODEL 4
REMARK VINA RESULT:      -8.4      3.170      9.347
REMARK  Name = 
REMARK  9 active torsions:
REMARK  status: ('A' for Active; 'I' for Inactive)
REMARK    1  A    between atoms: C_1  and  C_2
REMARK    2  A    between atoms: C_2  and  C_3
REMARK    3  A    between atoms: C_6  and  C_7
REMARK    4  A    between atoms: C_7  and  N_8
REMARK    5  A    between atoms: N_8  and  C_9
REMARK    6  A    between atoms: N_8  and  C_10
REMARK    7  A    between atoms: N_13  and  C_14
REMARK    8  A    between atoms: C_18  and  C_19
REMARK    9  A    between atoms: C_23  and  C_24
REMARK                            x       y       z     vdW  Elec       q    Type
REMARK                         _______ _______ _______ _____ _____    ______ ____
ROOT
ATOM      1  C   UNL     1       0.151  10.410  19.462  0.00  0.00    +0.000 C 
ATOM      2  C   UNL     1       0.087   9.385  20.622  0.00  0.00    +0.000 C 
ATOM      3  C   UNL     1       1.411   8.655  20.816  0.00  0.00    +0.000 C 
ATOM      4  N   UNL     1       1.719   7.965  19.567  0.00  0.00    +0.000 N 
ATOM      5  C   UNL     1       1.849   8.807  18.378  0.00  0.00    +0.000 C 
ATOM      6  C   UNL     1       0.565   9.614  18.198  0.00  0.00    +0.000 C 
ENDROOT
BRANCH   4   7
ATOM      7  C   UNL     1       2.348   6.730  19.574  0.00  0.00    +0.000 A 
ATOM      8  C   UNL     1       1.878   5.720  20.420  0.00  0.00    +0.000 A 
ATOM      9  C   UNL     1       2.498   4.477  20.480  0.00  0.00    +0.000 A 
ATOM     10  C   UNL     1       3.626   4.230  19.704  0.00  0.00    +0.000 A 
ATOM     11  C   UNL     1       4.158   5.222  18.863  0.00  0.00    +0.000 A 
ATOM     12  C   UNL     1       3.489   6.463  18.813  0.00  0.00    +0.000 A 
BRANCH  11  13
ATOM     13  C   UNL     1       5.394   4.983  18.091  0.00  0.00    +0.000 A 
ATOM     14  C   UNL     1       6.653   5.101  18.647  0.00  0.00    +0.000 A 
ATOM     15  C   UNL     1       7.708   4.788  17.828  0.00  0.00    +0.000 A 
ATOM     16  N   UNL     1       7.576   4.392  16.561  0.00  0.00    +0.000 NA
ATOM     17  C   UNL     1       6.312   4.315  16.088  0.00  0.00    +0.000 A 
ATOM     18  C   UNL     1       6.116   3.889  14.674  0.00  0.00    +0.000 C 
ATOM     19  N   UNL     1       5.214   4.604  16.811  0.00  0.00    +0.000 NA
ENDBRANCH  11  13
ENDBRANCH   4   7
BRANCH   1  20
ATOM     20  N   UNL     1       1.020  11.592  19.735  0.00  0.00    +0.000 NA
ATOM     21  C   UNL     1       0.666  12.295  20.977  0.00  0.00    +0.000 C 
BRANCH  20  22
ATOM     22  C   UNL     1       1.051  12.561  18.595  0.00  0.00    +0.000 C 
BRANCH  22  26
ATOM     23  C   UNL     1       2.453  15.798  18.924  0.00  0.00    +0.000 A 
ATOM     24  N   UNL     1       3.585  15.161  18.706  0.00  0.00    +0.000 NA
ATOM     25  N   UNL     1       3.261  13.822  18.602  0.00  0.00    +0.000 NA
ATOM     26  C   UNL     1       1.956  13.742  18.755  0.00  0.00    +0.000 A 
ATOM     27  O   UNL     1       1.376  14.959  19.015  0.00  0.00    +0.000 OA
BRANCH  23  29
ATOM     28  C   UNL     1       1.571  17.654  20.280  0.00  0.00    +0.000 C 
ATOM     29  C   UNL     1       2.184  17.251  18.945  0.00  0.00    +0.000 C 
ENDBRANCH  23  29
ENDBRANCH  22  26
ENDBRANCH  20  22
ENDBRANCH   1  20
TORSDOF 6
ENDMDL
MODEL 5
REMARK VINA RESULT:      -8.3      3.018      4.017
REMARK  Name = 
REMARK  9 active torsions:
REMARK  status: ('A' for Active; 'I' for Inactive)
REMARK    1  A    between atoms: C_1  and  C_2
REMARK    2  A    between atoms: C_2  and  C_3
REMARK    3  A    between atoms: C_6  and  C_7
REMARK    4  A    between atoms: C_7  and  N_8
REMARK    5  A    between atoms: N_8  and  C_9
REMARK    6  A    between atoms: N_8  and  C_10
REMARK    7  A    between atoms: N_13  and  C_14
REMARK    8  A    between atoms: C_18  and  C_19
REMARK    9  A    between atoms: C_23  and  C_24
REMARK                            x       y       z     vdW  Elec       q    Type
REMARK                         _______ _______ _______ _____ _____    ______ ____
ROOT
ATOM      1  C   UNL     1       4.151   6.142  18.219  0.00  0.00    +0.000 C 
ATOM      2  C   UNL     1       3.438   6.227  19.592  0.00  0.00    +0.000 C 
ATOM      3  C   UNL     1       2.000   6.715  19.462  0.00  0.00    +0.000 C 
ATOM      4  N   UNL     1       2.039   8.039  18.848  0.00  0.00    +0.000 N 
ATOM      5  C   UNL     1       2.654   8.117  17.522  0.00  0.00    +0.000 C 
ATOM      6  C   UNL     1       4.074   7.561  17.599  0.00  0.00    +0.000 C 
ENDROOT
BRANCH   4   7
ATOM      7  C   UNL     1       1.132   9.020  19.214  0.00  0.00    +0.000 A 
ATOM      8  C   UNL     1       1.249   9.635  20.465  0.00  0.00    +0.000 A 
ATOM      9  C   UNL     1       0.343  10.603  20.885  0.00  0.00    +0.000 A 
ATOM     10  C   UNL     1      -0.719  10.958  20.061  0.00  0.00    +0.000 A 
ATOM     11  C   UNL     1      -0.901  10.346  18.809  0.00  0.00    +0.000 A 
ATOM     12  C   UNL     1       0.050   9.385  18.408  0.00  0.00    +0.000 A 
BRANCH  11  13
ATOM     13  C   UNL     1      -2.066  10.673  17.963  0.00  0.00    +0.000 A 
ATOM     14  C   UNL     1      -3.130  11.427  18.421  0.00  0.00    +0.000 A 
ATOM     15  C   UNL     1      -4.113  11.705  17.506  0.00  0.00    +0.000 A 
ATOM     16  N   UNL     1      -4.090  11.290  16.238  0.00  0.00    +0.000 NA
ATOM     17  C   UNL     1      -3.022  10.547  15.872  0.00  0.00    +0.000 A 
ATOM     18  C   UNL     1      -2.959  10.052  14.469  0.00  0.00    +0.000 C 
ATOM     19  N   UNL     1      -2.009  10.218  16.696  0.00  0.00    +0.000 NA
ENDBRANCH  11  13
ENDBRANCH   4   7
BRANCH   1  20
ATOM     20  N   UNL     1       3.631   5.070  17.322  0.00  0.00    +0.000 NA
ATOM     21  C   UNL     1       2.466   4.365  17.880  0.00  0.00    +0.000 C 
BRANCH  20  22
ATOM     22  C   UNL     1       4.683   4.080  16.934  0.00  0.00    +0.000 C 
BRANCH  22  26
ATOM     23  C   UNL     1       6.534   4.442  13.936  0.00  0.00    +0.000 A 
ATOM     24  N   UNL     1       7.298   5.211  14.682  0.00  0.00    +0.000 NA
ATOM     25  N   UNL     1       6.703   5.256  15.927  0.00  0.00    +0.000 NA
ATOM     26  C   UNL     1       5.624   4.505  15.852  0.00  0.00    +0.000 A 
ATOM     27  O   UNL     1       5.423   3.990  14.594  0.00  0.00    +0.000 OA
BRANCH  23  29
ATOM     28  C   UNL     1       5.533   3.206  12.055  0.00  0.00    +0.000 C 
ATOM     29  C   UNL     1       6.778   3.911  12.578  0.00  0.00    +0.000 C 
ENDBRANCH  23  29
ENDBRANCH  22  26
ENDBRANCH  20  22
ENDBRANCH   1  20
TORSDOF 6
ENDMDL
MODEL 6
REMARK VINA RESULT:      -8.2      3.019      9.566
REMARK  Name = 
REMARK  9 active torsions:
REMARK  status: ('A' for Active; 'I' for Inactive)
REMARK    1  A    between atoms: C_1  and  C_2
REMARK    2  A    between atoms: C_2  and  C_3
REMARK    3  A    between atoms: C_6  and  C_7
REMARK    4  A    between atoms: C_7  and  N_8
REMARK    5  A    between atoms: N_8  and  C_9
REMARK    6  A    between atoms: N_8  and  C_10
REMARK    7  A    between atoms: N_13  and  C_14
REMARK    8  A    between atoms: C_18  and  C_19
REMARK    9  A    between atoms: C_23  and  C_24
REMARK                            x       y       z     vdW  Elec       q    Type
REMARK                         _______ _______ _______ _____ _____    ______ ____
ROOT
ATOM      1  C   UNL     1       0.194  10.495  19.588  0.00  0.00    +0.000 C 
ATOM      2  C   UNL     1       0.047   9.416  20.690  0.00  0.00    +0.000 C 
ATOM      3  C   UNL     1       1.347   8.653  20.922  0.00  0.00    +0.000 C 
ATOM      4  N   UNL     1       1.716   8.020  19.660  0.00  0.00    +0.000 N 
ATOM      5  C   UNL     1       1.928   8.918  18.524  0.00  0.00    +0.000 C 
ATOM      6  C   UNL     1       0.669   9.755  18.311  0.00  0.00    +0.000 C 
ENDROOT
BRANCH   4   7
ATOM      7  C   UNL     1       2.326   6.776  19.641  0.00  0.00    +0.000 A 
ATOM      8  C   UNL     1       1.838   5.755  20.464  0.00  0.00    +0.000 A 
ATOM      9  C   UNL     1       2.438   4.501  20.498  0.00  0.00    +0.000 A 
ATOM     10  C   UNL     1       3.563   4.253  19.719  0.00  0.00    +0.000 A 
ATOM     11  C   UNL     1       4.113   5.255  18.901  0.00  0.00    +0.000 A 
ATOM     12  C   UNL     1       3.464   6.507  18.876  0.00  0.00    +0.000 A 
BRANCH  11  13
ATOM     13  C   UNL     1       5.347   5.013  18.127  0.00  0.00    +0.000 A 
ATOM     14  C   UNL     1       6.607   5.108  18.684  0.00  0.00    +0.000 A 
ATOM     15  C   UNL     1       7.659   4.795  17.862  0.00  0.00    +0.000 A 
ATOM     16  N   UNL     1       7.523   4.420  16.589  0.00  0.00    +0.000 NA
ATOM     17  C   UNL     1       6.259   4.364  16.114  0.00  0.00    +0.000 A 
ATOM     18  C   UNL     1       6.059   3.961  14.694  0.00  0.00    +0.000 C 
ATOM     19  N   UNL     1       5.163   4.655  16.841  0.00  0.00    +0.000 NA
ENDBRANCH  11  13
ENDBRANCH   4   7
BRANCH   1  20
ATOM     20  N   UNL     1       1.063  11.646  19.969  0.00  0.00    +0.000 NA
ATOM     21  C   UNL     1       0.474  12.493  21.018  0.00  0.00    +0.000 C 
BRANCH  20  22
ATOM     22  C   UNL     1       1.450  12.491  18.796  0.00  0.00    +0.000 C 
BRANCH  22  26
ATOM     23  C   UNL     1       0.909  15.971  19.172  0.00  0.00    +0.000 A 
ATOM     24  N   UNL     1      -0.318  15.663  18.809  0.00  0.00    +0.000 NA
ATOM     25  N   UNL     1      -0.315  14.307  18.548  0.00  0.00    +0.000 NA
ATOM     26  C   UNL     1       0.911  13.886  18.778  0.00  0.00    +0.000 A 
ATOM     27  O   UNL     1       1.763  14.903  19.133  0.00  0.00    +0.000 OA
BRANCH  23  29
ATOM     28  C   UNL     1       2.918  17.103  20.034  0.00  0.00    +0.000 C 
ATOM     29  C   UNL     1       1.433  17.238  19.724  0.00  0.00    +0.000 C 
ENDBRANCH  23  29
ENDBRANCH  22  26
ENDBRANCH  20  22
ENDBRANCH   1  20
TORSDOF 6
ENDMDL
MODEL 7
REMARK VINA RESULT:      -8.2      2.149      3.256
REMARK  Name = 
REMARK  9 active torsions:
REMARK  status: ('A' for Active; 'I' for Inactive)
REMARK    1  A    between atoms: C_1  and  C_2
REMARK    2  A    between atoms: C_2  and  C_3
REMARK    3  A    between atoms: C_6  and  C_7
REMARK    4  A    between atoms: C_7  and  N_8
REMARK    5  A    between atoms: N_8  and  C_9
REMARK    6  A    between atoms: N_8  and  C_10
REMARK    7  A    between atoms: N_13  and  C_14
REMARK    8  A    between atoms: C_18  and  C_19
REMARK    9  A    between atoms: C_23  and  C_24
REMARK                            x       y       z     vdW  Elec       q    Type
REMARK                         _______ _______ _______ _____ _____    ______ ____
ROOT
ATOM      1  C   UNL     1       4.846   5.014  17.427  0.00  0.00    +0.000 C 
ATOM      2  C   UNL     1       4.131   6.242  16.810  0.00  0.00    +0.000 C 
ATOM      3  C   UNL     1       3.933   7.361  17.827  0.00  0.00    +0.000 C 
ATOM      4  N   UNL     1       3.131   6.824  18.921  0.00  0.00    +0.000 N 
ATOM      5  C   UNL     1       3.694   5.676  19.632  0.00  0.00    +0.000 C 
ATOM      6  C   UNL     1       3.977   4.560  18.629  0.00  0.00    +0.000 C 
ENDROOT
BRANCH   4   7
ATOM      7  C   UNL     1       2.202   7.616  19.577  0.00  0.00    +0.000 A 
ATOM      8  C   UNL     1       1.608   7.151  20.755  0.00  0.00    +0.000 A 
ATOM      9  C   UNL     1       0.650   7.901  21.429  0.00  0.00    +0.000 A 
ATOM     10  C   UNL     1       0.249   9.129  20.916  0.00  0.00    +0.000 A 
ATOM     11  C   UNL     1       0.789   9.626  19.718  0.00  0.00    +0.000 A 
ATOM     12  C   UNL     1       1.774   8.848  19.075  0.00  0.00    +0.000 A 
BRANCH  11  13
ATOM     13  C   UNL     1       0.314  10.897  19.138  0.00  0.00    +0.000 A 
ATOM     14  C   UNL     1      -0.980  11.073  18.687  0.00  0.00    +0.000 A 
ATOM     15  C   UNL     1      -1.298  12.327  18.231  0.00  0.00    +0.000 A 
ATOM     16  N   UNL     1      -0.440  13.348  18.200  0.00  0.00    +0.000 NA
ATOM     17  C   UNL     1       0.809  13.092  18.645  0.00  0.00    +0.000 A 
ATOM     18  C   UNL     1       1.805  14.199  18.619  0.00  0.00    +0.000 C 
ATOM     19  N   UNL     1       1.218  11.895  19.109  0.00  0.00    +0.000 NA
ENDBRANCH  11  13
ENDBRANCH   4   7
BRANCH   1  20
ATOM     20  N   UNL     1       6.276   5.250  17.780  0.00  0.00    +0.000 NA
ATOM     21  C   UNL     1       6.653   6.672  17.741  0.00  0.00    +0.000 C 
BRANCH  20  22
ATOM     22  C   UNL     1       7.219   4.453  16.935  0.00  0.00    +0.000 C 
BRANCH  22  26
ATOM     23  C   UNL     1       6.484   4.092  13.489  0.00  0.00    +0.000 A 
ATOM     24  N   UNL     1       7.352   5.072  13.359  0.00  0.00    +0.000 NA
ATOM     25  N   UNL     1       7.738   5.419  14.639  0.00  0.00    +0.000 NA
ATOM     26  C   UNL     1       7.083   4.620  15.455  0.00  0.00    +0.000 A 
ATOM     27  O   UNL     1       6.223   3.776  14.795  0.00  0.00    +0.000 OA
BRANCH  23  29
ATOM     28  C   UNL     1       6.969   2.587  11.601  0.00  0.00    +0.000 C 
ATOM     29  C   UNL     1       5.881   3.229  12.451  0.00  0.00    +0.000 C 
ENDBRANCH  23  29
ENDBRANCH  22  26
ENDBRANCH  20  22
ENDBRANCH   1  20
TORSDOF 6
ENDMDL
MODEL 8
REMARK VINA RESULT:      -8.1      3.877     10.459
REMARK  Name = 
REMARK  9 active torsions:
REMARK  status: ('A' for Active; 'I' for Inactive)
REMARK    1  A    between atoms: C_1  and  C_2
REMARK    2  A    between atoms: C_2  and  C_3
REMARK    3  A    between atoms: C_6  and  C_7
REMARK    4  A    between atoms: C_7  and  N_8
REMARK    5  A    between atoms: N_8  and  C_9
REMARK    6  A    between atoms: N_8  and  C_10
REMARK    7  A    between atoms: N_13  and  C_14
REMARK    8  A    between atoms: C_18  and  C_19
REMARK    9  A    between atoms: C_23  and  C_24
REMARK                            x       y       z     vdW  Elec       q    Type
REMARK                         _______ _______ _______ _____ _____    ______ ____
ROOT
ATOM      1  C   UNL     1      -0.527  11.869  21.865  0.00  0.00    +0.000 C 
ATOM      2  C   UNL     1       0.638  12.147  20.882  0.00  0.00    +0.000 C 
ATOM      3  C   UNL     1       0.646  11.171  19.711  0.00  0.00    +0.000 C 
ATOM      4  N   UNL     1       0.779   9.826  20.262  0.00  0.00    +0.000 N 
ATOM      5  C   UNL     1      -0.272   9.398  21.186  0.00  0.00    +0.000 C 
ATOM      6  C   UNL     1      -0.361  10.400  22.335  0.00  0.00    +0.000 C 
ENDROOT
BRANCH   4   7
ATOM      7  C   UNL     1       1.507   8.853  19.595  0.00  0.00    +0.000 A 
ATOM      8  C   UNL     1       2.052   9.139  18.338  0.00  0.00    +0.000 A 
ATOM      9  C   UNL     1       2.763   8.183  17.621  0.00  0.00    +0.000 A 
ATOM     10  C   UNL     1       2.922   6.905  18.145  0.00  0.00    +0.000 A 
ATOM     11  C   UNL     1       2.365   6.556  19.387  0.00  0.00    +0.000 A 
ATOM     12  C   UNL     1       1.669   7.558  20.095  0.00  0.00    +0.000 A 
BRANCH  11  13
ATOM     13  C   UNL     1       2.475   5.181  19.912  0.00  0.00    +0.000 A 
ATOM     14  C   UNL     1       2.076   4.836  21.189  0.00  0.00    +0.000 A 
ATOM     15  C   UNL     1       2.179   3.509  21.518  0.00  0.00    +0.000 A 
ATOM     16  N   UNL     1       2.637   2.569  20.690  0.00  0.00    +0.000 NA
ATOM     17  C   UNL     1       3.020   2.989  19.464  0.00  0.00    +0.000 A 
ATOM     18  C   UNL     1       3.550   1.976  18.508  0.00  0.00    +0.000 C 
ATOM     19  N   UNL     1       2.961   4.268  19.048  0.00  0.00    +0.000 NA
ENDBRANCH  11  13
ENDBRANCH   4   7
BRANCH   1  20
ATOM     20  N   UNL     1      -1.880  12.169  21.314  0.00  0.00    +0.000 NA
ATOM     21  C   UNL     1      -1.857  12.523  19.886  0.00  0.00    +0.000 C 
BRANCH  20  22
ATOM     22  C   UNL     1      -2.596  13.232  22.087  0.00  0.00    +0.000 C 
BRANCH  22  26
ATOM     23  C   UNL     1      -5.620  12.780  23.875  0.00  0.00    +0.000 A 
ATOM     24  N   UNL     1      -4.879  11.994  24.626  0.00  0.00    +0.000 NA
ATOM     25  N   UNL     1      -3.623  11.981  24.051  0.00  0.00    +0.000 NA
ATOM     26  C   UNL     1      -3.689  12.766  22.996  0.00  0.00    +0.000 A 
ATOM     27  O   UNL     1      -4.949  13.274  22.790  0.00  0.00    +0.000 OA
BRANCH  23  29
ATOM     28  C   UNL     1      -7.248  14.523  23.260  0.00  0.00    +0.000 C 
ATOM     29  C   UNL     1      -6.987  13.289  24.114  0.00  0.00    +0.000 C 
ENDBRANCH  23  29
ENDBRANCH  22  26
ENDBRANCH  20  22
ENDBRANCH   1  20
TORSDOF 6
ENDMDL
MODEL 9
REMARK VINA RESULT:      -8.1      3.148      8.892
REMARK  Name = 
REMARK  9 active torsions:
REMARK  status: ('A' for Active; 'I' for Inactive)
REMARK    1  A    between atoms: C_1  and  C_2
REMARK    2  A    between atoms: C_2  and  C_3
REMARK    3  A    between atoms: C_6  and  C_7
REMARK    4  A    between atoms: C_7  and  N_8
REMARK    5  A    between atoms: N_8  and  C_9
REMARK    6  A    between atoms: N_8  and  C_10
REMARK    7  A    between atoms: N_13  and  C_14
REMARK    8  A    between atoms: C_18  and  C_19
REMARK    9  A    between atoms: C_23  and  C_24
REMARK                            x       y       z     vdW  Elec       q    Type
REMARK                         _______ _______ _______ _____ _____    ______ ____
ROOT
ATOM      1  C   UNL     1      -0.347  10.362  20.292  0.00  0.00    +0.000 C 
ATOM      2  C   UNL     1      -0.323   9.105  21.198  0.00  0.00    +0.000 C 
ATOM      3  C   UNL     1       1.065   8.479  21.274  0.00  0.00    +0.000 C 
ATOM      4  N   UNL     1       1.457   8.114  19.916  0.00  0.00    +0.000 N 
ATOM      5  C   UNL     1       1.517   9.206  18.944  0.00  0.00    +0.000 C 
ATOM      6  C   UNL     1       0.161   9.906  18.900  0.00  0.00    +0.000 C 
ENDROOT
BRANCH   4   7
ATOM      7  C   UNL     1       2.208   6.974  19.676  0.00  0.00    +0.000 A 
ATOM      8  C   UNL     1       1.976   5.822  20.435  0.00  0.00    +0.000 A 
ATOM      9  C   UNL     1       2.725   4.666  20.247  0.00  0.00    +0.000 A 
ATOM     10  C   UNL     1       3.746   4.652  19.303  0.00  0.00    +0.000 A 
ATOM     11  C   UNL     1       4.042   5.793  18.538  0.00  0.00    +0.000 A 
ATOM     12  C   UNL     1       3.246   6.939  18.741  0.00  0.00    +0.000 A 
BRANCH  11  13
ATOM     13  C   UNL     1       5.169   5.800  17.584  0.00  0.00    +0.000 A 
ATOM     14  C   UNL     1       6.340   6.494  17.820  0.00  0.00    +0.000 A 
ATOM     15  C   UNL     1       7.326   6.358  16.876  0.00  0.00    +0.000 A 
ATOM     16  N   UNL     1       7.205   5.614  15.775  0.00  0.00    +0.000 NA
ATOM     17  C   UNL     1       6.025   4.977  15.611  0.00  0.00    +0.000 A 
ATOM     18  C   UNL     1       5.840   4.144  14.390  0.00  0.00    +0.000 C 
ATOM     19  N   UNL     1       4.997   5.050  16.478  0.00  0.00    +0.000 NA
ENDBRANCH  11  13
ENDBRANCH   4   7
BRANCH   1  20
ATOM     20  N   UNL     1       0.395  11.532  20.845  0.00  0.00    +0.000 NA
ATOM     21  C   UNL     1      -0.269  12.139  22.009  0.00  0.00    +0.000 C 
BRANCH  20  22
ATOM     22  C   UNL     1       0.670  12.581  19.815  0.00  0.00    +0.000 C 
BRANCH  22  26
ATOM     23  C   UNL     1       3.602  14.527  19.413  0.00  0.00    +0.000 A 
ATOM     24  N   UNL     1       3.785  14.235  20.683  0.00  0.00    +0.000 NA
ATOM     25  N   UNL     1       2.683  13.498  21.072  0.00  0.00    +0.000 NA
ATOM     26  C   UNL     1       1.914  13.389  20.010  0.00  0.00    +0.000 A 
ATOM     27  O   UNL     1       2.412  14.065  18.922  0.00  0.00    +0.000 OA
BRANCH  23  29
ATOM     28  C   UNL     1       4.745  16.617  18.786  0.00  0.00    +0.000 C 
ATOM     29  C   UNL     1       4.537  15.146  18.449  0.00  0.00    +0.000 C 
ENDBRANCH  23  29
ENDBRANCH  22  26
ENDBRANCH  20  22
ENDBRANCH   1  20
TORSDOF 6
ENDMDL
