MODEL 1
REMARK VINA RESULT:      -8.8      0.000      0.000
REMARK  Name = 
REMARK  7 active torsions:
REMARK  status: ('A' for Active; 'I' for Inactive)
REMARK    1  A    between atoms: C_1  and  C_2
REMARK    2  A    between atoms: C_6  and  C_7
REMARK    3  A    between atoms: C_11  and  C_12
REMARK    4  A    between atoms: C_18  and  C_19
REMARK    5  A    between atoms: C_19  and  C_20
REMARK    6  A    between atoms: C_20  and  C_21
REMARK    7  A    between atoms: C_24  and  C_25
REMARK                            x       y       z     vdW  Elec       q    Type
REMARK                         _______ _______ _______ _____ _____    ______ ____
ROOT
ATOM      1  C   UNL     1       3.949   3.487  18.502  0.00  0.00    +0.000 C 
ATOM      2  O   UNL     1       3.488   2.854  17.560  0.00  0.00    +0.000 OA
ATOM      3  N   UNL     1       5.178   4.140  18.428  0.00  0.00    +0.000 N 
ATOM      4  C   UNL     1       5.863   4.760  19.547  0.00  0.00    +0.000 C 
ATOM      5  C   UNL     1       6.854   5.692  18.896  0.00  0.00    +0.000 C 
ATOM      6  C   UNL     1       7.274   4.929  17.647  0.00  0.00    +0.000 C 
ATOM      7  C   UNL     1       6.020   4.134  17.223  0.00  0.00    +0.000 C 
ENDROOT
BRANCH   1  12
ATOM      8  C   UNL     1       2.553   4.826  20.156  0.00  0.00    +0.000 A 
ATOM      9  O   UNL     1       1.997   4.564  21.386  0.00  0.00    +0.000 OA
ATOM     10  C   UNL     1       2.320   3.273  21.639  0.00  0.00    +0.000 A 
ATOM     11  N   UNL     1       3.022   2.678  20.705  0.00  0.00    +0.000 NA
ATOM     12  C   UNL     1       3.193   3.669  19.742  0.00  0.00    +0.000 A 
BRANCH   8  18
ATOM     13  C   UNL     1       0.861   9.444  20.909  0.00  0.00    +0.000 C 
ATOM     14  C   UNL     1       1.512   8.447  19.999  0.00  0.00    +0.000 A 
ATOM     15  C   UNL     1       1.808   8.759  18.670  0.00  0.00    +0.000 A 
ATOM     16  C   UNL     1       2.397   7.806  17.840  0.00  0.00    +0.000 A 
ATOM     17  C   UNL     1       2.673   6.524  18.327  0.00  0.00    +0.000 A 
ATOM     18  C   UNL     1       2.357   6.178  19.647  0.00  0.00    +0.000 A 
ATOM     19  C   UNL     1       1.801   7.162  20.479  0.00  0.00    +0.000 A 
ENDBRANCH   8  18
ENDBRANCH   1  12
BRANCH   7  20
ATOM     20  C   UNL     1       5.310   4.721  15.990  0.00  0.00    +0.000 C 
BRANCH  20  21
ATOM     21  C   UNL     1       6.245   5.497  15.054  0.00  0.00    +0.000 C 
BRANCH  21  22
ATOM     22  C   UNL     1       6.500   4.754  13.794  0.00  0.00    +0.000 A 
ATOM     23  N   UNL     1       7.462   5.097  12.929  0.00  0.00    +0.000 NA
ATOM     24  O   UNL     1       7.340   4.135  11.923  0.00  0.00    +0.000 OA
ATOM     25  C   UNL     1       6.307   3.323  12.290  0.00  0.00    +0.000 A 
ATOM     26  C   UNL     1       5.976   2.207  11.387  0.00  0.00    +0.000 C 
ATOM     27  N   UNL     1       5.750   3.666  13.428  0.00  0.00    +0.000 NA
ENDBRANCH  21  22
ENDBRANCH  20  21
ENDBRANCH   7  20
TORSDOF 5
ENDMDL
MODEL 2
REMARK VINA RESULT:      -8.3      0.829      1.277
REMARK  Name = 
REMARK  7 active torsions:
REMARK  status: ('A' for Active; 'I' for Inactive)
REMARK    1  A    between atoms: C_1  and  C_2
REMARK    2  A    between atoms: C_6  and  C_7
REMARK    3  A    between atoms: C_11  and  C_12
REMARK    4  A    between atoms: C_18  and  C_19
REMARK    5  A    between atoms: C_19  and  C_20
REMARK    6  A    between atoms: C_20  and  C_21
REMARK    7  A    between atoms: C_24  and  C_25
REMARK                            x       y       z     vdW  Elec       q    Type
REMARK                         _______ _______ _______ _____ _____    ______ ____
ROOT
ATOM      1  C   UNL     1       4.023   3.541  18.529  0.00  0.00    +0.000 C 
ATOM      2  O   UNL     1       3.580   2.860  17.613  0.00  0.00    +0.000 OA
ATOM      3  N   UNL     1       5.246   4.203  18.439  0.00  0.00    +0.000 N 
ATOM      4  C   UNL     1       5.911   4.882  19.536  0.00  0.00    +0.000 C 
ATOM      5  C   UNL     1       6.900   5.794  18.853  0.00  0.00    +0.000 C 
ATOM      6  C   UNL     1       7.343   4.978  17.646  0.00  0.00    +0.000 C 
ATOM      7  C   UNL     1       6.102   4.151  17.245  0.00  0.00    +0.000 C 
ENDROOT
BRANCH   1  12
ATOM      8  C   UNL     1       2.615   4.948  20.115  0.00  0.00    +0.000 A 
ATOM      9  O   UNL     1       2.038   4.733  21.345  0.00  0.00    +0.000 OA
ATOM     10  C   UNL     1       2.346   3.449  21.647  0.00  0.00    +0.000 A 
ATOM     11  N   UNL     1       3.057   2.817  20.745  0.00  0.00    +0.000 NA
ATOM     12  C   UNL     1       3.251   3.772  19.751  0.00  0.00    +0.000 A 
BRANCH   8  18
ATOM     13  C   UNL     1       0.888   9.583  20.656  0.00  0.00    +0.000 C 
ATOM     14  C   UNL     1       1.576   8.560  19.804  0.00  0.00    +0.000 A 
ATOM     15  C   UNL     1       1.926   8.831  18.479  0.00  0.00    +0.000 A 
ATOM     16  C   UNL     1       2.550   7.854  17.704  0.00  0.00    +0.000 A 
ATOM     17  C   UNL     1       2.807   6.589  18.241  0.00  0.00    +0.000 A 
ATOM     18  C   UNL     1       2.438   6.283  19.557  0.00  0.00    +0.000 A 
ATOM     19  C   UNL     1       1.848   7.291  20.335  0.00  0.00    +0.000 A 
ENDBRANCH   8  18
ENDBRANCH   1  12
BRANCH   7  20
ATOM     20  C   UNL     1       5.400   4.673  15.978  0.00  0.00    +0.000 C 
BRANCH  20  21
ATOM     21  C   UNL     1       5.428   3.681  14.809  0.00  0.00    +0.000 C 
BRANCH  21  22
ATOM     22  C   UNL     1       6.333   4.137  13.724  0.00  0.00    +0.000 A 
ATOM     23  N   UNL     1       6.401   3.534  12.531  0.00  0.00    +0.000 NA
ATOM     24  O   UNL     1       7.355   4.292  11.847  0.00  0.00    +0.000 OA
ATOM     25  C   UNL     1       7.763   5.267  12.710  0.00  0.00    +0.000 A 
ATOM     26  C   UNL     1       8.776   6.218  12.220  0.00  0.00    +0.000 C 
ATOM     27  N   UNL     1       7.174   5.209  13.882  0.00  0.00    +0.000 NA
ENDBRANCH  21  22
ENDBRANCH  20  21
ENDBRANCH   7  20
TORSDOF 5
ENDMDL
MODEL 3
REMARK VINA RESULT:      -8.0      2.333      7.204
REMARK  Name = 
REMARK  7 active torsions:
REMARK  status: ('A' for Active; 'I' for Inactive)
REMARK    1  A    between atoms: C_1  and  C_2
REMARK    2  A    between atoms: C_6  and  C_7
REMARK    3  A    between atoms: C_11  and  C_12
REMARK    4  A    between atoms: C_18  and  C_19
REMARK    5  A    between atoms: C_19  and  C_20
REMARK    6  A    between atoms: C_20  and  C_21
REMARK    7  A    between atoms: C_24  and  C_25
REMARK                            x       y       z     vdW  Elec       q    Type
REMARK                         _______ _______ _______ _____ _____    ______ ____
ROOT
ATOM      1  C   UNL     1       4.437   4.339  17.035  0.00  0.00    +0.000 C 
ATOM      2  O   UNL     1       3.926   3.314  16.599  0.00  0.00    +0.000 OA
ATOM      3  N   UNL     1       3.675   5.424  17.465  0.00  0.00    +0.000 N 
ATOM      4  C   UNL     1       4.207   6.724  17.829  0.00  0.00    +0.000 C 
ATOM      5  C   UNL     1       3.100   7.356  18.638  0.00  0.00    +0.000 C 
ATOM      6  C   UNL     1       1.839   6.844  17.953  0.00  0.00    +0.000 C 
ATOM      7  C   UNL     1       2.206   5.434  17.442  0.00  0.00    +0.000 C 
ENDROOT
BRANCH   1  12
ATOM      8  C   UNL     1       6.835   4.534  16.206  0.00  0.00    +0.000 A 
ATOM      9  O   UNL     1       8.066   4.600  16.816  0.00  0.00    +0.000 OA
ATOM     10  C   UNL     1       7.793   4.568  18.143  0.00  0.00    +0.000 A 
ATOM     11  N   UNL     1       6.521   4.489  18.450  0.00  0.00    +0.000 NA
ATOM     12  C   UNL     1       5.885   4.454  17.212  0.00  0.00    +0.000 A 
BRANCH   8  18
ATOM     13  C   UNL     1       5.205   2.574  11.933  0.00  0.00    +0.000 C 
ATOM     14  C   UNL     1       6.069   3.574  12.641  0.00  0.00    +0.000 A 
ATOM     15  C   UNL     1       6.950   4.401  11.940  0.00  0.00    +0.000 A 
ATOM     16  C   UNL     1       7.754   5.310  12.626  0.00  0.00    +0.000 A 
ATOM     17  C   UNL     1       7.702   5.382  14.022  0.00  0.00    +0.000 A 
ATOM     18  C   UNL     1       6.849   4.541  14.749  0.00  0.00    +0.000 A 
ATOM     19  C   UNL     1       6.017   3.662  14.039  0.00  0.00    +0.000 A 
ENDBRANCH   8  18
ENDBRANCH   1  12
BRANCH   7  20
ATOM     20  C   UNL     1       1.583   4.300  18.276  0.00  0.00    +0.000 C 
BRANCH  20  21
ATOM     21  C   UNL     1       1.596   4.569  19.785  0.00  0.00    +0.000 C 
BRANCH  21  22
ATOM     22  C   UNL     1       2.413   3.565  20.514  0.00  0.00    +0.000 A 
ATOM     23  N   UNL     1       2.098   3.121  21.737  0.00  0.00    +0.000 NA
ATOM     24  O   UNL     1       3.118   2.206  22.013  0.00  0.00    +0.000 OA
ATOM     25  C   UNL     1       3.941   2.207  20.924  0.00  0.00    +0.000 A 
ATOM     26  C   UNL     1       5.107   1.307  20.962  0.00  0.00    +0.000 C 
ATOM     27  N   UNL     1       3.558   3.033  19.979  0.00  0.00    +0.000 NA
ENDBRANCH  21  22
ENDBRANCH  20  21
ENDBRANCH   7  20
TORSDOF 5
ENDMDL
MODEL 4
REMARK VINA RESULT:      -8.0      0.743      1.411
REMARK  Name = 
REMARK  7 active torsions:
REMARK  status: ('A' for Active; 'I' for Inactive)
REMARK    1  A    between atoms: C_1  and  C_2
REMARK    2  A    between atoms: C_6  and  C_7
REMARK    3  A    between atoms: C_11  and  C_12
REMARK    4  A    between atoms: C_18  and  C_19
REMARK    5  A    between atoms: C_19  and  C_20
REMARK    6  A    between atoms: C_20  and  C_21
REMARK    7  A    between atoms: C_24  and  C_25
REMARK                            x       y       z     vdW  Elec       q    Type
REMARK                         _______ _______ _______ _____ _____    ______ ____
ROOT
ATOM      1  C   UNL     1       3.357   3.423  18.258  0.00  0.00    +0.000 C 
ATOM      2  O   UNL     1       2.891   3.088  17.176  0.00  0.00    +0.000 OA
ATOM      3  N   UNL     1       4.630   3.978  18.380  0.00  0.00    +0.000 N 
ATOM      4  C   UNL     1       5.310   4.238  19.635  0.00  0.00    +0.000 C 
ATOM      5  C   UNL     1       6.387   5.228  19.265  0.00  0.00    +0.000 C 
ATOM      6  C   UNL     1       6.803   4.779  17.871  0.00  0.00    +0.000 C 
ATOM      7  C   UNL     1       5.516   4.216  17.231  0.00  0.00    +0.000 C 
ENDROOT
BRANCH   1  12
ATOM      8  C   UNL     1       1.970   4.395  20.158  0.00  0.00    +0.000 A 
ATOM      9  O   UNL     1       1.359   3.872  21.273  0.00  0.00    +0.000 OA
ATOM     10  C   UNL     1       1.608   2.542  21.209  0.00  0.00    +0.000 A 
ATOM     11  N   UNL     1       2.314   2.155  20.174  0.00  0.00    +0.000 NA
ATOM     12  C   UNL     1       2.567   3.340  19.488  0.00  0.00    +0.000 A 
BRANCH   8  18
ATOM     13  C   UNL     1       2.876   8.436  17.400  0.00  0.00    +0.000 C 
ATOM     14  C   UNL     1       2.315   7.836  18.653  0.00  0.00    +0.000 A 
ATOM     15  C   UNL     1       1.814   8.635  19.684  0.00  0.00    +0.000 A 
ATOM     16  C   UNL     1       1.314   8.050  20.846  0.00  0.00    +0.000 A 
ATOM     17  C   UNL     1       1.334   6.660  20.998  0.00  0.00    +0.000 A 
ATOM     18  C   UNL     1       1.859   5.839  19.992  0.00  0.00    +0.000 A 
ATOM     19  C   UNL     1       2.320   6.442  18.812  0.00  0.00    +0.000 A 
ENDBRANCH   8  18
ENDBRANCH   1  12
BRANCH   7  20
ATOM     20  C   UNL     1       4.896   5.151  16.176  0.00  0.00    +0.000 C 
BRANCH  20  21
ATOM     21  C   UNL     1       5.933   5.835  15.278  0.00  0.00    +0.000 C 
BRANCH  21  22
ATOM     22  C   UNL     1       6.255   5.011  14.085  0.00  0.00    +0.000 A 
ATOM     23  N   UNL     1       7.351   5.203  13.342  0.00  0.00    +0.000 NA
ATOM     24  O   UNL     1       7.245   4.215  12.359  0.00  0.00    +0.000 OA
ATOM     25  C   UNL     1       6.087   3.541  12.616  0.00  0.00    +0.000 A 
ATOM     26  C   UNL     1       5.744   2.428  11.714  0.00  0.00    +0.000 C 
ATOM     27  N   UNL     1       5.435   3.997  13.660  0.00  0.00    +0.000 NA
ENDBRANCH  21  22
ENDBRANCH  20  21
ENDBRANCH   7  20
TORSDOF 5
ENDMDL
MODEL 5
REMARK VINA RESULT:      -7.9      4.348      7.732
REMARK  Name = 
REMARK  7 active torsions:
REMARK  status: ('A' for Active; 'I' for Inactive)
REMARK    1  A    between atoms: C_1  and  C_2
REMARK    2  A    between atoms: C_6  and  C_7
REMARK    3  A    between atoms: C_11  and  C_12
REMARK    4  A    between atoms: C_18  and  C_19
REMARK    5  A    between atoms: C_19  and  C_20
REMARK    6  A    between atoms: C_20  and  C_21
REMARK    7  A    between atoms: C_24  and  C_25
REMARK                            x       y       z     vdW  Elec       q    Type
REMARK                         _______ _______ _______ _____ _____    ______ ____
ROOT
ATOM      1  C   UNL     1       2.219   7.482  19.082  0.00  0.00    +0.000 C 
ATOM      2  O   UNL     1       2.457   7.710  17.903  0.00  0.00    +0.000 OA
ATOM      3  N   UNL     1       1.649   8.435  19.924  0.00  0.00    +0.000 N 
ATOM      4  C   UNL     1       1.498   8.296  21.361  0.00  0.00    +0.000 C 
ATOM      5  C   UNL     1       0.451   9.322  21.717  0.00  0.00    +0.000 C 
ATOM      6  C   UNL     1       0.749  10.466  20.756  0.00  0.00    +0.000 C 
ATOM      7  C   UNL     1       1.277   9.784  19.475  0.00  0.00    +0.000 C 
ENDROOT
BRANCH   1  12
ATOM      8  C   UNL     1       3.520   5.320  19.419  0.00  0.00    +0.000 A 
ATOM      9  O   UNL     1       3.313   4.170  20.145  0.00  0.00    +0.000 OA
ATOM     10  C   UNL     1       2.140   4.379  20.789  0.00  0.00    +0.000 A 
ATOM     11  N   UNL     1       1.572   5.538  20.556  0.00  0.00    +0.000 NA
ATOM     12  C   UNL     1       2.443   6.157  19.663  0.00  0.00    +0.000 A 
BRANCH   8  18
ATOM     13  C   UNL     1       5.672   4.795  14.963  0.00  0.00    +0.000 C 
ATOM     14  C   UNL     1       5.806   5.076  16.429  0.00  0.00    +0.000 A 
ATOM     15  C   UNL     1       7.057   5.239  17.029  0.00  0.00    +0.000 A 
ATOM     16  C   UNL     1       7.153   5.483  18.398  0.00  0.00    +0.000 A 
ATOM     17  C   UNL     1       5.998   5.541  19.184  0.00  0.00    +0.000 A 
ATOM     18  C   UNL     1       4.734   5.350  18.612  0.00  0.00    +0.000 A 
ATOM     19  C   UNL     1       4.654   5.147  17.226  0.00  0.00    +0.000 A 
ENDBRANCH   8  18
ENDBRANCH   1  12
BRANCH   7  20
ATOM     20  C   UNL     1       0.258   9.774  18.321  0.00  0.00    +0.000 C 
BRANCH  20  21
ATOM     21  C   UNL     1      -1.163  10.157  18.754  0.00  0.00    +0.000 C 
BRANCH  21  22
ATOM     22  C   UNL     1      -2.014  10.510  17.590  0.00  0.00    +0.000 A 
ATOM     23  N   UNL     1      -2.781  11.607  17.555  0.00  0.00    +0.000 NA
ATOM     24  O   UNL     1      -3.380  11.535  16.295  0.00  0.00    +0.000 OA
ATOM     25  C   UNL     1      -2.912  10.393  15.711  0.00  0.00    +0.000 A 
ATOM     26  C   UNL     1      -3.393  10.087  14.353  0.00  0.00    +0.000 C 
ATOM     27  N   UNL     1      -2.078   9.722  16.469  0.00  0.00    +0.000 NA
ENDBRANCH  21  22
ENDBRANCH  20  21
ENDBRANCH   7  20
TORSDOF 5
ENDMDL
MODEL 6
REMARK VINA RESULT:      -7.9      3.187      4.588
REMARK  Name = 
REMARK  7 active torsions:
REMARK  status: ('A' for Active; 'I' for Inactive)
REMARK    1  A    between atoms: C_1  and  C_2
REMARK    2  A    between atoms: C_6  and  C_7
REMARK    3  A    between atoms: C_11  and  C_12
REMARK    4  A    between atoms: C_18  and  C_19
REMARK    5  A    between atoms: C_19  and  C_20
REMARK    6  A    between atoms: C_20  and  C_21
REMARK    7  A    between atoms: C_24  and  C_25
REMARK                            x       y       z     vdW  Elec       q    Type
REMARK                         _______ _______ _______ _____ _____    ______ ____
ROOT
ATOM      1  C   UNL     1       1.968   8.190  18.998  0.00  0.00    +0.000 C 
ATOM      2  O   UNL     1       2.164   8.889  18.012  0.00  0.00    +0.000 OA
ATOM      3  N   UNL     1       2.369   6.856  19.056  0.00  0.00    +0.000 N 
ATOM      4  C   UNL     1       2.022   5.925  20.114  0.00  0.00    +0.000 C 
ATOM      5  C   UNL     1       3.037   4.819  19.972  0.00  0.00    +0.000 C 
ATOM      6  C   UNL     1       3.243   4.732  18.465  0.00  0.00    +0.000 C 
ATOM      7  C   UNL     1       3.065   6.178  17.954  0.00  0.00    +0.000 C 
ENDROOT
BRANCH   1  12
ATOM      8  C   UNL     1       0.374   9.699  20.287  0.00  0.00    +0.000 A 
ATOM      9  O   UNL     1       0.137   9.941  21.620  0.00  0.00    +0.000 OA
ATOM     10  C   UNL     1       0.988   9.114  22.274  0.00  0.00    +0.000 A 
ATOM     11  N   UNL     1       1.745   8.368  21.506  0.00  0.00    +0.000 NA
ATOM     12  C   UNL     1       1.371   8.739  20.217  0.00  0.00    +0.000 A 
BRANCH   8  18
ATOM     13  C   UNL     1      -3.046   9.810  16.675  0.00  0.00    +0.000 C 
ATOM     14  C   UNL     1      -2.089  10.548  17.560  0.00  0.00    +0.000 A 
ATOM     15  C   UNL     1      -1.870  11.920  17.412  0.00  0.00    +0.000 A 
ATOM     16  C   UNL     1      -0.960  12.578  18.239  0.00  0.00    +0.000 A 
ATOM     17  C   UNL     1      -0.242  11.864  19.203  0.00  0.00    +0.000 A 
ATOM     18  C   UNL     1      -0.421  10.483  19.349  0.00  0.00    +0.000 A 
ATOM     19  C   UNL     1      -1.371   9.845  18.537  0.00  0.00    +0.000 A 
ENDBRANCH   8  18
ENDBRANCH   1  12
BRANCH   7  20
ATOM     20  C   UNL     1       4.391   6.860  17.569  0.00  0.00    +0.000 C 
BRANCH  20  21
ATOM     21  C   UNL     1       5.618   5.957  17.742  0.00  0.00    +0.000 C 
BRANCH  21  22
ATOM     22  C   UNL     1       6.191   5.553  16.433  0.00  0.00    +0.000 A 
ATOM     23  N   UNL     1       7.374   5.995  15.989  0.00  0.00    +0.000 NA
ATOM     24  O   UNL     1       7.504   5.360  14.750  0.00  0.00    +0.000 OA
ATOM     25  C   UNL     1       6.376   4.610  14.582  0.00  0.00    +0.000 A 
ATOM     26  C   UNL     1       6.271   3.825  13.340  0.00  0.00    +0.000 C 
ATOM     27  N   UNL     1       5.532   4.701  15.583  0.00  0.00    +0.000 NA
ENDBRANCH  21  22
ENDBRANCH  20  21
ENDBRANCH   7  20
TORSDOF 5
ENDMDL
MODEL 7
REMARK VINA RESULT:      -7.9      4.489      7.792
REMARK  Name = 
REMARK  7 active torsions:
REMARK  status: ('A' for Active; 'I' for Inactive)
REMARK    1  A    between atoms: C_1  and  C_2
REMARK    2  A    between atoms: C_6  and  C_7
REMARK    3  A    between atoms: C_11  and  C_12
REMARK    4  A    between atoms: C_18  and  C_19
REMARK    5  A    between atoms: C_19  and  C_20
REMARK    6  A    between atoms: C_20  and  C_21
REMARK    7  A    between atoms: C_24  and  C_25
REMARK                            x       y       z     vdW  Elec       q    Type
REMARK                         _______ _______ _______ _____ _____    ______ ____
ROOT
ATOM      1  C   UNL     1       2.057   7.675  19.110  0.00  0.00    +0.000 C 
ATOM      2  O   UNL     1       2.232   7.947  17.929  0.00  0.00    +0.000 OA
ATOM      3  N   UNL     1       1.476   8.574  20.002  0.00  0.00    +0.000 N 
ATOM      4  C   UNL     1       1.393   8.389  21.439  0.00  0.00    +0.000 C 
ATOM      5  C   UNL     1       0.311   9.349  21.868  0.00  0.00    +0.000 C 
ATOM      6  C   UNL     1       0.511  10.532  20.929  0.00  0.00    +0.000 C 
ATOM      7  C   UNL     1       1.017   9.914  19.609  0.00  0.00    +0.000 C 
ENDROOT
BRANCH   1  12
ATOM      8  C   UNL     1       3.371   5.497  19.198  0.00  0.00    +0.000 A 
ATOM      9  O   UNL     1       3.293   4.351  19.955  0.00  0.00    +0.000 OA
ATOM     10  C   UNL     1       2.269   4.577  20.813  0.00  0.00    +0.000 A 
ATOM     11  N   UNL     1       1.682   5.742  20.688  0.00  0.00    +0.000 NA
ATOM     12  C   UNL     1       2.372   6.348  19.642  0.00  0.00    +0.000 A 
BRANCH   8  18
ATOM     13  C   UNL     1       7.645   7.394  17.500  0.00  0.00    +0.000 C 
ATOM     14  C   UNL     1       6.498   6.448  17.317  0.00  0.00    +0.000 A 
ATOM     15  C   UNL     1       6.354   5.693  16.150  0.00  0.00    +0.000 A 
ATOM     16  C   UNL     1       5.267   4.834  16.000  0.00  0.00    +0.000 A 
ATOM     17  C   UNL     1       4.300   4.740  17.006  0.00  0.00    +0.000 A 
ATOM     18  C   UNL     1       4.406   5.509  18.171  0.00  0.00    +0.000 A 
ATOM     19  C   UNL     1       5.528   6.338  18.323  0.00  0.00    +0.000 A 
ENDBRANCH   8  18
ENDBRANCH   1  12
BRANCH   7  20
ATOM     20  C   UNL     1      -0.048   9.883  18.497  0.00  0.00    +0.000 C 
BRANCH  20  21
ATOM     21  C   UNL     1      -1.318  10.671  18.843  0.00  0.00    +0.000 C 
BRANCH  21  22
ATOM     22  C   UNL     1      -2.231  10.778  17.676  0.00  0.00    +0.000 A 
ATOM     23  N   UNL     1      -3.329  11.544  17.680  0.00  0.00    +0.000 NA
ATOM     24  O   UNL     1      -3.857  11.344  16.401  0.00  0.00    +0.000 OA
ATOM     25  C   UNL     1      -3.020  10.469  15.771  0.00  0.00    +0.000 A 
ATOM     26  C   UNL     1      -3.357  10.097  14.387  0.00  0.00    +0.000 C 
ATOM     27  N   UNL     1      -2.011  10.082  16.515  0.00  0.00    +0.000 NA
ENDBRANCH  21  22
ENDBRANCH  20  21
ENDBRANCH   7  20
TORSDOF 5
ENDMDL
MODEL 8
REMARK VINA RESULT:      -7.9      3.194      6.449
REMARK  Name = 
REMARK  7 active torsions:
REMARK  status: ('A' for Active; 'I' for Inactive)
REMARK    1  A    between atoms: C_1  and  C_2
REMARK    2  A    between atoms: C_6  and  C_7
REMARK    3  A    between atoms: C_11  and  C_12
REMARK    4  A    between atoms: C_18  and  C_19
REMARK    5  A    between atoms: C_19  and  C_20
REMARK    6  A    between atoms: C_20  and  C_21
REMARK    7  A    between atoms: C_24  and  C_25
REMARK                            x       y       z     vdW  Elec       q    Type
REMARK                         _______ _______ _______ _____ _____    ______ ____
ROOT
ATOM      1  C   UNL     1       1.930   4.772  18.144  0.00  0.00    +0.000 C 
ATOM      2  O   UNL     1       1.660   4.086  17.166  0.00  0.00    +0.000 OA
ATOM      3  N   UNL     1       1.875   4.269  19.443  0.00  0.00    +0.000 N 
ATOM      4  C   UNL     1       2.013   5.061  20.651  0.00  0.00    +0.000 C 
ATOM      5  C   UNL     1       2.346   4.045  21.716  0.00  0.00    +0.000 C 
ATOM      6  C   UNL     1       1.532   2.828  21.295  0.00  0.00    +0.000 C 
ATOM      7  C   UNL     1       1.499   2.882  19.753  0.00  0.00    +0.000 C 
ENDROOT
BRANCH   1  12
ATOM      8  C   UNL     1       3.696   6.539  17.658  0.00  0.00    +0.000 A 
ATOM      9  O   UNL     1       3.717   7.914  17.670  0.00  0.00    +0.000 OA
ATOM     10  C   UNL     1       2.455   8.272  18.008  0.00  0.00    +0.000 A 
ATOM     11  N   UNL     1       1.627   7.276  18.213  0.00  0.00    +0.000 NA
ATOM     12  C   UNL     1       2.413   6.147  18.002  0.00  0.00    +0.000 A 
BRANCH   8  18
ATOM     13  C   UNL     1       6.579   4.348  14.245  0.00  0.00    +0.000 C 
ATOM     14  C   UNL     1       6.378   4.793  15.662  0.00  0.00    +0.000 A 
ATOM     15  C   UNL     1       7.307   4.490  16.660  0.00  0.00    +0.000 A 
ATOM     16  C   UNL     1       7.085   4.903  17.974  0.00  0.00    +0.000 A 
ATOM     17  C   UNL     1       5.920   5.600  18.304  0.00  0.00    +0.000 A 
ATOM     18  C   UNL     1       4.958   5.889  17.327  0.00  0.00    +0.000 A 
ATOM     19  C   UNL     1       5.217   5.502  16.003  0.00  0.00    +0.000 A 
ENDBRANCH   8  18
ENDBRANCH   1  12
BRANCH   7  20
ATOM     20  C   UNL     1       2.420   1.846  19.083  0.00  0.00    +0.000 C 
BRANCH  20  21
ATOM     21  C   UNL     1       3.898   2.254  19.070  0.00  0.00    +0.000 C 
BRANCH  21  22
ATOM     22  C   UNL     1       4.689   1.480  20.060  0.00  0.00    +0.000 A 
ATOM     23  N   UNL     1       5.058   1.977  21.246  0.00  0.00    +0.000 NA
ATOM     24  O   UNL     1       5.759   0.918  21.830  0.00  0.00    +0.000 OA
ATOM     25  C   UNL     1       5.742  -0.101  20.922  0.00  0.00    +0.000 A 
ATOM     26  C   UNL     1       6.417  -1.353  21.305  0.00  0.00    +0.000 C 
ATOM     27  N   UNL     1       5.106   0.196  19.813  0.00  0.00    +0.000 NA
ENDBRANCH  21  22
ENDBRANCH  20  21
ENDBRANCH   7  20
TORSDOF 5
ENDMDL
MODEL 9
REMARK VINA RESULT:      -7.8      4.010      5.567
REMARK  Name = 
REMARK  7 active torsions:
REMARK  status: ('A' for Active; 'I' for Inactive)
REMARK    1  A    between atoms: C_1  and  C_2
REMARK    2  A    between atoms: C_6  and  C_7
REMARK    3  A    between atoms: C_11  and  C_12
REMARK    4  A    between atoms: C_18  and  C_19
REMARK    5  A    between atoms: C_19  and  C_20
REMARK    6  A    between atoms: C_20  and  C_21
REMARK    7  A    between atoms: C_24  and  C_25
REMARK                            x       y       z     vdW  Elec       q    Type
REMARK                         _______ _______ _______ _____ _____    ______ ____
ROOT
ATOM      1  C   UNL     1       5.137   6.187  16.990  0.00  0.00    +0.000 C 
ATOM      2  O   UNL     1       5.191   6.933  16.020  0.00  0.00    +0.000 OA
ATOM      3  N   UNL     1       6.198   6.048  17.882  0.00  0.00    +0.000 N 
ATOM      4  C   UNL     1       6.271   5.065  18.946  0.00  0.00    +0.000 C 
ATOM      5  C   UNL     1       7.329   5.610  19.874  0.00  0.00    +0.000 C 
ATOM      6  C   UNL     1       8.321   6.261  18.918  0.00  0.00    +0.000 C 
ATOM      7  C   UNL     1       7.463   6.784  17.747  0.00  0.00    +0.000 C 
ENDROOT
BRANCH   1  12
ATOM      8  C   UNL     1       2.783   5.969  17.933  0.00  0.00    +0.000 A 
ATOM      9  O   UNL     1       1.893   4.930  18.078  0.00  0.00    +0.000 OA
ATOM     10  C   UNL     1       2.525   3.859  17.541  0.00  0.00    +0.000 A 
ATOM     11  N   UNL     1       3.724   4.097  17.067  0.00  0.00    +0.000 NA
ATOM     12  C   UNL     1       3.914   5.453  17.320  0.00  0.00    +0.000 A 
BRANCH   8  18
ATOM     13  C   UNL     1       1.120   8.663  21.771  0.00  0.00    +0.000 C 
ATOM     14  C   UNL     1       1.507   8.590  20.325  0.00  0.00    +0.000 A 
ATOM     15  C   UNL     1       1.336   9.680  19.468  0.00  0.00    +0.000 A 
ATOM     16  C   UNL     1       1.688   9.578  18.123  0.00  0.00    +0.000 A 
ATOM     17  C   UNL     1       2.191   8.375  17.618  0.00  0.00    +0.000 A 
ATOM     18  C   UNL     1       2.343   7.258  18.449  0.00  0.00    +0.000 A 
ATOM     19  C   UNL     1       2.021   7.392  19.809  0.00  0.00    +0.000 A 
ENDBRANCH   8  18
ENDBRANCH   1  12
BRANCH   7  20
ATOM     20  C   UNL     1       7.275   8.313  17.760  0.00  0.00    +0.000 C 
BRANCH  20  21
ATOM     21  C   UNL     1       8.525   9.089  17.329  0.00  0.00    +0.000 C 
BRANCH  21  22
ATOM     22  C   UNL     1       8.795  10.238  18.231  0.00  0.00    +0.000 A 
ATOM     23  N   UNL     1       8.609  11.511  17.862  0.00  0.00    +0.000 NA
ATOM     24  O   UNL     1       8.974  12.228  19.005  0.00  0.00    +0.000 OA
ATOM     25  C   UNL     1       9.348  11.303  19.936  0.00  0.00    +0.000 A 
ATOM     26  C   UNL     1       9.776  11.809  21.252  0.00  0.00    +0.000 C 
ATOM     27  N   UNL     1       9.267  10.065  19.507  0.00  0.00    +0.000 NA
ENDBRANCH  21  22
ENDBRANCH  20  21
ENDBRANCH   7  20
TORSDOF 5
ENDMDL
