MODEL 1
REMARK VINA RESULT:      -7.7      0.000      0.000
REMARK  Name = 
REMARK  17 active torsions:
REMARK  status: ('A' for Active; 'I' for Inactive)
REMARK    1  A    between atoms: C_1  and  O_2
REMARK    2  A    between atoms: O_2  and  C_3
REMARK    3  A    between atoms: C_6  and  C_7
REMARK    4  A    between atoms: C_7  and  C_8
REMARK    5  A    between atoms: C_7  and  C_15
REMARK    6  A    between atoms: C_17  and  C_18
REMARK    7  A    between atoms: C_20  and  C_21
REMARK    8  A    between atoms: C_22  and  O_23
REMARK    9  A    between atoms: O_23  and  C_24
REMARK   10  A    between atoms: C_24  and  C_25
REMARK   11  A    between atoms: C_25  and  O_26
REMARK   12  A    between atoms: C_25  and  C_27
REMARK   13  A    between atoms: C_27  and  C_28
REMARK   14  A    between atoms: C_28  and  O_29
REMARK   15  A    between atoms: C_28  and  C_30
REMARK   16  A    between atoms: C_30  and  C_31
REMARK   17  A    between atoms: C_31  and  O_33
REMARK                            x       y       z     vdW  Elec       q    Type
REMARK                         _______ _______ _______ _____ _____    ______ ____
ROOT
ATOM      1  C   UNL     1      -1.183  11.377  18.836  0.00  0.00    +0.000 A 
ATOM      2  C   UNL     1      -1.412  10.641  17.637  0.00  0.00    +0.000 A 
ATOM      3  C   UNL     1      -2.676  10.492  17.062  0.00  0.00    +0.000 A 
ATOM      4  C   UNL     1      -2.862   9.719  15.791  0.00  0.00    +0.000 C 
ATOM      5  C   UNL     1      -3.761  11.091  17.689  0.00  0.00    +0.000 A 
ATOM      6  C   UNL     1      -3.589  11.846  18.859  0.00  0.00    +0.000 A 
ATOM      7  C   UNL     1      -4.805  12.487  19.482  0.00  0.00    +0.000 C 
ATOM      8  C   UNL     1      -2.301  12.003  19.450  0.00  0.00    +0.000 A 
ENDROOT
BRANCH   1   9
ATOM      9  C   UNL     1       0.302  11.371  19.289  0.00  0.00    +0.000 C 
BRANCH   9  10
ATOM     10  C   UNL     1       1.054  12.668  18.885  0.00  0.00    +0.000 A 
ATOM     11  C   UNL     1       0.464  13.941  18.912  0.00  0.00    +0.000 A 
ATOM     12  C   UNL     1       1.201  15.092  18.611  0.00  0.00    +0.000 A 
ATOM     13  C   UNL     1       2.539  14.992  18.281  0.00  0.00    +0.000 A 
ATOM     14  F   UNL     1       3.247  16.102  18.049  0.00  0.00    +0.000 F 
ATOM     15  C   UNL     1       3.148  13.751  18.200  0.00  0.00    +0.000 A 
ATOM     16  C   UNL     1       2.405  12.598  18.485  0.00  0.00    +0.000 A 
ENDBRANCH   9  10
BRANCH   9  20
ATOM     17  C   UNL     1       2.280   7.472  19.022  0.00  0.00    +0.000 A 
ATOM     18  C   UNL     1       1.729   7.907  20.223  0.00  0.00    +0.000 A 
ATOM     19  C   UNL     1       1.076   9.143  20.290  0.00  0.00    +0.000 A 
ATOM     20  C   UNL     1       1.024  10.009  19.180  0.00  0.00    +0.000 A 
ATOM     21  C   UNL     1       1.602   9.548  17.984  0.00  0.00    +0.000 A 
ATOM     22  C   UNL     1       2.237   8.305  17.910  0.00  0.00    +0.000 A 
BRANCH  17  24
ATOM     23  C   UNL     1       3.956   6.112  18.130  0.00  0.00    +0.000 C 
ATOM     24  O   UNL     1       2.852   6.230  19.026  0.00  0.00    +0.000 OA
ENDBRANCH  17  24
ENDBRANCH   9  20
ENDBRANCH   1   9
BRANCH   8  25
ATOM     25  O   UNL     1      -2.342  12.857  20.537  0.00  0.00    +0.000 OA
BRANCH  25  26
ATOM     26  C   UNL     1      -1.501  12.593  21.647  0.00  0.00    +0.000 C 
BRANCH  26  27
ATOM     27  C   UNL     1      -2.176  11.803  22.782  0.00  0.00    +0.000 C 
BRANCH  27  28
ATOM     28  O   UNL     1      -1.185  11.102  23.553  0.00  0.00    +0.000 OA
ATOM     29  H   UNL     1      -1.017  10.246  23.122  0.00  0.00    +0.000 HD
ENDBRANCH  27  28
BRANCH  27  30
ATOM     30  C   UNL     1      -2.923  12.749  23.758  0.00  0.00    +0.000 C 
BRANCH  30  31
ATOM     31  C   UNL     1      -4.323  12.265  24.182  0.00  0.00    +0.000 C 
BRANCH  31  32
ATOM     32  O   UNL     1      -4.484  12.553  25.574  0.00  0.00    +0.000 OA
ATOM     33  H   UNL     1      -4.874  13.441  25.664  0.00  0.00    +0.000 HD
ENDBRANCH  31  32
BRANCH  31  34
ATOM     34  C   UNL     1      -5.484  12.939  23.438  0.00  0.00    +0.000 C 
BRANCH  34  35
ATOM     35  C   UNL     1      -6.846  12.653  24.022  0.00  0.00    +0.000 C 
ATOM     36  O   UNL     1      -7.460  11.616  23.849  0.00  0.00    +0.000 OA
BRANCH  35  37
ATOM     37  O   UNL     1      -7.330  13.650  24.797  0.00  0.00    +0.000 OA
ATOM     38  H   UNL     1      -8.257  13.552  25.086  0.00  0.00    +0.000 HD
ENDBRANCH  35  37
ENDBRANCH  34  35
ENDBRANCH  31  34
ENDBRANCH  30  31
ENDBRANCH  27  30
ENDBRANCH  26  27
ENDBRANCH  25  26
ENDBRANCH   8  25
TORSDOF 14
ENDMDL
MODEL 2
REMARK VINA RESULT:      -7.4      1.679      4.666
REMARK  Name = 
REMARK  17 active torsions:
REMARK  status: ('A' for Active; 'I' for Inactive)
REMARK    1  A    between atoms: C_1  and  O_2
REMARK    2  A    between atoms: O_2  and  C_3
REMARK    3  A    between atoms: C_6  and  C_7
REMARK    4  A    between atoms: C_7  and  C_8
REMARK    5  A    between atoms: C_7  and  C_15
REMARK    6  A    between atoms: C_17  and  C_18
REMARK    7  A    between atoms: C_20  and  C_21
REMARK    8  A    between atoms: C_22  and  O_23
REMARK    9  A    between atoms: O_23  and  C_24
REMARK   10  A    between atoms: C_24  and  C_25
REMARK   11  A    between atoms: C_25  and  O_26
REMARK   12  A    between atoms: C_25  and  C_27
REMARK   13  A    between atoms: C_27  and  C_28
REMARK   14  A    between atoms: C_28  and  O_29
REMARK   15  A    between atoms: C_28  and  C_30
REMARK   16  A    between atoms: C_30  and  C_31
REMARK   17  A    between atoms: C_31  and  O_33
REMARK                            x       y       z     vdW  Elec       q    Type
REMARK                         _______ _______ _______ _____ _____    ______ ____
ROOT
ATOM      1  C   UNL     1      -0.026  10.556  19.739  0.00  0.00    +0.000 A 
ATOM      2  C   UNL     1       0.870   9.558  19.257  0.00  0.00    +0.000 A 
ATOM      3  C   UNL     1       1.410   8.561  20.072  0.00  0.00    +0.000 A 
ATOM      4  C   UNL     1       2.338   7.523  19.514  0.00  0.00    +0.000 C 
ATOM      5  C   UNL     1       1.055   8.541  21.415  0.00  0.00    +0.000 A 
ATOM      6  C   UNL     1       0.159   9.486  21.936  0.00  0.00    +0.000 A 
ATOM      7  C   UNL     1      -0.200   9.400  23.399  0.00  0.00    +0.000 C 
ATOM      8  C   UNL     1      -0.396  10.506  21.109  0.00  0.00    +0.000 A 
ENDROOT
BRANCH   1   9
ATOM      9  C   UNL     1      -0.462  11.571  18.647  0.00  0.00    +0.000 C 
BRANCH   9  10
ATOM     10  C   UNL     1       0.257  12.940  18.784  0.00  0.00    +0.000 A 
ATOM     11  C   UNL     1       1.653  13.085  18.753  0.00  0.00    +0.000 A 
ATOM     12  C   UNL     1       2.256  14.345  18.805  0.00  0.00    +0.000 A 
ATOM     13  C   UNL     1       1.477  15.484  18.886  0.00  0.00    +0.000 A 
ATOM     14  F   UNL     1       2.063  16.686  18.880  0.00  0.00    +0.000 F 
ATOM     15  C   UNL     1       0.099  15.383  18.963  0.00  0.00    +0.000 A 
ATOM     16  C   UNL     1      -0.504  14.119  18.928  0.00  0.00    +0.000 A 
ENDBRANCH   9  10
BRANCH   9  20
ATOM     17  C   UNL     1      -4.716  11.548  17.602  0.00  0.00    +0.000 A 
ATOM     18  C   UNL     1      -4.296  11.961  18.863  0.00  0.00    +0.000 A 
ATOM     19  C   UNL     1      -2.933  11.990  19.176  0.00  0.00    +0.000 A 
ATOM     20  C   UNL     1      -1.959  11.534  18.267  0.00  0.00    +0.000 A 
ATOM     21  C   UNL     1      -2.414  11.108  17.006  0.00  0.00    +0.000 A 
ATOM     22  C   UNL     1      -3.774  11.098  16.684  0.00  0.00    +0.000 A 
BRANCH  17  24
ATOM     23  C   UNL     1      -6.856  11.221  18.479  0.00  0.00    +0.000 C 
ATOM     24  O   UNL     1      -6.060  11.600  17.357  0.00  0.00    +0.000 OA
ENDBRANCH  17  24
ENDBRANCH   9  20
ENDBRANCH   1   9
BRANCH   8  25
ATOM     25  O   UNL     1      -1.321  11.270  21.798  0.00  0.00    +0.000 OA
BRANCH  25  26
ATOM     26  C   UNL     1      -0.908  12.506  22.356  0.00  0.00    +0.000 C 
BRANCH  26  27
ATOM     27  C   UNL     1      -2.021  13.273  23.093  0.00  0.00    +0.000 C 
BRANCH  27  28
ATOM     28  O   UNL     1      -2.463  14.385  22.297  0.00  0.00    +0.000 OA
ATOM     29  H   UNL     1      -1.677  14.825  21.930  0.00  0.00    +0.000 HD
ENDBRANCH  27  28
BRANCH  27  30
ATOM     30  C   UNL     1      -3.258  12.370  23.339  0.00  0.00    +0.000 C 
BRANCH  30  31
ATOM     31  C   UNL     1      -4.265  12.921  24.367  0.00  0.00    +0.000 C 
BRANCH  31  32
ATOM     32  O   UNL     1      -3.646  14.020  25.041  0.00  0.00    +0.000 OA
ATOM     33  H   UNL     1      -3.846  13.953  25.992  0.00  0.00    +0.000 HD
ENDBRANCH  31  32
BRANCH  31  34
ATOM     34  C   UNL     1      -5.578  13.436  23.762  0.00  0.00    +0.000 C 
BRANCH  34  35
ATOM     35  C   UNL     1      -6.811  12.708  24.242  0.00  0.00    +0.000 C 
ATOM     36  O   UNL     1      -7.911  13.218  24.334  0.00  0.00    +0.000 OA
BRANCH  35  37
ATOM     37  O   UNL     1      -6.597  11.406  24.539  0.00  0.00    +0.000 OA
ATOM     38  H   UNL     1      -5.664  11.142  24.645  0.00  0.00    +0.000 HD
ENDBRANCH  35  37
ENDBRANCH  34  35
ENDBRANCH  31  34
ENDBRANCH  30  31
ENDBRANCH  27  30
ENDBRANCH  26  27
ENDBRANCH  25  26
ENDBRANCH   8  25
TORSDOF 14
ENDMDL
MODEL 3
REMARK VINA RESULT:      -7.3      0.824      1.280
REMARK  Name = 
REMARK  17 active torsions:
REMARK  status: ('A' for Active; 'I' for Inactive)
REMARK    1  A    between atoms: C_1  and  O_2
REMARK    2  A    between atoms: O_2  and  C_3
REMARK    3  A    between atoms: C_6  and  C_7
REMARK    4  A    between atoms: C_7  and  C_8
REMARK    5  A    between atoms: C_7  and  C_15
REMARK    6  A    between atoms: C_17  and  C_18
REMARK    7  A    between atoms: C_20  and  C_21
REMARK    8  A    between atoms: C_22  and  O_23
REMARK    9  A    between atoms: O_23  and  C_24
REMARK   10  A    between atoms: C_24  and  C_25
REMARK   11  A    between atoms: C_25  and  O_26
REMARK   12  A    between atoms: C_25  and  C_27
REMARK   13  A    between atoms: C_27  and  C_28
REMARK   14  A    between atoms: C_28  and  O_29
REMARK   15  A    between atoms: C_28  and  C_30
REMARK   16  A    between atoms: C_30  and  C_31
REMARK   17  A    between atoms: C_31  and  O_33
REMARK                            x       y       z     vdW  Elec       q    Type
REMARK                         _______ _______ _______ _____ _____    ______ ____
ROOT
ATOM      1  C   UNL     1      -0.912  11.390  19.257  0.00  0.00    +0.000 A 
ATOM      2  C   UNL     1      -1.272  10.542  18.170  0.00  0.00    +0.000 A 
ATOM      3  C   UNL     1      -2.559  10.500  17.629  0.00  0.00    +0.000 A 
ATOM      4  C   UNL     1      -2.885   9.600  16.475  0.00  0.00    +0.000 C 
ATOM      5  C   UNL     1      -3.532  11.326  18.176  0.00  0.00    +0.000 A 
ATOM      6  C   UNL     1      -3.226  12.198  19.232  0.00  0.00    +0.000 A 
ATOM      7  C   UNL     1      -4.323  13.083  19.770  0.00  0.00    +0.000 C 
ATOM      8  C   UNL     1      -1.914  12.246  19.788  0.00  0.00    +0.000 A 
ENDROOT
BRANCH   1   9
ATOM      9  C   UNL     1       0.570  11.232  19.698  0.00  0.00    +0.000 C 
BRANCH   9  10
ATOM     10  C   UNL     1       1.390  12.536  19.508  0.00  0.00    +0.000 A 
ATOM     11  C   UNL     1       1.347  13.312  18.339  0.00  0.00    +0.000 A 
ATOM     12  C   UNL     1       2.045  14.519  18.240  0.00  0.00    +0.000 A 
ATOM     13  C   UNL     1       2.798  14.974  19.305  0.00  0.00    +0.000 A 
ATOM     14  F   UNL     1       3.418  16.156  19.219  0.00  0.00    +0.000 F 
ATOM     15  C   UNL     1       2.904  14.218  20.460  0.00  0.00    +0.000 A 
ATOM     16  C   UNL     1       2.217  13.000  20.552  0.00  0.00    +0.000 A 
ENDBRANCH   9  10
BRANCH   9  20
ATOM     17  C   UNL     1       2.480   7.413  18.721  0.00  0.00    +0.000 A 
ATOM     18  C   UNL     1       2.403   8.431  17.776  0.00  0.00    +0.000 A 
ATOM     19  C   UNL     1       1.814   9.656  18.107  0.00  0.00    +0.000 A 
ATOM     20  C   UNL     1       1.219   9.870  19.365  0.00  0.00    +0.000 A 
ATOM     21  C   UNL     1       1.299   8.818  20.296  0.00  0.00    +0.000 A 
ATOM     22  C   UNL     1       1.905   7.601  19.973  0.00  0.00    +0.000 A 
BRANCH  17  24
ATOM     23  C   UNL     1       3.372   5.369  19.415  0.00  0.00    +0.000 C 
ATOM     24  O   UNL     1       3.118   6.267  18.335  0.00  0.00    +0.000 OA
ENDBRANCH  17  24
ENDBRANCH   9  20
ENDBRANCH   1   9
BRANCH   8  25
ATOM     25  O   UNL     1      -1.806  13.234  20.750  0.00  0.00    +0.000 OA
BRANCH  25  26
ATOM     26  C   UNL     1      -1.411  12.870  22.062  0.00  0.00    +0.000 C 
BRANCH  26  27
ATOM     27  C   UNL     1      -2.412  11.964  22.799  0.00  0.00    +0.000 C 
BRANCH  27  28
ATOM     28  O   UNL     1      -1.719  10.876  23.433  0.00  0.00    +0.000 OA
ATOM     29  H   UNL     1      -2.163  10.047  23.181  0.00  0.00    +0.000 HD
ENDBRANCH  27  28
BRANCH  27  30
ATOM     30  C   UNL     1      -3.157  12.739  23.917  0.00  0.00    +0.000 C 
BRANCH  30  31
ATOM     31  C   UNL     1      -4.593  12.255  24.193  0.00  0.00    +0.000 C 
BRANCH  31  32
ATOM     32  O   UNL     1      -4.811  12.310  25.605  0.00  0.00    +0.000 OA
ATOM     33  H   UNL     1      -4.132  11.767  26.044  0.00  0.00    +0.000 HD
ENDBRANCH  31  32
BRANCH  31  34
ATOM     34  C   UNL     1      -5.689  13.098  23.527  0.00  0.00    +0.000 C 
BRANCH  34  35
ATOM     35  C   UNL     1      -7.096  12.653  23.847  0.00  0.00    +0.000 C 
ATOM     36  O   UNL     1      -7.808  13.186  24.677  0.00  0.00    +0.000 OA
BRANCH  35  37
ATOM     37  O   UNL     1      -7.524  11.610  23.101  0.00  0.00    +0.000 OA
ATOM     38  H   UNL     1      -7.106  11.515  22.224  0.00  0.00    +0.000 HD
ENDBRANCH  35  37
ENDBRANCH  34  35
ENDBRANCH  31  34
ENDBRANCH  30  31
ENDBRANCH  27  30
ENDBRANCH  26  27
ENDBRANCH  25  26
ENDBRANCH   8  25
TORSDOF 14
ENDMDL
MODEL 4
REMARK VINA RESULT:      -7.2      1.651      4.904
REMARK  Name = 
REMARK  17 active torsions:
REMARK  status: ('A' for Active; 'I' for Inactive)
REMARK    1  A    between atoms: C_1  and  O_2
REMARK    2  A    between atoms: O_2  and  C_3
REMARK    3  A    between atoms: C_6  and  C_7
REMARK    4  A    between atoms: C_7  and  C_8
REMARK    5  A    between atoms: C_7  and  C_15
REMARK    6  A    between atoms: C_17  and  C_18
REMARK    7  A    between atoms: C_20  and  C_21
REMARK    8  A    between atoms: C_22  and  O_23
REMARK    9  A    between atoms: O_23  and  C_24
REMARK   10  A    between atoms: C_24  and  C_25
REMARK   11  A    between atoms: C_25  and  O_26
REMARK   12  A    between atoms: C_25  and  C_27
REMARK   13  A    between atoms: C_27  and  C_28
REMARK   14  A    between atoms: C_28  and  O_29
REMARK   15  A    between atoms: C_28  and  C_30
REMARK   16  A    between atoms: C_30  and  C_31
REMARK   17  A    between atoms: C_31  and  O_33
REMARK                            x       y       z     vdW  Elec       q    Type
REMARK                         _______ _______ _______ _____ _____    ______ ____
ROOT
ATOM      1  C   UNL     1       1.541   9.334  18.556  0.00  0.00    +0.000 A 
ATOM      2  C   UNL     1       2.508   8.856  17.626  0.00  0.00    +0.000 A 
ATOM      3  C   UNL     1       3.197   7.652  17.792  0.00  0.00    +0.000 A 
ATOM      4  C   UNL     1       4.196   7.185  16.775  0.00  0.00    +0.000 C 
ATOM      5  C   UNL     1       2.922   6.884  18.916  0.00  0.00    +0.000 A 
ATOM      6  C   UNL     1       1.962   7.296  19.853  0.00  0.00    +0.000 A 
ATOM      7  C   UNL     1       1.698   6.409  21.044  0.00  0.00    +0.000 C 
ATOM      8  C   UNL     1       1.256   8.523  19.688  0.00  0.00    +0.000 A 
ENDROOT
BRANCH   1   9
ATOM      9  C   UNL     1       0.937  10.711  18.166  0.00  0.00    +0.000 C 
BRANCH   9  10
ATOM     10  C   UNL     1       1.726  11.901  18.775  0.00  0.00    +0.000 A 
ATOM     11  C   UNL     1       2.560  12.741  18.020  0.00  0.00    +0.000 A 
ATOM     12  C   UNL     1       3.193  13.847  18.595  0.00  0.00    +0.000 A 
ATOM     13  C   UNL     1       3.005  14.136  19.933  0.00  0.00    +0.000 A 
ATOM     14  F   UNL     1       3.572  15.227  20.460  0.00  0.00    +0.000 F 
ATOM     15  C   UNL     1       2.226  13.307  20.724  0.00  0.00    +0.000 A 
ATOM     16  C   UNL     1       1.606  12.190  20.150  0.00  0.00    +0.000 A 
ENDBRANCH   9  10
BRANCH   9  20
ATOM     17  C   UNL     1      -3.432  10.960  17.992  0.00  0.00    +0.000 A 
ATOM     18  C   UNL     1      -2.688  11.959  18.611  0.00  0.00    +0.000 A 
ATOM     19  C   UNL     1      -1.291  11.882  18.637  0.00  0.00    +0.000 A 
ATOM     20  C   UNL     1      -0.605  10.769  18.114  0.00  0.00    +0.000 A 
ATOM     21  C   UNL     1      -1.384   9.767  17.508  0.00  0.00    +0.000 A 
ATOM     22  C   UNL     1      -2.779   9.852  17.463  0.00  0.00    +0.000 A 
BRANCH  17  24
ATOM     23  C   UNL     1      -5.308  11.729  19.150  0.00  0.00    +0.000 C 
ATOM     24  O   UNL     1      -4.788  11.135  17.962  0.00  0.00    +0.000 OA
ENDBRANCH  17  24
ENDBRANCH   9  20
ENDBRANCH   1   9
BRANCH   8  25
ATOM     25  O   UNL     1       0.296   8.691  20.670  0.00  0.00    +0.000 OA
BRANCH  25  26
ATOM     26  C   UNL     1       0.605   9.489  21.800  0.00  0.00    +0.000 C 
BRANCH  26  27
ATOM     27  C   UNL     1      -0.609   9.845  22.677  0.00  0.00    +0.000 C 
BRANCH  27  28
ATOM     28  O   UNL     1      -0.197  10.017  24.043  0.00  0.00    +0.000 OA
ATOM     29  H   UNL     1       0.333  10.832  24.099  0.00  0.00    +0.000 HD
ENDBRANCH  27  28
BRANCH  27  30
ATOM     30  C   UNL     1      -1.255  11.182  22.227  0.00  0.00    +0.000 C 
BRANCH  30  31
ATOM     31  C   UNL     1      -1.902  12.000  23.360  0.00  0.00    +0.000 C 
BRANCH  31  32
ATOM     32  O   UNL     1      -1.120  13.183  23.548  0.00  0.00    +0.000 OA
ATOM     33  H   UNL     1      -1.460  13.658  24.328  0.00  0.00    +0.000 HD
ENDBRANCH  31  32
BRANCH  31  34
ATOM     34  C   UNL     1      -3.345  12.442  23.085  0.00  0.00    +0.000 C 
BRANCH  34  35
ATOM     35  C   UNL     1      -4.175  12.664  24.327  0.00  0.00    +0.000 C 
ATOM     36  O   UNL     1      -5.046  11.906  24.710  0.00  0.00    +0.000 OA
BRANCH  35  37
ATOM     37  O   UNL     1      -3.847  13.783  25.012  0.00  0.00    +0.000 OA
ATOM     38  H   UNL     1      -2.897  14.007  25.029  0.00  0.00    +0.000 HD
ENDBRANCH  35  37
ENDBRANCH  34  35
ENDBRANCH  31  34
ENDBRANCH  30  31
ENDBRANCH  27  30
ENDBRANCH  26  27
ENDBRANCH  25  26
ENDBRANCH   8  25
TORSDOF 14
ENDMDL
MODEL 5
REMARK VINA RESULT:      -7.2      1.741      4.707
REMARK  Name = 
REMARK  17 active torsions:
REMARK  status: ('A' for Active; 'I' for Inactive)
REMARK    1  A    between atoms: C_1  and  O_2
REMARK    2  A    between atoms: O_2  and  C_3
REMARK    3  A    between atoms: C_6  and  C_7
REMARK    4  A    between atoms: C_7  and  C_8
REMARK    5  A    between atoms: C_7  and  C_15
REMARK    6  A    between atoms: C_17  and  C_18
REMARK    7  A    between atoms: C_20  and  C_21
REMARK    8  A    between atoms: C_22  and  O_23
REMARK    9  A    between atoms: O_23  and  C_24
REMARK   10  A    between atoms: C_24  and  C_25
REMARK   11  A    between atoms: C_25  and  O_26
REMARK   12  A    between atoms: C_25  and  C_27
REMARK   13  A    between atoms: C_27  and  C_28
REMARK   14  A    between atoms: C_28  and  O_29
REMARK   15  A    between atoms: C_28  and  C_30
REMARK   16  A    between atoms: C_30  and  C_31
REMARK   17  A    between atoms: C_31  and  O_33
REMARK                            x       y       z     vdW  Elec       q    Type
REMARK                         _______ _______ _______ _____ _____    ______ ____
ROOT
ATOM      1  C   UNL     1       0.138  10.508  19.685  0.00  0.00    +0.000 A 
ATOM      2  C   UNL     1       0.952   9.453  19.181  0.00  0.00    +0.000 A 
ATOM      3  C   UNL     1       1.488   8.448  19.990  0.00  0.00    +0.000 A 
ATOM      4  C   UNL     1       2.328   7.350  19.408  0.00  0.00    +0.000 C 
ATOM      5  C   UNL     1       1.210   8.478  21.350  0.00  0.00    +0.000 A 
ATOM      6  C   UNL     1       0.395   9.481  21.897  0.00  0.00    +0.000 A 
ATOM      7  C   UNL     1       0.116   9.448  23.379  0.00  0.00    +0.000 C 
ATOM      8  C   UNL     1      -0.155  10.509  21.076  0.00  0.00    +0.000 A 
ENDROOT
BRANCH   1   9
ATOM      9  C   UNL     1      -0.308  11.518  18.593  0.00  0.00    +0.000 C 
BRANCH   9  10
ATOM     10  C   UNL     1       0.415  12.886  18.716  0.00  0.00    +0.000 A 
ATOM     11  C   UNL     1      -0.251  14.120  18.645  0.00  0.00    +0.000 A 
ATOM     12  C   UNL     1       0.430  15.327  18.835  0.00  0.00    +0.000 A 
ATOM     13  C   UNL     1       1.786  15.324  19.101  0.00  0.00    +0.000 A 
ATOM     14  F   UNL     1       2.416  16.480  19.334  0.00  0.00    +0.000 F 
ATOM     15  C   UNL     1       2.488  14.132  19.135  0.00  0.00    +0.000 A 
ATOM     16  C   UNL     1       1.809  12.924  18.928  0.00  0.00    +0.000 A 
ENDBRANCH   9  10
BRANCH   9  20
ATOM     17  C   UNL     1      -4.573  11.498  17.594  0.00  0.00    +0.000 A 
ATOM     18  C   UNL     1      -4.139  11.924  18.845  0.00  0.00    +0.000 A 
ATOM     19  C   UNL     1      -2.772  11.951  19.144  0.00  0.00    +0.000 A 
ATOM     20  C   UNL     1      -1.809  11.482  18.230  0.00  0.00    +0.000 A 
ATOM     21  C   UNL     1      -2.279  11.043  16.979  0.00  0.00    +0.000 A 
ATOM     22  C   UNL     1      -3.642  11.034  16.671  0.00  0.00    +0.000 A 
BRANCH  17  24
ATOM     23  C   UNL     1      -6.398  12.871  17.107  0.00  0.00    +0.000 C 
ATOM     24  O   UNL     1      -5.920  11.551  17.363  0.00  0.00    +0.000 OA
ENDBRANCH  17  24
ENDBRANCH   9  20
ENDBRANCH   1   9
BRANCH   8  25
ATOM     25  O   UNL     1      -0.999  11.336  21.795  0.00  0.00    +0.000 OA
BRANCH  25  26
ATOM     26  C   UNL     1      -0.541  12.625  22.165  0.00  0.00    +0.000 C 
BRANCH  26  27
ATOM     27  C   UNL     1      -1.573  13.469  22.934  0.00  0.00    +0.000 C 
BRANCH  27  28
ATOM     28  O   UNL     1      -1.262  14.867  22.805  0.00  0.00    +0.000 OA
ATOM     29  H   UNL     1      -2.100  15.360  22.770  0.00  0.00    +0.000 HD
ENDBRANCH  27  28
BRANCH  27  30
ATOM     30  C   UNL     1      -3.001  13.268  22.362  0.00  0.00    +0.000 C 
BRANCH  30  31
ATOM     31  C   UNL     1      -4.006  14.377  22.730  0.00  0.00    +0.000 C 
BRANCH  31  32
ATOM     32  O   UNL     1      -4.953  14.481  21.663  0.00  0.00    +0.000 OA
ATOM     33  H   UNL     1      -4.553  14.110  20.856  0.00  0.00    +0.000 HD
ENDBRANCH  31  32
BRANCH  31  34
ATOM     34  C   UNL     1      -4.794  14.122  24.021  0.00  0.00    +0.000 C 
BRANCH  34  35
ATOM     35  C   UNL     1      -5.400  12.743  24.117  0.00  0.00    +0.000 C 
ATOM     36  O   UNL     1      -6.254  12.318  23.362  0.00  0.00    +0.000 OA
BRANCH  35  37
ATOM     37  O   UNL     1      -4.886  11.987  25.114  0.00  0.00    +0.000 OA
ATOM     38  H   UNL     1      -4.156  12.391  25.620  0.00  0.00    +0.000 HD
ENDBRANCH  35  37
ENDBRANCH  34  35
ENDBRANCH  31  34
ENDBRANCH  30  31
ENDBRANCH  27  30
ENDBRANCH  26  27
ENDBRANCH  25  26
ENDBRANCH   8  25
TORSDOF 14
ENDMDL
MODEL 6
REMARK VINA RESULT:      -7.1      2.393      5.411
REMARK  Name = 
REMARK  17 active torsions:
REMARK  status: ('A' for Active; 'I' for Inactive)
REMARK    1  A    between atoms: C_1  and  O_2
REMARK    2  A    between atoms: O_2  and  C_3
REMARK    3  A    between atoms: C_6  and  C_7
REMARK    4  A    between atoms: C_7  and  C_8
REMARK    5  A    between atoms: C_7  and  C_15
REMARK    6  A    between atoms: C_17  and  C_18
REMARK    7  A    between atoms: C_20  and  C_21
REMARK    8  A    between atoms: C_22  and  O_23
REMARK    9  A    between atoms: O_23  and  C_24
REMARK   10  A    between atoms: C_24  and  C_25
REMARK   11  A    between atoms: C_25  and  O_26
REMARK   12  A    between atoms: C_25  and  C_27
REMARK   13  A    between atoms: C_27  and  C_28
REMARK   14  A    between atoms: C_28  and  O_29
REMARK   15  A    between atoms: C_28  and  C_30
REMARK   16  A    between atoms: C_30  and  C_31
REMARK   17  A    between atoms: C_31  and  O_33
REMARK                            x       y       z     vdW  Elec       q    Type
REMARK                         _______ _______ _______ _____ _____    ______ ____
ROOT
ATOM      1  C   UNL     1      -0.413  10.859  20.283  0.00  0.00    +0.000 A 
ATOM      2  C   UNL     1       0.443  10.000  19.533  0.00  0.00    +0.000 A 
ATOM      3  C   UNL     1       1.168   8.954  20.109  0.00  0.00    +0.000 A 
ATOM      4  C   UNL     1       2.045   8.069  19.273  0.00  0.00    +0.000 C 
ATOM      5  C   UNL     1       1.046   8.739  21.475  0.00  0.00    +0.000 A 
ATOM      6  C   UNL     1       0.199   9.540  22.257  0.00  0.00    +0.000 A 
ATOM      7  C   UNL     1       0.096   9.244  23.733  0.00  0.00    +0.000 C 
ATOM      8  C   UNL     1      -0.544  10.609  21.675  0.00  0.00    +0.000 A 
ENDROOT
BRANCH   1   9
ATOM      9  C   UNL     1      -1.083  11.965  19.423  0.00  0.00    +0.000 C 
BRANCH   9  10
ATOM     10  C   UNL     1      -1.970  11.383  18.290  0.00  0.00    +0.000 A 
ATOM     11  C   UNL     1      -3.285  11.808  18.043  0.00  0.00    +0.000 A 
ATOM     12  C   UNL     1      -4.022  11.310  16.965  0.00  0.00    +0.000 A 
ATOM     13  C   UNL     1      -3.460  10.379  16.112  0.00  0.00    +0.000 A 
ATOM     14  F   UNL     1      -4.155   9.950  15.052  0.00  0.00    +0.000 F 
ATOM     15  C   UNL     1      -2.182   9.901  16.344  0.00  0.00    +0.000 A 
ATOM     16  C   UNL     1      -1.450  10.388  17.435  0.00  0.00    +0.000 A 
ENDBRANCH   9  10
BRANCH   9  20
ATOM     17  C   UNL     1       1.370  15.521  18.705  0.00  0.00    +0.000 A 
ATOM     18  C   UNL     1       0.062  15.642  19.161  0.00  0.00    +0.000 A 
ATOM     19  C   UNL     1      -0.704  14.498  19.412  0.00  0.00    +0.000 A 
ATOM     20  C   UNL     1      -0.209  13.207  19.142  0.00  0.00    +0.000 A 
ATOM     21  C   UNL     1       1.112  13.117  18.668  0.00  0.00    +0.000 A 
ATOM     22  C   UNL     1       1.885  14.258  18.436  0.00  0.00    +0.000 A 
BRANCH  17  24
ATOM     23  C   UNL     1       1.277  17.855  18.732  0.00  0.00    +0.000 C 
ATOM     24  O   UNL     1       2.069  16.685  18.535  0.00  0.00    +0.000 OA
ENDBRANCH  17  24
ENDBRANCH   9  20
ENDBRANCH   1   9
BRANCH   8  25
ATOM     25  O   UNL     1      -1.381  11.206  22.600  0.00  0.00    +0.000 OA
BRANCH  25  26
ATOM     26  C   UNL     1      -1.206  12.582  22.893  0.00  0.00    +0.000 C 
BRANCH  26  27
ATOM     27  C   UNL     1      -2.440  13.455  22.604  0.00  0.00    +0.000 C 
BRANCH  27  28
ATOM     28  O   UNL     1      -3.273  12.819  21.619  0.00  0.00    +0.000 OA
ATOM     29  H   UNL     1      -2.793  12.048  21.270  0.00  0.00    +0.000 HD
ENDBRANCH  27  28
BRANCH  27  30
ATOM     30  C   UNL     1      -3.307  13.644  23.876  0.00  0.00    +0.000 C 
BRANCH  30  31
ATOM     31  C   UNL     1      -4.512  12.690  23.985  0.00  0.00    +0.000 C 
BRANCH  31  32
ATOM     32  O   UNL     1      -4.693  12.369  25.366  0.00  0.00    +0.000 OA
ATOM     33  H   UNL     1      -3.841  12.480  25.825  0.00  0.00    +0.000 HD
ENDBRANCH  31  32
BRANCH  31  34
ATOM     34  C   UNL     1      -5.835  13.273  23.472  0.00  0.00    +0.000 C 
BRANCH  34  35
ATOM     35  C   UNL     1      -7.067  12.661  24.095  0.00  0.00    +0.000 C 
ATOM     36  O   UNL     1      -7.408  11.504  23.938  0.00  0.00    +0.000 OA
BRANCH  35  37
ATOM     37  O   UNL     1      -7.762  13.512  24.885  0.00  0.00    +0.000 OA
ATOM     38  H   UNL     1      -8.731  13.493  24.779  0.00  0.00    +0.000 HD
ENDBRANCH  35  37
ENDBRANCH  34  35
ENDBRANCH  31  34
ENDBRANCH  30  31
ENDBRANCH  27  30
ENDBRANCH  26  27
ENDBRANCH  25  26
ENDBRANCH   8  25
TORSDOF 14
ENDMDL
MODEL 7
REMARK VINA RESULT:      -7.1      3.439      7.875
REMARK  Name = 
REMARK  17 active torsions:
REMARK  status: ('A' for Active; 'I' for Inactive)
REMARK    1  A    between atoms: C_1  and  O_2
REMARK    2  A    between atoms: O_2  and  C_3
REMARK    3  A    between atoms: C_6  and  C_7
REMARK    4  A    between atoms: C_7  and  C_8
REMARK    5  A    between atoms: C_7  and  C_15
REMARK    6  A    between atoms: C_17  and  C_18
REMARK    7  A    between atoms: C_20  and  C_21
REMARK    8  A    between atoms: C_22  and  O_23
REMARK    9  A    between atoms: O_23  and  C_24
REMARK   10  A    between atoms: C_24  and  C_25
REMARK   11  A    between atoms: C_25  and  O_26
REMARK   12  A    between atoms: C_25  and  C_27
REMARK   13  A    between atoms: C_27  and  C_28
REMARK   14  A    between atoms: C_28  and  O_29
REMARK   15  A    between atoms: C_28  and  C_30
REMARK   16  A    between atoms: C_30  and  C_31
REMARK   17  A    between atoms: C_31  and  O_33
REMARK                            x       y       z     vdW  Elec       q    Type
REMARK                         _______ _______ _______ _____ _____    ______ ____
ROOT
ATOM      1  C   UNL     1      -1.137  11.944  20.682  0.00  0.00    +0.000 A 
ATOM      2  C   UNL     1      -2.217  12.511  21.418  0.00  0.00    +0.000 A 
ATOM      3  C   UNL     1      -2.531  12.134  22.726  0.00  0.00    +0.000 A 
ATOM      4  C   UNL     1      -3.670  12.772  23.464  0.00  0.00    +0.000 C 
ATOM      5  C   UNL     1      -1.751  11.161  23.337  0.00  0.00    +0.000 A 
ATOM      6  C   UNL     1      -0.661  10.585  22.667  0.00  0.00    +0.000 A 
ATOM      7  C   UNL     1       0.158   9.546  23.392  0.00  0.00    +0.000 C 
ATOM      8  C   UNL     1      -0.335  10.967  21.332  0.00  0.00    +0.000 A 
ENDROOT
BRANCH   1   9
ATOM      9  C   UNL     1      -1.012  12.506  19.240  0.00  0.00    +0.000 C 
BRANCH   9  10
ATOM     10  C   UNL     1      -1.759  11.635  18.194  0.00  0.00    +0.000 A 
ATOM     11  C   UNL     1      -1.877  11.986  16.840  0.00  0.00    +0.000 A 
ATOM     12  C   UNL     1      -2.495  11.136  15.918  0.00  0.00    +0.000 A 
ATOM     13  C   UNL     1      -3.005   9.920  16.330  0.00  0.00    +0.000 A 
ATOM     14  F   UNL     1      -3.545   9.091  15.429  0.00  0.00    +0.000 F 
ATOM     15  C   UNL     1      -2.948   9.554  17.664  0.00  0.00    +0.000 A 
ATOM     16  C   UNL     1      -2.344  10.414  18.590  0.00  0.00    +0.000 A 
ENDBRANCH   9  10
BRANCH   9  20
ATOM     17  C   UNL     1       2.885  14.269  18.298  0.00  0.00    +0.000 A 
ATOM     18  C   UNL     1       1.830  15.067  18.727  0.00  0.00    +0.000 A 
ATOM     19  C   UNL     1       0.597  14.490  19.050  0.00  0.00    +0.000 A 
ATOM     20  C   UNL     1       0.363  13.111  18.881  0.00  0.00    +0.000 A 
ATOM     21  C   UNL     1       1.444  12.332  18.431  0.00  0.00    +0.000 A 
ATOM     22  C   UNL     1       2.682  12.904  18.127  0.00  0.00    +0.000 A 
BRANCH  17  24
ATOM     23  C   UNL     1       4.055  16.288  18.394  0.00  0.00    +0.000 C 
ATOM     24  O   UNL     1       4.072  14.903  18.053  0.00  0.00    +0.000 OA
ENDBRANCH  17  24
ENDBRANCH   9  20
ENDBRANCH   1   9
BRANCH   8  25
ATOM     25  O   UNL     1       0.823  10.350  20.897  0.00  0.00    +0.000 OA
BRANCH  25  26
ATOM     26  C   UNL     1       0.718   9.214  20.054  0.00  0.00    +0.000 C 
BRANCH  26  27
ATOM     27  C   UNL     1       1.908   8.243  20.147  0.00  0.00    +0.000 C 
BRANCH  27  28
ATOM     28  O   UNL     1       1.737   7.359  21.268  0.00  0.00    +0.000 OA
ATOM     29  H   UNL     1       0.814   7.429  21.570  0.00  0.00    +0.000 HD
ENDBRANCH  27  28
BRANCH  27  30
ATOM     30  C   UNL     1       2.010   7.354  18.880  0.00  0.00    +0.000 C 
BRANCH  30  31
ATOM     31  C   UNL     1       2.798   6.044  19.072  0.00  0.00    +0.000 C 
BRANCH  31  32
ATOM     32  O   UNL     1       1.954   5.123  19.768  0.00  0.00    +0.000 OA
ATOM     33  H   UNL     1       1.153   5.595  20.058  0.00  0.00    +0.000 HD
ENDBRANCH  31  32
BRANCH  31  34
ATOM     34  C   UNL     1       3.238   5.367  17.767  0.00  0.00    +0.000 C 
BRANCH  34  35
ATOM     35  C   UNL     1       2.735   3.953  17.601  0.00  0.00    +0.000 C 
ATOM     36  O   UNL     1       1.642   3.666  17.150  0.00  0.00    +0.000 OA
BRANCH  35  37
ATOM     37  O   UNL     1       3.628   3.007  17.972  0.00  0.00    +0.000 OA
ATOM     38  H   UNL     1       3.315   2.364  18.635  0.00  0.00    +0.000 HD
ENDBRANCH  35  37
ENDBRANCH  34  35
ENDBRANCH  31  34
ENDBRANCH  30  31
ENDBRANCH  27  30
ENDBRANCH  26  27
ENDBRANCH  25  26
ENDBRANCH   8  25
TORSDOF 14
ENDMDL
MODEL 8
REMARK VINA RESULT:      -7.1      4.859      8.945
REMARK  Name = 
REMARK  17 active torsions:
REMARK  status: ('A' for Active; 'I' for Inactive)
REMARK    1  A    between atoms: C_1  and  O_2
REMARK    2  A    between atoms: O_2  and  C_3
REMARK    3  A    between atoms: C_6  and  C_7
REMARK    4  A    between atoms: C_7  and  C_8
REMARK    5  A    between atoms: C_7  and  C_15
REMARK    6  A    between atoms: C_17  and  C_18
REMARK    7  A    between atoms: C_20  and  C_21
REMARK    8  A    between atoms: C_22  and  O_23
REMARK    9  A    between atoms: O_23  and  C_24
REMARK   10  A    between atoms: C_24  and  C_25
REMARK   11  A    between atoms: C_25  and  O_26
REMARK   12  A    between atoms: C_25  and  C_27
REMARK   13  A    between atoms: C_27  and  C_28
REMARK   14  A    between atoms: C_28  and  O_29
REMARK   15  A    between atoms: C_28  and  C_30
REMARK   16  A    between atoms: C_30  and  C_31
REMARK   17  A    between atoms: C_31  and  O_33
REMARK                            x       y       z     vdW  Elec       q    Type
REMARK                         _______ _______ _______ _____ _____    ______ ____
ROOT
ATOM      1  C   UNL     1       4.443   5.155  17.632  0.00  0.00    +0.000 A 
ATOM      2  C   UNL     1       4.491   3.747  17.419  0.00  0.00    +0.000 A 
ATOM      3  C   UNL     1       3.782   2.833  18.201  0.00  0.00    +0.000 A 
ATOM      4  C   UNL     1       3.855   1.360  17.928  0.00  0.00    +0.000 C 
ATOM      5  C   UNL     1       2.990   3.321  19.232  0.00  0.00    +0.000 A 
ATOM      6  C   UNL     1       2.888   4.699  19.471  0.00  0.00    +0.000 A 
ATOM      7  C   UNL     1       1.997   5.167  20.596  0.00  0.00    +0.000 C 
ATOM      8  C   UNL     1       3.609   5.638  18.676  0.00  0.00    +0.000 A 
ENDROOT
BRANCH   1   9
ATOM      9  C   UNL     1       5.344   5.958  16.653  0.00  0.00    +0.000 C 
BRANCH   9  10
ATOM     10  C   UNL     1       5.727   5.140  15.390  0.00  0.00    +0.000 A 
ATOM     11  C   UNL     1       4.795   4.426  14.621  0.00  0.00    +0.000 A 
ATOM     12  C   UNL     1       5.173   3.765  13.448  0.00  0.00    +0.000 A 
ATOM     13  C   UNL     1       6.486   3.805  13.021  0.00  0.00    +0.000 A 
ATOM     14  F   UNL     1       6.826   3.215  11.870  0.00  0.00    +0.000 F 
ATOM     15  C   UNL     1       7.445   4.461  13.774  0.00  0.00    +0.000 A 
ATOM     16  C   UNL     1       7.070   5.110  14.957  0.00  0.00    +0.000 A 
ENDBRANCH   9  10
BRANCH   9  20
ATOM     17  C   UNL     1       8.398   8.481  18.521  0.00  0.00    +0.000 A 
ATOM     18  C   UNL     1       8.303   7.129  18.837  0.00  0.00    +0.000 A 
ATOM     19  C   UNL     1       7.340   6.327  18.214  0.00  0.00    +0.000 A 
ATOM     20  C   UNL     1       6.399   6.869  17.318  0.00  0.00    +0.000 A 
ATOM     21  C   UNL     1       6.510   8.241  17.029  0.00  0.00    +0.000 A 
ATOM     22  C   UNL     1       7.484   9.040  17.635  0.00  0.00    +0.000 A 
BRANCH  17  24
ATOM     23  C   UNL     1       9.308  10.593  18.929  0.00  0.00    +0.000 C 
ATOM     24  O   UNL     1       9.399   9.184  19.132  0.00  0.00    +0.000 OA
ENDBRANCH  17  24
ENDBRANCH   9  20
ENDBRANCH   1   9
BRANCH   8  25
ATOM     25  O   UNL     1       3.295   6.941  19.019  0.00  0.00    +0.000 OA
BRANCH  25  26
ATOM     26  C   UNL     1       2.517   7.716  18.122  0.00  0.00    +0.000 C 
BRANCH  26  27
ATOM     27  C   UNL     1       1.364   8.489  18.786  0.00  0.00    +0.000 C 
BRANCH  27  28
ATOM     28  O   UNL     1       1.649   8.696  20.180  0.00  0.00    +0.000 OA
ATOM     29  H   UNL     1       1.857   7.833  20.577  0.00  0.00    +0.000 HD
ENDBRANCH  27  28
BRANCH  27  30
ATOM     30  C   UNL     1       1.185   9.890  18.146  0.00  0.00    +0.000 C 
BRANCH  30  31
ATOM     31  C   UNL     1      -0.174  10.560  18.429  0.00  0.00    +0.000 C 
BRANCH  31  32
ATOM     32  O   UNL     1      -0.012  11.970  18.256  0.00  0.00    +0.000 OA
ATOM     33  H   UNL     1      -0.460  12.235  17.433  0.00  0.00    +0.000 HD
ENDBRANCH  31  32
BRANCH  31  34
ATOM     34  C   UNL     1      -1.311  10.112  17.502  0.00  0.00    +0.000 C 
BRANCH  34  35
ATOM     35  C   UNL     1      -2.331  11.185  17.205  0.00  0.00    +0.000 C 
ATOM     36  O   UNL     1      -2.963  11.780  18.057  0.00  0.00    +0.000 OA
BRANCH  35  37
ATOM     37  O   UNL     1      -2.467  11.461  15.888  0.00  0.00    +0.000 OA
ATOM     38  H   UNL     1      -2.021  12.271  15.575  0.00  0.00    +0.000 HD
ENDBRANCH  35  37
ENDBRANCH  34  35
ENDBRANCH  31  34
ENDBRANCH  30  31
ENDBRANCH  27  30
ENDBRANCH  26  27
ENDBRANCH  25  26
ENDBRANCH   8  25
TORSDOF 14
ENDMDL
MODEL 9
REMARK VINA RESULT:      -7.1      3.442      8.024
REMARK  Name = 
REMARK  17 active torsions:
REMARK  status: ('A' for Active; 'I' for Inactive)
REMARK    1  A    between atoms: C_1  and  O_2
REMARK    2  A    between atoms: O_2  and  C_3
REMARK    3  A    between atoms: C_6  and  C_7
REMARK    4  A    between atoms: C_7  and  C_8
REMARK    5  A    between atoms: C_7  and  C_15
REMARK    6  A    between atoms: C_17  and  C_18
REMARK    7  A    between atoms: C_20  and  C_21
REMARK    8  A    between atoms: C_22  and  O_23
REMARK    9  A    between atoms: O_23  and  C_24
REMARK   10  A    between atoms: C_24  and  C_25
REMARK   11  A    between atoms: C_25  and  O_26
REMARK   12  A    between atoms: C_25  and  C_27
REMARK   13  A    between atoms: C_27  and  C_28
REMARK   14  A    between atoms: C_28  and  O_29
REMARK   15  A    between atoms: C_28  and  C_30
REMARK   16  A    between atoms: C_30  and  C_31
REMARK   17  A    between atoms: C_31  and  O_33
REMARK                            x       y       z     vdW  Elec       q    Type
REMARK                         _______ _______ _______ _____ _____    ______ ____
ROOT
ATOM      1  C   UNL     1      -1.160  11.894  20.695  0.00  0.00    +0.000 A 
ATOM      2  C   UNL     1      -2.240  12.454  21.437  0.00  0.00    +0.000 A 
ATOM      3  C   UNL     1      -2.538  12.080  22.749  0.00  0.00    +0.000 A 
ATOM      4  C   UNL     1      -3.679  12.710  23.493  0.00  0.00    +0.000 C 
ATOM      5  C   UNL     1      -1.742  11.120  23.360  0.00  0.00    +0.000 A 
ATOM      6  C   UNL     1      -0.652  10.553  22.683  0.00  0.00    +0.000 A 
ATOM      7  C   UNL     1       0.186   9.528  23.408  0.00  0.00    +0.000 C 
ATOM      8  C   UNL     1      -0.341  10.931  21.344  0.00  0.00    +0.000 A 
ENDROOT
BRANCH   1   9
ATOM      9  C   UNL     1      -1.053  12.448  19.248  0.00  0.00    +0.000 C 
BRANCH   9  10
ATOM     10  C   UNL     1      -1.740  11.527  18.204  0.00  0.00    +0.000 A 
ATOM     11  C   UNL     1      -2.312  10.286  18.528  0.00  0.00    +0.000 A 
ATOM     12  C   UNL     1      -2.986   9.523  17.570  0.00  0.00    +0.000 A 
ATOM     13  C   UNL     1      -3.103   9.984  16.273  0.00  0.00    +0.000 A 
ATOM     14  F   UNL     1      -3.797   9.271  15.378  0.00  0.00    +0.000 F 
ATOM     15  C   UNL     1      -2.516  11.181  15.901  0.00  0.00    +0.000 A 
ATOM     16  C   UNL     1      -1.827  11.938  16.857  0.00  0.00    +0.000 A 
ENDBRANCH   9  10
BRANCH   9  20
ATOM     17  C   UNL     1       2.746  14.423  18.324  0.00  0.00    +0.000 A 
ATOM     18  C   UNL     1       1.647  15.162  18.749  0.00  0.00    +0.000 A 
ATOM     19  C   UNL     1       0.446  14.518  19.067  0.00  0.00    +0.000 A 
ATOM     20  C   UNL     1       0.288  13.129  18.895  0.00  0.00    +0.000 A 
ATOM     21  C   UNL     1       1.411  12.410  18.449  0.00  0.00    +0.000 A 
ATOM     22  C   UNL     1       2.618  13.049  18.150  0.00  0.00    +0.000 A 
BRANCH  17  24
ATOM     23  C   UNL     1       3.678  16.510  17.846  0.00  0.00    +0.000 C 
ATOM     24  O   UNL     1       3.897  15.121  18.084  0.00  0.00    +0.000 OA
ENDBRANCH  17  24
ENDBRANCH   9  20
ENDBRANCH   1   9
BRANCH   8  25
ATOM     25  O   UNL     1       0.820  10.324  20.902  0.00  0.00    +0.000 OA
BRANCH  25  26
ATOM     26  C   UNL     1       0.722   9.175  20.076  0.00  0.00    +0.000 C 
BRANCH  26  27
ATOM     27  C   UNL     1       1.887   8.183  20.228  0.00  0.00    +0.000 C 
BRANCH  27  28
ATOM     28  O   UNL     1       1.524   7.131  21.139  0.00  0.00    +0.000 OA
ATOM     29  H   UNL     1       2.320   6.875  21.637  0.00  0.00    +0.000 HD
ENDBRANCH  27  28
BRANCH  27  30
ATOM     30  C   UNL     1       2.233   7.509  18.874  0.00  0.00    +0.000 C 
BRANCH  30  31
ATOM     31  C   UNL     1       2.626   6.023  18.974  0.00  0.00    +0.000 C 
BRANCH  31  32
ATOM     32  O   UNL     1       2.035   5.339  17.865  0.00  0.00    +0.000 OA
ATOM     33  H   UNL     1       2.044   4.383  18.051  0.00  0.00    +0.000 HD
ENDBRANCH  31  32
BRANCH  31  34
ATOM     34  C   UNL     1       4.136   5.757  18.925  0.00  0.00    +0.000 C 
BRANCH  34  35
ATOM     35  C   UNL     1       4.529   4.339  19.263  0.00  0.00    +0.000 C 
ATOM     36  O   UNL     1       5.664   3.907  19.184  0.00  0.00    +0.000 OA
BRANCH  35  37
ATOM     37  O   UNL     1       3.501   3.575  19.699  0.00  0.00    +0.000 OA
ATOM     38  H   UNL     1       2.920   3.209  19.007  0.00  0.00    +0.000 HD
ENDBRANCH  35  37
ENDBRANCH  34  35
ENDBRANCH  31  34
ENDBRANCH  30  31
ENDBRANCH  27  30
ENDBRANCH  26  27
ENDBRANCH  25  26
ENDBRANCH   8  25
TORSDOF 14
ENDMDL
