MODEL 1
REMARK VINA RESULT:      -4.7      0.000      0.000
REMARK  Name = 
REMARK  9 active torsions:
REMARK  status: ('A' for Active; 'I' for Inactive)
REMARK    1  A    between atoms: C_1  and  C_2
REMARK    2  A    between atoms: C_2  and  C_3
REMARK    3  A    between atoms: C_3  and  C_4
REMARK    4  A    between atoms: C_4  and  C_5
REMARK    5  A    between atoms: C_5  and  C_6
REMARK    6  A    between atoms: C_6  and  C_7
REMARK    7  A    between atoms: C_7  and  C_8
REMARK    8  A    between atoms: C_8  and  C_9
REMARK    9  A    between atoms: C_9  and  C_10
REMARK                            x       y       z     vdW  Elec       q    Type
REMARK                         _______ _______ _______ _____ _____    ______ ____
ROOT
ATOM      1  C   UNL     1       5.475   4.021  13.902  0.00  0.00    +0.000 C 
ENDROOT
BRANCH   1   2
ATOM      2  C   UNL     1       6.324   3.458  12.765  0.00  0.00    +0.000 C 
BRANCH   2   3
ATOM      3  C   UNL     1       5.448   2.858  11.667  0.00  0.00    +0.000 C 
BRANCH   3   4
ATOM      4  C   UNL     1       4.117   3.605  11.563  0.00  0.00    +0.000 C 
BRANCH   4   6
ATOM      5  C   UNL     1       2.865   4.279   9.491  0.00  0.00    +0.000 C 
ATOM      6  C   UNL     1       3.301   3.117  10.370  0.00  0.00    +0.000 C 
ENDBRANCH   4   6
ENDBRANCH   3   4
ENDBRANCH   2   3
ENDBRANCH   1   2
BRANCH   1   7
ATOM      7  C   UNL     1       6.304   4.929  14.810  0.00  0.00    +0.000 C 
BRANCH   7   8
ATOM      8  C   UNL     1       6.177   4.507  16.272  0.00  0.00    +0.000 C 
BRANCH   8   9
ATOM      9  C   UNL     1       4.743   4.100  16.608  0.00  0.00    +0.000 C 
BRANCH   9  10
ATOM     10  C   UNL     1       4.189   4.951  17.742  0.00  0.00    +0.000 C 
ATOM     11 CL   UNL     1       5.278   4.900  19.147  0.00  0.00    +0.000 Cl
ENDBRANCH   9  10
ENDBRANCH   8   9
ENDBRANCH   7   8
ENDBRANCH   1   7
TORSDOF 8
ENDMDL
MODEL 2
REMARK VINA RESULT:      -4.6      4.330      7.217
REMARK  Name = 
REMARK  9 active torsions:
REMARK  status: ('A' for Active; 'I' for Inactive)
REMARK    1  A    between atoms: C_1  and  C_2
REMARK    2  A    between atoms: C_2  and  C_3
REMARK    3  A    between atoms: C_3  and  C_4
REMARK    4  A    between atoms: C_4  and  C_5
REMARK    5  A    between atoms: C_5  and  C_6
REMARK    6  A    between atoms: C_6  and  C_7
REMARK    7  A    between atoms: C_7  and  C_8
REMARK    8  A    between atoms: C_8  and  C_9
REMARK    9  A    between atoms: C_9  and  C_10
REMARK                            x       y       z     vdW  Elec       q    Type
REMARK                         _______ _______ _______ _____ _____    ______ ____
ROOT
ATOM      1  C   UNL     1       1.693   3.860  17.907  0.00  0.00    +0.000 C 
ENDROOT
BRANCH   1   2
ATOM      2  C   UNL     1       2.170   5.089  18.679  0.00  0.00    +0.000 C 
BRANCH   2   3
ATOM      3  C   UNL     1       1.911   4.934  20.176  0.00  0.00    +0.000 C 
BRANCH   3   4
ATOM      4  C   UNL     1       0.838   3.877  20.438  0.00  0.00    +0.000 C 
BRANCH   4   6
ATOM      5  C   UNL     1       2.860   2.704  21.359  0.00  0.00    +0.000 C 
ATOM      6  C   UNL     1       1.343   2.800  21.393  0.00  0.00    +0.000 C 
ENDBRANCH   4   6
ENDBRANCH   3   4
ENDBRANCH   2   3
ENDBRANCH   1   2
BRANCH   1   7
ATOM      7  C   UNL     1       2.823   3.269  17.064  0.00  0.00    +0.000 C 
BRANCH   7   8
ATOM      8  C   UNL     1       4.175   3.460  17.747  0.00  0.00    +0.000 C 
BRANCH   8   9
ATOM      9  C   UNL     1       5.194   4.082  16.794  0.00  0.00    +0.000 C 
BRANCH   9  10
ATOM     10  C   UNL     1       5.657   5.439  17.305  0.00  0.00    +0.000 C 
ATOM     11 CL   UNL     1       4.642   6.735  16.632  0.00  0.00    +0.000 Cl
ENDBRANCH   9  10
ENDBRANCH   8   9
ENDBRANCH   7   8
ENDBRANCH   1   7
TORSDOF 8
ENDMDL
MODEL 3
REMARK VINA RESULT:      -4.5      4.347      6.741
REMARK  Name = 
REMARK  9 active torsions:
REMARK  status: ('A' for Active; 'I' for Inactive)
REMARK    1  A    between atoms: C_1  and  C_2
REMARK    2  A    between atoms: C_2  and  C_3
REMARK    3  A    between atoms: C_3  and  C_4
REMARK    4  A    between atoms: C_4  and  C_5
REMARK    5  A    between atoms: C_5  and  C_6
REMARK    6  A    between atoms: C_6  and  C_7
REMARK    7  A    between atoms: C_7  and  C_8
REMARK    8  A    between atoms: C_8  and  C_9
REMARK    9  A    between atoms: C_9  and  C_10
REMARK                            x       y       z     vdW  Elec       q    Type
REMARK                         _______ _______ _______ _____ _____    ______ ____
ROOT
ATOM      1  C   UNL     1       4.010   3.843  18.080  0.00  0.00    +0.000 C 
ENDROOT
BRANCH   1   2
ATOM      2  C   UNL     1       2.860   2.884  17.784  0.00  0.00    +0.000 C 
BRANCH   2   3
ATOM      3  C   UNL     1       1.511   3.525  18.106  0.00  0.00    +0.000 C 
BRANCH   3   4
ATOM      4  C   UNL     1       0.867   2.858  19.322  0.00  0.00    +0.000 C 
BRANCH   4   6
ATOM      5  C   UNL     1       2.045   2.847  21.541  0.00  0.00    +0.000 C 
ATOM      6  C   UNL     1       1.154   3.641  20.599  0.00  0.00    +0.000 C 
ENDBRANCH   4   6
ENDBRANCH   3   4
ENDBRANCH   2   3
ENDBRANCH   1   2
BRANCH   1   7
ATOM      7  C   UNL     1       3.555   5.298  17.967  0.00  0.00    +0.000 C 
BRANCH   7   8
ATOM      8  C   UNL     1       4.472   6.088  17.036  0.00  0.00    +0.000 C 
BRANCH   8   9
ATOM      9  C   UNL     1       5.940   5.734  17.273  0.00  0.00    +0.000 C 
BRANCH   9  10
ATOM     10  C   UNL     1       6.647   5.444  15.957  0.00  0.00    +0.000 C 
ATOM     11 CL   UNL     1       5.544   4.634  14.823  0.00  0.00    +0.000 Cl
ENDBRANCH   9  10
ENDBRANCH   8   9
ENDBRANCH   7   8
ENDBRANCH   1   7
TORSDOF 8
ENDMDL
MODEL 4
REMARK VINA RESULT:      -4.5      4.824      6.517
REMARK  Name = 
REMARK  9 active torsions:
REMARK  status: ('A' for Active; 'I' for Inactive)
REMARK    1  A    between atoms: C_1  and  C_2
REMARK    2  A    between atoms: C_2  and  C_3
REMARK    3  A    between atoms: C_3  and  C_4
REMARK    4  A    between atoms: C_4  and  C_5
REMARK    5  A    between atoms: C_5  and  C_6
REMARK    6  A    between atoms: C_6  and  C_7
REMARK    7  A    between atoms: C_7  and  C_8
REMARK    8  A    between atoms: C_8  and  C_9
REMARK    9  A    between atoms: C_9  and  C_10
REMARK                            x       y       z     vdW  Elec       q    Type
REMARK                         _______ _______ _______ _____ _____    ______ ____
ROOT
ATOM      1  C   UNL     1       3.804   4.332  17.294  0.00  0.00    +0.000 C 
ENDROOT
BRANCH   1   2
ATOM      2  C   UNL     1       2.638   3.350  17.218  0.00  0.00    +0.000 C 
BRANCH   2   3
ATOM      3  C   UNL     1       1.438   3.855  18.018  0.00  0.00    +0.000 C 
BRANCH   3   4
ATOM      4  C   UNL     1       0.861   2.744  18.896  0.00  0.00    +0.000 C 
BRANCH   4   6
ATOM      5  C   UNL     1       1.632   3.875  21.003  0.00  0.00    +0.000 C 
ATOM      6  C   UNL     1       1.655   2.590  20.189  0.00  0.00    +0.000 C 
ENDBRANCH   4   6
ENDBRANCH   3   4
ENDBRANCH   2   3
ENDBRANCH   1   2
BRANCH   1   7
ATOM      7  C   UNL     1       4.688   4.042  18.507  0.00  0.00    +0.000 C 
BRANCH   7   8
ATOM      8  C   UNL     1       5.233   5.335  19.110  0.00  0.00    +0.000 C 
BRANCH   8   9
ATOM      9  C   UNL     1       6.652   5.619  18.622  0.00  0.00    +0.000 C 
BRANCH   9  10
ATOM     10  C   UNL     1       6.641   6.622  17.476  0.00  0.00    +0.000 C 
ATOM     11 CL   UNL     1       7.876   7.874  17.734  0.00  0.00    +0.000 Cl
ENDBRANCH   9  10
ENDBRANCH   8   9
ENDBRANCH   7   8
ENDBRANCH   1   7
TORSDOF 8
ENDMDL
MODEL 5
REMARK VINA RESULT:      -4.5      3.807      6.838
REMARK  Name = 
REMARK  9 active torsions:
REMARK  status: ('A' for Active; 'I' for Inactive)
REMARK    1  A    between atoms: C_1  and  C_2
REMARK    2  A    between atoms: C_2  and  C_3
REMARK    3  A    between atoms: C_3  and  C_4
REMARK    4  A    between atoms: C_4  and  C_5
REMARK    5  A    between atoms: C_5  and  C_6
REMARK    6  A    between atoms: C_6  and  C_7
REMARK    7  A    between atoms: C_7  and  C_8
REMARK    8  A    between atoms: C_8  and  C_9
REMARK    9  A    between atoms: C_9  and  C_10
REMARK                            x       y       z     vdW  Elec       q    Type
REMARK                         _______ _______ _______ _____ _____    ______ ____
ROOT
ATOM      1  C   UNL     1       2.673   3.640  17.216  0.00  0.00    +0.000 C 
ENDROOT
BRANCH   1   2
ATOM      2  C   UNL     1       2.348   2.270  17.808  0.00  0.00    +0.000 C 
BRANCH   2   3
ATOM      3  C   UNL     1       2.525   2.270  19.326  0.00  0.00    +0.000 C 
BRANCH   3   4
ATOM      4  C   UNL     1       1.266   2.787  20.022  0.00  0.00    +0.000 C 
BRANCH   4   6
ATOM      5  C   UNL     1       2.026   5.108  20.612  0.00  0.00    +0.000 C 
ATOM      6  C   UNL     1       1.614   3.748  21.154  0.00  0.00    +0.000 C 
ENDBRANCH   4   6
ENDBRANCH   3   4
ENDBRANCH   2   3
ENDBRANCH   1   2
BRANCH   1   7
ATOM      7  C   UNL     1       4.178   3.803  17.002  0.00  0.00    +0.000 C 
BRANCH   7   8
ATOM      8  C   UNL     1       4.555   5.276  16.863  0.00  0.00    +0.000 C 
BRANCH   8   9
ATOM      9  C   UNL     1       5.606   5.477  15.772  0.00  0.00    +0.000 C 
BRANCH   9  10
ATOM     10  C   UNL     1       6.199   4.145  15.337  0.00  0.00    +0.000 C 
ATOM     11 CL   UNL     1       5.915   3.873  13.604  0.00  0.00    +0.000 Cl
ENDBRANCH   9  10
ENDBRANCH   8   9
ENDBRANCH   7   8
ENDBRANCH   1   7
TORSDOF 8
ENDMDL
MODEL 6
REMARK VINA RESULT:      -4.5      3.836      7.048
REMARK  Name = 
REMARK  9 active torsions:
REMARK  status: ('A' for Active; 'I' for Inactive)
REMARK    1  A    between atoms: C_1  and  C_2
REMARK    2  A    between atoms: C_2  and  C_3
REMARK    3  A    between atoms: C_3  and  C_4
REMARK    4  A    between atoms: C_4  and  C_5
REMARK    5  A    between atoms: C_5  and  C_6
REMARK    6  A    between atoms: C_6  and  C_7
REMARK    7  A    between atoms: C_7  and  C_8
REMARK    8  A    between atoms: C_8  and  C_9
REMARK    9  A    between atoms: C_9  and  C_10
REMARK                            x       y       z     vdW  Elec       q    Type
REMARK                         _______ _______ _______ _____ _____    ______ ____
ROOT
ATOM      1  C   UNL     1       3.654   4.913  17.527  0.00  0.00    +0.000 C 
ENDROOT
BRANCH   1   2
ATOM      2  C   UNL     1       2.295   5.191  18.164  0.00  0.00    +0.000 C 
BRANCH   2   3
ATOM      3  C   UNL     1       2.444   6.003  19.450  0.00  0.00    +0.000 C 
BRANCH   3   4
ATOM      4  C   UNL     1       1.738   5.311  20.617  0.00  0.00    +0.000 C 
BRANCH   4   6
ATOM      5  C   UNL     1       1.347   2.896  21.193  0.00  0.00    +0.000 C 
ATOM      6  C   UNL     1       1.097   3.999  20.176  0.00  0.00    +0.000 C 
ENDBRANCH   4   6
ENDBRANCH   3   4
ENDBRANCH   2   3
ENDBRANCH   1   2
BRANCH   1   7
ATOM      7  C   UNL     1       4.644   6.037  17.834  0.00  0.00    +0.000 C 
BRANCH   7   8
ATOM      8  C   UNL     1       5.423   6.437  16.583  0.00  0.00    +0.000 C 
BRANCH   8   9
ATOM      9  C   UNL     1       5.229   5.419  15.460  0.00  0.00    +0.000 C 
BRANCH   9  10
ATOM     10  C   UNL     1       6.569   4.890  14.969  0.00  0.00    +0.000 C 
ATOM     11 CL   UNL     1       6.344   3.853  13.543  0.00  0.00    +0.000 Cl
ENDBRANCH   9  10
ENDBRANCH   8   9
ENDBRANCH   7   8
ENDBRANCH   1   7
TORSDOF 8
ENDMDL
MODEL 7
REMARK VINA RESULT:      -4.5      4.343      6.072
REMARK  Name = 
REMARK  9 active torsions:
REMARK  status: ('A' for Active; 'I' for Inactive)
REMARK    1  A    between atoms: C_1  and  C_2
REMARK    2  A    between atoms: C_2  and  C_3
REMARK    3  A    between atoms: C_3  and  C_4
REMARK    4  A    between atoms: C_4  and  C_5
REMARK    5  A    between atoms: C_5  and  C_6
REMARK    6  A    between atoms: C_6  and  C_7
REMARK    7  A    between atoms: C_7  and  C_8
REMARK    8  A    between atoms: C_8  and  C_9
REMARK    9  A    between atoms: C_9  and  C_10
REMARK                            x       y       z     vdW  Elec       q    Type
REMARK                         _______ _______ _______ _____ _____    ______ ____
ROOT
ATOM      1  C   UNL     1       3.399   4.247  17.565  0.00  0.00    +0.000 C 
ENDROOT
BRANCH   1   2
ATOM      2  C   UNL     1       3.656   5.721  17.869  0.00  0.00    +0.000 C 
BRANCH   2   3
ATOM      3  C   UNL     1       5.143   6.055  17.761  0.00  0.00    +0.000 C 
BRANCH   3   4
ATOM      4  C   UNL     1       5.996   4.966  18.413  0.00  0.00    +0.000 C 
BRANCH   4   6
ATOM      5  C   UNL     1       7.011   4.557  16.151  0.00  0.00    +0.000 C 
ATOM      6  C   UNL     1       7.288   4.736  17.636  0.00  0.00    +0.000 C 
ENDBRANCH   4   6
ENDBRANCH   3   4
ENDBRANCH   2   3
ENDBRANCH   1   2
BRANCH   1   7
ATOM      7  C   UNL     1       1.905   3.929  17.610  0.00  0.00    +0.000 C 
BRANCH   7   8
ATOM      8  C   UNL     1       1.635   2.681  18.449  0.00  0.00    +0.000 C 
BRANCH   8   9
ATOM      9  C   UNL     1       0.763   3.007  19.660  0.00  0.00    +0.000 C 
BRANCH   9  10
ATOM     10  C   UNL     1       1.599   3.067  20.931  0.00  0.00    +0.000 C 
ATOM     11 CL   UNL     1       2.260   4.700  21.163  0.00  0.00    +0.000 Cl
ENDBRANCH   9  10
ENDBRANCH   8   9
ENDBRANCH   7   8
ENDBRANCH   1   7
TORSDOF 8
ENDMDL
MODEL 8
REMARK VINA RESULT:      -4.5      4.458      7.149
REMARK  Name = 
REMARK  9 active torsions:
REMARK  status: ('A' for Active; 'I' for Inactive)
REMARK    1  A    between atoms: C_1  and  C_2
REMARK    2  A    between atoms: C_2  and  C_3
REMARK    3  A    between atoms: C_3  and  C_4
REMARK    4  A    between atoms: C_4  and  C_5
REMARK    5  A    between atoms: C_5  and  C_6
REMARK    6  A    between atoms: C_6  and  C_7
REMARK    7  A    between atoms: C_7  and  C_8
REMARK    8  A    between atoms: C_8  and  C_9
REMARK    9  A    between atoms: C_9  and  C_10
REMARK                            x       y       z     vdW  Elec       q    Type
REMARK                         _______ _______ _______ _____ _____    ______ ____
ROOT
ATOM      1  C   UNL     1       2.463   6.282  19.384  0.00  0.00    +0.000 C 
ENDROOT
BRANCH   1   2
ATOM      2  C   UNL     1       2.521   5.174  20.433  0.00  0.00    +0.000 C 
BRANCH   2   3
ATOM      3  C   UNL     1       1.165   4.487  20.586  0.00  0.00    +0.000 C 
BRANCH   3   4
ATOM      4  C   UNL     1       1.338   3.027  21.007  0.00  0.00    +0.000 C 
BRANCH   4   6
ATOM      5  C   UNL     1       0.836   2.323  18.647  0.00  0.00    +0.000 C 
ATOM      6  C   UNL     1       1.777   2.160  19.832  0.00  0.00    +0.000 C 
ENDBRANCH   4   6
ENDBRANCH   3   4
ENDBRANCH   2   3
ENDBRANCH   1   2
BRANCH   1   7
ATOM      7  C   UNL     1       2.347   5.700  17.976  0.00  0.00    +0.000 C 
BRANCH   7   8
ATOM      8  C   UNL     1       3.502   4.745  17.681  0.00  0.00    +0.000 C 
BRANCH   8   9
ATOM      9  C   UNL     1       4.807   5.507  17.458  0.00  0.00    +0.000 C 
BRANCH   9  10
ATOM     10  C   UNL     1       5.818   4.647  16.713  0.00  0.00    +0.000 C 
ATOM     11 CL   UNL     1       5.402   4.552  14.988  0.00  0.00    +0.000 Cl
ENDBRANCH   9  10
ENDBRANCH   8   9
ENDBRANCH   7   8
ENDBRANCH   1   7
TORSDOF 8
ENDMDL
MODEL 9
REMARK VINA RESULT:      -4.4      4.011      6.522
REMARK  Name = 
REMARK  9 active torsions:
REMARK  status: ('A' for Active; 'I' for Inactive)
REMARK    1  A    between atoms: C_1  and  C_2
REMARK    2  A    between atoms: C_2  and  C_3
REMARK    3  A    between atoms: C_3  and  C_4
REMARK    4  A    between atoms: C_4  and  C_5
REMARK    5  A    between atoms: C_5  and  C_6
REMARK    6  A    between atoms: C_6  and  C_7
REMARK    7  A    between atoms: C_7  and  C_8
REMARK    8  A    between atoms: C_8  and  C_9
REMARK    9  A    between atoms: C_9  and  C_10
REMARK                            x       y       z     vdW  Elec       q    Type
REMARK                         _______ _______ _______ _____ _____    ______ ____
ROOT
ATOM      1  C   UNL     1       3.840   3.178  18.089  0.00  0.00    +0.000 C 
ENDROOT
BRANCH   1   2
ATOM      2  C   UNL     1       2.423   3.397  17.563  0.00  0.00    +0.000 C 
BRANCH   2   3
ATOM      3  C   UNL     1       1.411   2.561  18.345  0.00  0.00    +0.000 C 
BRANCH   3   4
ATOM      4  C   UNL     1       1.616   2.725  19.851  0.00  0.00    +0.000 C 
BRANCH   4   6
ATOM      5  C   UNL     1       2.077   4.970  20.880  0.00  0.00    +0.000 C 
ATOM      6  C   UNL     1       1.005   4.028  20.354  0.00  0.00    +0.000 C 
ENDBRANCH   4   6
ENDBRANCH   3   4
ENDBRANCH   2   3
ENDBRANCH   1   2
BRANCH   1   7
ATOM      7  C   UNL     1       4.734   4.378  17.774  0.00  0.00    +0.000 C 
BRANCH   7   8
ATOM      8  C   UNL     1       4.927   4.536  16.268  0.00  0.00    +0.000 C 
BRANCH   8   9
ATOM      9  C   UNL     1       5.313   5.970  15.907  0.00  0.00    +0.000 C 
BRANCH   9  10
ATOM     10  C   UNL     1       5.644   6.774  17.157  0.00  0.00    +0.000 C 
ATOM     11 CL   UNL     1       7.402   6.988  17.311  0.00  0.00    +0.000 Cl
ENDBRANCH   9  10
ENDBRANCH   8   9
ENDBRANCH   7   8
ENDBRANCH   1   7
TORSDOF 8
ENDMDL
