MODEL 1
REMARK VINA RESULT:      -8.3      0.000      0.000
REMARK  Name = 
REMARK  13 active torsions:
REMARK  status: ('A' for Active; 'I' for Inactive)
REMARK    1  A    between atoms: C_1  and  C_2
REMARK    2  A    between atoms: C_2  and  C_3
REMARK    3  A    between atoms: C_3  and  O_4
REMARK    4  A    between atoms: O_4  and  C_5
REMARK    5  A    between atoms: N_7  and  C_8
REMARK    6  A    between atoms: C_18  and  S_19
REMARK    7  A    between atoms: S_19  and  N_22
REMARK    8  A    between atoms: N_22  and  C_23
REMARK    9  A    between atoms: C_23  and  C_24
REMARK   10  A    between atoms: C_23  and  C_27
REMARK   11  A    between atoms: C_24  and  O_26
REMARK   12  A    between atoms: C_27  and  C_28
REMARK   13  A    between atoms: C_27  and  C_29
REMARK                            x       y       z     vdW  Elec       q    Type
REMARK                         _______ _______ _______ _____ _____    ______ ____
ROOT
ATOM      1  C   UNL     1      -1.108  11.231  22.631  0.00  0.00    +0.000 A 
ATOM      2  C   UNL     1      -0.673  10.034  23.211  0.00  0.00    +0.000 A 
ATOM      3  C   UNL     1       0.088   9.096  22.496  0.00  0.00    +0.000 A 
ATOM      4  C   UNL     1       0.420   9.376  21.164  0.00  0.00    +0.000 A 
ATOM      5  C   UNL     1      -0.081  10.541  20.593  0.00  0.00    +0.000 A 
ATOM      6  C   UNL     1      -0.865  11.478  21.272  0.00  0.00    +0.000 A 
ATOM      7  O   UNL     1       0.320  10.639  19.295  0.00  0.00    +0.000 OA
ATOM      8  C   UNL     1       1.116   9.563  19.041  0.00  0.00    +0.000 A 
ATOM      9  C   UNL     1       1.753   9.307  17.831  0.00  0.00    +0.000 A 
ATOM     10  C   UNL     1       2.544   8.151  17.769  0.00  0.00    +0.000 A 
ATOM     11  C   UNL     1       2.678   7.309  18.885  0.00  0.00    +0.000 A 
ATOM     12  C   UNL     1       2.015   7.583  20.088  0.00  0.00    +0.000 A 
ATOM     13  C   UNL     1       1.214   8.745  20.162  0.00  0.00    +0.000 A 
ENDROOT
BRANCH   1  16
ATOM     14  C   UNL     1      -3.101  12.616  23.171  0.00  0.00    +0.000 C 
ATOM     15  O   UNL     1      -3.941  12.115  22.440  0.00  0.00    +0.000 OA
ATOM     16  N   UNL     1      -1.805  12.213  23.363  0.00  0.00    +0.000 N 
ATOM     17  H   UNL     1      -1.316  12.711  24.095  0.00  0.00    +0.000 HD
BRANCH  14  18
ATOM     18  O   UNL     1      -3.311  13.762  23.872  0.00  0.00    +0.000 OA
BRANCH  18  19
ATOM     19  C   UNL     1      -4.665  14.224  23.786  0.00  0.00    +0.000 C 
BRANCH  19  21
ATOM     20  C   UNL     1      -3.918  16.311  24.911  0.00  0.00    +0.000 C 
ATOM     21  C   UNL     1      -4.794  15.740  23.803  0.00  0.00    +0.000 C 
ENDBRANCH  19  21
ENDBRANCH  18  19
ENDBRANCH  14  18
ENDBRANCH   1  16
BRANCH  11  22
ATOM     22  S   UNL     1       3.643   5.828  18.734  0.00  0.00    +0.000 S 
ATOM     23  O   UNL     1       3.519   5.359  17.377  0.00  0.00    +0.000 OA
ATOM     24  O   UNL     1       4.939   6.045  19.353  0.00  0.00    +0.000 OA
BRANCH  22  25
ATOM     25  N   UNL     1       2.857   4.687  19.693  0.00  0.00    +0.000 NA
ATOM     26  H   UNL     1       1.925   5.020  19.930  0.00  0.00    +0.000 HD
BRANCH  25  27
ATOM     27  C   UNL     1       2.995   3.259  19.313  0.00  0.00    +0.000 C 
BRANCH  27  28
ATOM     28  C   UNL     1       1.861   2.388  19.911  0.00  0.00    +0.000 C 
ATOM     29  C   UNL     1       1.335   2.867  21.267  0.00  0.00    +0.000 C 
ATOM     30  C   UNL     1       0.683   2.241  18.936  0.00  0.00    +0.000 C 
ENDBRANCH  27  28
BRANCH  27  31
ATOM     31  C   UNL     1       4.381   2.707  19.674  0.00  0.00    +0.000 C 
ATOM     32  O   UNL     1       4.636   2.002  20.640  0.00  0.00    +0.000 OA
BRANCH  31  33
ATOM     33  O   UNL     1       5.372   3.128  18.841  0.00  0.00    +0.000 OA
ATOM     34  H   UNL     1       5.974   3.793  19.232  0.00  0.00    +0.000 HD
ENDBRANCH  31  33
ENDBRANCH  27  31
ENDBRANCH  25  27
ENDBRANCH  22  25
ENDBRANCH  11  22
TORSDOF 10
ENDMDL
MODEL 2
REMARK VINA RESULT:      -7.8      2.899      4.445
REMARK  Name = 
REMARK  13 active torsions:
REMARK  status: ('A' for Active; 'I' for Inactive)
REMARK    1  A    between atoms: C_1  and  C_2
REMARK    2  A    between atoms: C_2  and  C_3
REMARK    3  A    between atoms: C_3  and  O_4
REMARK    4  A    between atoms: O_4  and  C_5
REMARK    5  A    between atoms: N_7  and  C_8
REMARK    6  A    between atoms: C_18  and  S_19
REMARK    7  A    between atoms: S_19  and  N_22
REMARK    8  A    between atoms: N_22  and  C_23
REMARK    9  A    between atoms: C_23  and  C_24
REMARK   10  A    between atoms: C_23  and  C_27
REMARK   11  A    between atoms: C_24  and  O_26
REMARK   12  A    between atoms: C_27  and  C_28
REMARK   13  A    between atoms: C_27  and  C_29
REMARK                            x       y       z     vdW  Elec       q    Type
REMARK                         _______ _______ _______ _____ _____    ______ ____
ROOT
ATOM      1  C   UNL     1       0.633  11.099  19.782  0.00  0.00    +0.000 A 
ATOM      2  C   UNL     1       1.271  10.903  18.550  0.00  0.00    +0.000 A 
ATOM      3  C   UNL     1       1.854   9.675  18.202  0.00  0.00    +0.000 A 
ATOM      4  C   UNL     1       1.789   8.618  19.120  0.00  0.00    +0.000 A 
ATOM      5  C   UNL     1       1.208   8.859  20.360  0.00  0.00    +0.000 A 
ATOM      6  C   UNL     1       0.646  10.079  20.745  0.00  0.00    +0.000 A 
ATOM      7  O   UNL     1       1.252   7.734  21.127  0.00  0.00    +0.000 OA
ATOM      8  C   UNL     1       1.818   6.755  20.367  0.00  0.00    +0.000 A 
ATOM      9  C   UNL     1       2.017   5.440  20.775  0.00  0.00    +0.000 A 
ATOM     10  C   UNL     1       2.604   4.574  19.841  0.00  0.00    +0.000 A 
ATOM     11  C   UNL     1       2.961   5.029  18.562  0.00  0.00    +0.000 A 
ATOM     12  C   UNL     1       2.761   6.362  18.180  0.00  0.00    +0.000 A 
ATOM     13  C   UNL     1       2.171   7.244  19.113  0.00  0.00    +0.000 A 
ENDROOT
BRANCH   1  16
ATOM     14  C   UNL     1       0.424  13.277  20.962  0.00  0.00    +0.000 C 
ATOM     15  O   UNL     1       1.522  13.365  21.489  0.00  0.00    +0.000 OA
ATOM     16  N   UNL     1      -0.023  12.303  20.107  0.00  0.00    +0.000 N 
ATOM     17  H   UNL     1      -0.934  12.484  19.707  0.00  0.00    +0.000 HD
BRANCH  14  18
ATOM     18  O   UNL     1      -0.601  14.129  21.230  0.00  0.00    +0.000 OA
BRANCH  18  19
ATOM     19  C   UNL     1      -1.789  13.450  21.657  0.00  0.00    +0.000 C 
BRANCH  19  21
ATOM     20  C   UNL     1      -2.992  12.208  23.444  0.00  0.00    +0.000 C 
ATOM     21  C   UNL     1      -1.782  13.082  23.134  0.00  0.00    +0.000 C 
ENDBRANCH  19  21
ENDBRANCH  18  19
ENDBRANCH  14  18
ENDBRANCH   1  16
BRANCH  11  22
ATOM     22  S   UNL     1       3.755   3.907  17.440  0.00  0.00    +0.000 S 
ATOM     23  O   UNL     1       4.715   3.139  18.192  0.00  0.00    +0.000 OA
ATOM     24  O   UNL     1       2.744   3.271  16.615  0.00  0.00    +0.000 OA
BRANCH  22  25
ATOM     25  N   UNL     1       4.654   4.881  16.400  0.00  0.00    +0.000 NA
ATOM     26  H   UNL     1       4.324   5.843  16.458  0.00  0.00    +0.000 HD
BRANCH  25  27
ATOM     27  C   UNL     1       6.122   4.666  16.354  0.00  0.00    +0.000 C 
BRANCH  27  28
ATOM     28  C   UNL     1       6.897   5.797  17.077  0.00  0.00    +0.000 C 
ATOM     29  C   UNL     1       6.113   7.100  17.246  0.00  0.00    +0.000 C 
ATOM     30  C   UNL     1       7.420   5.341  18.447  0.00  0.00    +0.000 C 
ENDBRANCH  27  28
BRANCH  27  31
ATOM     31  C   UNL     1       6.622   4.468  14.916  0.00  0.00    +0.000 C 
ATOM     32  O   UNL     1       6.204   3.633  14.127  0.00  0.00    +0.000 OA
BRANCH  31  33
ATOM     33  O   UNL     1       7.659   5.283  14.581  0.00  0.00    +0.000 OA
ATOM     34  H   UNL     1       7.414   6.033  14.002  0.00  0.00    +0.000 HD
ENDBRANCH  31  33
ENDBRANCH  27  31
ENDBRANCH  25  27
ENDBRANCH  22  25
ENDBRANCH  11  22
TORSDOF 10
ENDMDL
MODEL 3
REMARK VINA RESULT:      -7.8      2.255      3.094
REMARK  Name = 
REMARK  13 active torsions:
REMARK  status: ('A' for Active; 'I' for Inactive)
REMARK    1  A    between atoms: C_1  and  C_2
REMARK    2  A    between atoms: C_2  and  C_3
REMARK    3  A    between atoms: C_3  and  O_4
REMARK    4  A    between atoms: O_4  and  C_5
REMARK    5  A    between atoms: N_7  and  C_8
REMARK    6  A    between atoms: C_18  and  S_19
REMARK    7  A    between atoms: S_19  and  N_22
REMARK    8  A    between atoms: N_22  and  C_23
REMARK    9  A    between atoms: C_23  and  C_24
REMARK   10  A    between atoms: C_23  and  C_27
REMARK   11  A    between atoms: C_24  and  O_26
REMARK   12  A    between atoms: C_27  and  C_28
REMARK   13  A    between atoms: C_27  and  C_29
REMARK                            x       y       z     vdW  Elec       q    Type
REMARK                         _______ _______ _______ _____ _____    ______ ____
ROOT
ATOM      1  C   UNL     1      -1.032  11.394  22.656  0.00  0.00    +0.000 A 
ATOM      2  C   UNL     1      -0.699  10.136  23.172  0.00  0.00    +0.000 A 
ATOM      3  C   UNL     1       0.013   9.189  22.420  0.00  0.00    +0.000 A 
ATOM      4  C   UNL     1       0.401   9.522  21.115  0.00  0.00    +0.000 A 
ATOM      5  C   UNL     1       0.000  10.752  20.605  0.00  0.00    +0.000 A 
ATOM      6  C   UNL     1      -0.733  11.703  21.320  0.00  0.00    +0.000 A 
ATOM      7  O   UNL     1       0.444  10.898  19.325  0.00  0.00    +0.000 OA
ATOM      8  C   UNL     1       1.168   9.783  19.024  0.00  0.00    +0.000 A 
ATOM      9  C   UNL     1       1.820   9.554  17.817  0.00  0.00    +0.000 A 
ATOM     10  C   UNL     1       2.527   8.349  17.703  0.00  0.00    +0.000 A 
ATOM     11  C   UNL     1       2.569   7.435  18.768  0.00  0.00    +0.000 A 
ATOM     12  C   UNL     1       1.894   7.685  19.970  0.00  0.00    +0.000 A 
ATOM     13  C   UNL     1       1.176   8.896  20.096  0.00  0.00    +0.000 A 
ENDROOT
BRANCH   1  16
ATOM     14  C   UNL     1      -3.009  12.701  23.406  0.00  0.00    +0.000 C 
ATOM     15  O   UNL     1      -3.912  12.114  22.829  0.00  0.00    +0.000 OA
ATOM     16  N   UNL     1      -1.677  12.379  23.430  0.00  0.00    +0.000 N 
ATOM     17  H   UNL     1      -1.121  12.945  24.058  0.00  0.00    +0.000 HD
BRANCH  14  18
ATOM     18  O   UNL     1      -3.188  13.873  24.071  0.00  0.00    +0.000 OA
BRANCH  18  19
ATOM     19  C   UNL     1      -3.407  14.983  23.190  0.00  0.00    +0.000 C 
BRANCH  19  21
ATOM     20  C   UNL     1      -2.996  17.406  23.561  0.00  0.00    +0.000 C 
ATOM     21  C   UNL     1      -2.337  16.060  23.289  0.00  0.00    +0.000 C 
ENDBRANCH  19  21
ENDBRANCH  18  19
ENDBRANCH  14  18
ENDBRANCH   1  16
BRANCH  11  22
ATOM     22  S   UNL     1       3.430   5.899  18.551  0.00  0.00    +0.000 S 
ATOM     23  O   UNL     1       3.956   5.505  19.833  0.00  0.00    +0.000 OA
ATOM     24  O   UNL     1       2.607   5.006  17.754  0.00  0.00    +0.000 OA
BRANCH  22  25
ATOM     25  N   UNL     1       4.767   6.271  17.595  0.00  0.00    +0.000 NA
ATOM     26  H   UNL     1       4.972   7.266  17.663  0.00  0.00    +0.000 HD
BRANCH  25  27
ATOM     27  C   UNL     1       5.917   5.334  17.628  0.00  0.00    +0.000 C 
BRANCH  27  28
ATOM     28  C   UNL     1       7.261   6.072  17.858  0.00  0.00    +0.000 C 
ATOM     29  C   UNL     1       7.227   7.570  17.545  0.00  0.00    +0.000 C 
ATOM     30  C   UNL     1       7.785   5.867  19.287  0.00  0.00    +0.000 C 
ENDBRANCH  27  28
BRANCH  27  31
ATOM     31  C   UNL     1       5.965   4.450  16.374  0.00  0.00    +0.000 C 
ATOM     32  O   UNL     1       6.972   4.176  15.737  0.00  0.00    +0.000 OA
BRANCH  31  33
ATOM     33  O   UNL     1       4.742   4.022  15.959  0.00  0.00    +0.000 OA
ATOM     34  H   UNL     1       4.018   4.664  16.107  0.00  0.00    +0.000 HD
ENDBRANCH  31  33
ENDBRANCH  27  31
ENDBRANCH  25  27
ENDBRANCH  22  25
ENDBRANCH  11  22
TORSDOF 10
ENDMDL
MODEL 4
REMARK VINA RESULT:      -7.7      1.793      2.476
REMARK  Name = 
REMARK  13 active torsions:
REMARK  status: ('A' for Active; 'I' for Inactive)
REMARK    1  A    between atoms: C_1  and  C_2
REMARK    2  A    between atoms: C_2  and  C_3
REMARK    3  A    between atoms: C_3  and  O_4
REMARK    4  A    between atoms: O_4  and  C_5
REMARK    5  A    between atoms: N_7  and  C_8
REMARK    6  A    between atoms: C_18  and  S_19
REMARK    7  A    between atoms: S_19  and  N_22
REMARK    8  A    between atoms: N_22  and  C_23
REMARK    9  A    between atoms: C_23  and  C_24
REMARK   10  A    between atoms: C_23  and  C_27
REMARK   11  A    between atoms: C_24  and  O_26
REMARK   12  A    between atoms: C_27  and  C_28
REMARK   13  A    between atoms: C_27  and  C_29
REMARK                            x       y       z     vdW  Elec       q    Type
REMARK                         _______ _______ _______ _____ _____    ______ ____
ROOT
ATOM      1  C   UNL     1      -0.298  10.383  20.626  0.00  0.00    +0.000 A 
ATOM      2  C   UNL     1       0.015   9.348  21.516  0.00  0.00    +0.000 A 
ATOM      3  C   UNL     1       0.902   8.316  21.174  0.00  0.00    +0.000 A 
ATOM      4  C   UNL     1       1.491   8.332  19.902  0.00  0.00    +0.000 A 
ATOM      5  C   UNL     1       1.112   9.334  19.015  0.00  0.00    +0.000 A 
ATOM      6  C   UNL     1       0.209  10.356  19.319  0.00  0.00    +0.000 A 
ATOM      7  O   UNL     1       1.762   9.181  17.827  0.00  0.00    +0.000 OA
ATOM      8  C   UNL     1       2.593   8.110  17.962  0.00  0.00    +0.000 A 
ATOM      9  C   UNL     1       3.457   7.639  16.979  0.00  0.00    +0.000 A 
ATOM     10  C   UNL     1       4.245   6.529  17.314  0.00  0.00    +0.000 A 
ATOM     11  C   UNL     1       4.156   5.939  18.585  0.00  0.00    +0.000 A 
ATOM     12  C   UNL     1       3.268   6.425  19.553  0.00  0.00    +0.000 A 
ATOM     13  C   UNL     1       2.468   7.543  19.227  0.00  0.00    +0.000 A 
ENDROOT
BRANCH   1  16
ATOM     14  C   UNL     1      -0.752  12.593  21.669  0.00  0.00    +0.000 C 
ATOM     15  O   UNL     1       0.378  12.952  21.963  0.00  0.00    +0.000 OA
ATOM     16  N   UNL     1      -1.126  11.464  20.989  0.00  0.00    +0.000 N 
ATOM     17  H   UNL     1      -2.111  11.418  20.763  0.00  0.00    +0.000 HD
BRANCH  14  18
ATOM     18  O   UNL     1      -1.871  13.252  22.072  0.00  0.00    +0.000 OA
BRANCH  18  19
ATOM     19  C   UNL     1      -2.922  13.208  21.099  0.00  0.00    +0.000 C 
BRANCH  19  21
ATOM     20  C   UNL     1      -4.182  12.777  23.198  0.00  0.00    +0.000 C 
ATOM     21  C   UNL     1      -4.310  13.059  21.706  0.00  0.00    +0.000 C 
ENDBRANCH  19  21
ENDBRANCH  18  19
ENDBRANCH  14  18
ENDBRANCH   1  16
BRANCH  11  22
ATOM     22  S   UNL     1       5.133   4.500  18.936  0.00  0.00    +0.000 S 
ATOM     23  O   UNL     1       5.357   3.807  17.692  0.00  0.00    +0.000 OA
ATOM     24  O   UNL     1       6.229   4.876  19.811  0.00  0.00    +0.000 OA
BRANCH  22  25
ATOM     25  N   UNL     1       4.134   3.498  19.851  0.00  0.00    +0.000 NA
ATOM     26  H   UNL     1       4.130   3.809  20.821  0.00  0.00    +0.000 HD
BRANCH  25  27
ATOM     27  C   UNL     1       2.833   3.100  19.259  0.00  0.00    +0.000 C 
BRANCH  27  28
ATOM     28  C   UNL     1       1.730   2.935  20.336  0.00  0.00    +0.000 C 
ATOM     29  C   UNL     1       2.255   2.720  21.758  0.00  0.00    +0.000 C 
ATOM     30  C   UNL     1       0.752   4.119  20.333  0.00  0.00    +0.000 C 
ENDBRANCH  27  28
BRANCH  27  31
ATOM     31  C   UNL     1       2.966   1.840  18.391  0.00  0.00    +0.000 C 
ATOM     32  O   UNL     1       3.837   0.989  18.503  0.00  0.00    +0.000 OA
BRANCH  31  33
ATOM     33  O   UNL     1       2.041   1.761  17.396  0.00  0.00    +0.000 OA
ATOM     34  H   UNL     1       2.404   1.890  16.496  0.00  0.00    +0.000 HD
ENDBRANCH  31  33
ENDBRANCH  27  31
ENDBRANCH  25  27
ENDBRANCH  22  25
ENDBRANCH  11  22
TORSDOF 10
ENDMDL
MODEL 5
REMARK VINA RESULT:      -7.7      2.156      3.099
REMARK  Name = 
REMARK  13 active torsions:
REMARK  status: ('A' for Active; 'I' for Inactive)
REMARK    1  A    between atoms: C_1  and  C_2
REMARK    2  A    between atoms: C_2  and  C_3
REMARK    3  A    between atoms: C_3  and  O_4
REMARK    4  A    between atoms: O_4  and  C_5
REMARK    5  A    between atoms: N_7  and  C_8
REMARK    6  A    between atoms: C_18  and  S_19
REMARK    7  A    between atoms: S_19  and  N_22
REMARK    8  A    between atoms: N_22  and  C_23
REMARK    9  A    between atoms: C_23  and  C_24
REMARK   10  A    between atoms: C_23  and  C_27
REMARK   11  A    between atoms: C_24  and  O_26
REMARK   12  A    between atoms: C_27  and  C_28
REMARK   13  A    between atoms: C_27  and  C_29
REMARK                            x       y       z     vdW  Elec       q    Type
REMARK                         _______ _______ _______ _____ _____    ______ ____
ROOT
ATOM      1  C   UNL     1      -0.670  11.336  22.496  0.00  0.00    +0.000 A 
ATOM      2  C   UNL     1      -0.530  10.087  23.112  0.00  0.00    +0.000 A 
ATOM      3  C   UNL     1       0.061   8.996  22.455  0.00  0.00    +0.000 A 
ATOM      4  C   UNL     1       0.524   9.174  21.144  0.00  0.00    +0.000 A 
ATOM      5  C   UNL     1       0.312  10.405  20.533  0.00  0.00    +0.000 A 
ATOM      6  C   UNL     1      -0.299  11.498  21.153  0.00  0.00    +0.000 A 
ATOM      7  O   UNL     1       0.803  10.390  19.262  0.00  0.00    +0.000 OA
ATOM      8  C   UNL     1       1.371   9.167  19.068  0.00  0.00    +0.000 A 
ATOM      9  C   UNL     1       2.014   8.760  17.904  0.00  0.00    +0.000 A 
ATOM     10  C   UNL     1       2.549   7.464  17.902  0.00  0.00    +0.000 A 
ATOM     11  C   UNL     1       2.437   6.636  19.030  0.00  0.00    +0.000 A 
ATOM     12  C   UNL     1       1.773   7.067  20.187  0.00  0.00    +0.000 A 
ATOM     13  C   UNL     1       1.229   8.371  20.200  0.00  0.00    +0.000 A 
ENDROOT
BRANCH   1  16
ATOM     14  C   UNL     1      -2.512  12.791  23.314  0.00  0.00    +0.000 C 
ATOM     15  O   UNL     1      -3.491  12.125  23.012  0.00  0.00    +0.000 OA
ATOM     16  N   UNL     1      -1.191  12.456  23.174  0.00  0.00    +0.000 N 
ATOM     17  H   UNL     1      -0.546  13.116  23.588  0.00  0.00    +0.000 HD
BRANCH  14  18
ATOM     18  O   UNL     1      -2.594  14.068  23.775  0.00  0.00    +0.000 OA
BRANCH  18  19
ATOM     19  C   UNL     1      -1.877  15.000  22.957  0.00  0.00    +0.000 C 
BRANCH  19  21
ATOM     20  C   UNL     1      -1.631  15.158  20.488  0.00  0.00    +0.000 C 
ATOM     21  C   UNL     1      -2.590  15.344  21.657  0.00  0.00    +0.000 C 
ENDBRANCH  19  21
ENDBRANCH  18  19
ENDBRANCH  14  18
ENDBRANCH   1  16
BRANCH  11  22
ATOM     22  S   UNL     1       3.080   4.985  18.953  0.00  0.00    +0.000 S 
ATOM     23  O   UNL     1       3.568   4.642  20.265  0.00  0.00    +0.000 OA
ATOM     24  O   UNL     1       2.132   4.142  18.245  0.00  0.00    +0.000 OA
BRANCH  22  25
ATOM     25  N   UNL     1       4.440   5.083  17.964  0.00  0.00    +0.000 NA
ATOM     26  H   UNL     1       4.152   5.146  16.989  0.00  0.00    +0.000 HD
BRANCH  25  27
ATOM     27  C   UNL     1       5.547   5.967  18.405  0.00  0.00    +0.000 C 
BRANCH  27  28
ATOM     28  C   UNL     1       6.020   6.914  17.273  0.00  0.00    +0.000 C 
ATOM     29  C   UNL     1       7.499   7.305  17.345  0.00  0.00    +0.000 C 
ATOM     30  C   UNL     1       5.718   6.334  15.884  0.00  0.00    +0.000 C 
ENDBRANCH  27  28
BRANCH  27  31
ATOM     31  C   UNL     1       6.715   5.162  18.992  0.00  0.00    +0.000 C 
ATOM     32  O   UNL     1       7.295   5.412  20.039  0.00  0.00    +0.000 OA
BRANCH  31  33
ATOM     33  O   UNL     1       7.127   4.136  18.198  0.00  0.00    +0.000 OA
ATOM     34  H   UNL     1       7.966   4.305  17.722  0.00  0.00    +0.000 HD
ENDBRANCH  31  33
ENDBRANCH  27  31
ENDBRANCH  25  27
ENDBRANCH  22  25
ENDBRANCH  11  22
TORSDOF 10
ENDMDL
MODEL 6
REMARK VINA RESULT:      -7.7      3.285      4.730
REMARK  Name = 
REMARK  13 active torsions:
REMARK  status: ('A' for Active; 'I' for Inactive)
REMARK    1  A    between atoms: C_1  and  C_2
REMARK    2  A    between atoms: C_2  and  C_3
REMARK    3  A    between atoms: C_3  and  O_4
REMARK    4  A    between atoms: O_4  and  C_5
REMARK    5  A    between atoms: N_7  and  C_8
REMARK    6  A    between atoms: C_18  and  S_19
REMARK    7  A    between atoms: S_19  and  N_22
REMARK    8  A    between atoms: N_22  and  C_23
REMARK    9  A    between atoms: C_23  and  C_24
REMARK   10  A    between atoms: C_23  and  C_27
REMARK   11  A    between atoms: C_24  and  O_26
REMARK   12  A    between atoms: C_27  and  C_28
REMARK   13  A    between atoms: C_27  and  C_29
REMARK                            x       y       z     vdW  Elec       q    Type
REMARK                         _______ _______ _______ _____ _____    ______ ____
ROOT
ATOM      1  C   UNL     1       0.882  10.821  19.453  0.00  0.00    +0.000 A 
ATOM      2  C   UNL     1       1.563  10.501  18.272  0.00  0.00    +0.000 A 
ATOM      3  C   UNL     1       2.123   9.233  18.057  0.00  0.00    +0.000 A 
ATOM      4  C   UNL     1       1.991   8.263  19.060  0.00  0.00    +0.000 A 
ATOM      5  C   UNL     1       1.369   8.627  20.249  0.00  0.00    +0.000 A 
ATOM      6  C   UNL     1       0.828   9.890  20.501  0.00  0.00    +0.000 A 
ATOM      7  O   UNL     1       1.350   7.573  21.112  0.00  0.00    +0.000 OA
ATOM      8  C   UNL     1       1.917   6.517  20.464  0.00  0.00    +0.000 A 
ATOM      9  C   UNL     1       2.061   5.238  20.993  0.00  0.00    +0.000 A 
ATOM     10  C   UNL     1       2.660   4.279  20.165  0.00  0.00    +0.000 A 
ATOM     11  C   UNL     1       3.081   4.610  18.866  0.00  0.00    +0.000 A 
ATOM     12  C   UNL     1       2.934   5.909  18.362  0.00  0.00    +0.000 A 
ATOM     13  C   UNL     1       2.333   6.885  19.189  0.00  0.00    +0.000 A 
ENDROOT
BRANCH   1  16
ATOM     14  C   UNL     1      -0.690  12.643  18.832  0.00  0.00    +0.000 C 
ATOM     15  O   UNL     1      -1.265  12.143  17.877  0.00  0.00    +0.000 OA
ATOM     16  N   UNL     1       0.249  12.066  19.645  0.00  0.00    +0.000 N 
ATOM     17  H   UNL     1       0.516  12.628  20.441  0.00  0.00    +0.000 HD
BRANCH  14  18
ATOM     18  O   UNL     1      -0.842  13.945  19.193  0.00  0.00    +0.000 OA
BRANCH  18  19
ATOM     19  C   UNL     1       0.346  14.502  19.771  0.00  0.00    +0.000 C 
BRANCH  19  21
ATOM     20  C   UNL     1      -0.477  16.452  18.467  0.00  0.00    +0.000 C 
ATOM     21  C   UNL     1       0.722  15.862  19.199  0.00  0.00    +0.000 C 
ENDBRANCH  19  21
ENDBRANCH  18  19
ENDBRANCH  14  18
ENDBRANCH   1  16
BRANCH  11  22
ATOM     22  S   UNL     1       3.885   3.374  17.881  0.00  0.00    +0.000 S 
ATOM     23  O   UNL     1       3.784   2.119  18.582  0.00  0.00    +0.000 OA
ATOM     24  O   UNL     1       3.455   3.516  16.501  0.00  0.00    +0.000 OA
BRANCH  22  25
ATOM     25  N   UNL     1       5.519   3.785  17.901  0.00  0.00    +0.000 NA
ATOM     26  H   UNL     1       6.046   3.131  17.325  0.00  0.00    +0.000 HD
BRANCH  25  27
ATOM     27  C   UNL     1       5.867   5.223  17.789  0.00  0.00    +0.000 C 
BRANCH  27  28
ATOM     28  C   UNL     1       6.313   5.603  16.353  0.00  0.00    +0.000 C 
ATOM     29  C   UNL     1       6.763   4.420  15.492  0.00  0.00    +0.000 C 
ATOM     30  C   UNL     1       5.221   6.384  15.607  0.00  0.00    +0.000 C 
ENDBRANCH  27  28
BRANCH  27  31
ATOM     31  C   UNL     1       6.913   5.638  18.833  0.00  0.00    +0.000 C 
ATOM     32  O   UNL     1       6.960   5.239  19.988  0.00  0.00    +0.000 OA
BRANCH  31  33
ATOM     33  O   UNL     1       7.791   6.576  18.385  0.00  0.00    +0.000 OA
ATOM     34  H   UNL     1       8.004   7.274  19.037  0.00  0.00    +0.000 HD
ENDBRANCH  31  33
ENDBRANCH  27  31
ENDBRANCH  25  27
ENDBRANCH  22  25
ENDBRANCH  11  22
TORSDOF 10
ENDMDL
MODEL 7
REMARK VINA RESULT:      -7.7      2.723      4.467
REMARK  Name = 
REMARK  13 active torsions:
REMARK  status: ('A' for Active; 'I' for Inactive)
REMARK    1  A    between atoms: C_1  and  C_2
REMARK    2  A    between atoms: C_2  and  C_3
REMARK    3  A    between atoms: C_3  and  O_4
REMARK    4  A    between atoms: O_4  and  C_5
REMARK    5  A    between atoms: N_7  and  C_8
REMARK    6  A    between atoms: C_18  and  S_19
REMARK    7  A    between atoms: S_19  and  N_22
REMARK    8  A    between atoms: N_22  and  C_23
REMARK    9  A    between atoms: C_23  and  C_24
REMARK   10  A    between atoms: C_23  and  C_27
REMARK   11  A    between atoms: C_24  and  O_26
REMARK   12  A    between atoms: C_27  and  C_28
REMARK   13  A    between atoms: C_27  and  C_29
REMARK                            x       y       z     vdW  Elec       q    Type
REMARK                         _______ _______ _______ _____ _____    ______ ____
ROOT
ATOM      1  C   UNL     1       0.799  10.694  19.313  0.00  0.00    +0.000 A 
ATOM      2  C   UNL     1       1.531  10.377  18.162  0.00  0.00    +0.000 A 
ATOM      3  C   UNL     1       2.147   9.127  17.994  0.00  0.00    +0.000 A 
ATOM      4  C   UNL     1       2.017   8.172  19.011  0.00  0.00    +0.000 A 
ATOM      5  C   UNL     1       1.341   8.536  20.171  0.00  0.00    +0.000 A 
ATOM      6  C   UNL     1       0.744   9.783  20.378  0.00  0.00    +0.000 A 
ATOM      7  O   UNL     1       1.331   7.500  21.055  0.00  0.00    +0.000 OA
ATOM      8  C   UNL     1       1.960   6.453  20.450  0.00  0.00    +0.000 A 
ATOM      9  C   UNL     1       2.134   5.193  21.011  0.00  0.00    +0.000 A 
ATOM     10  C   UNL     1       2.797   4.241  20.223  0.00  0.00    +0.000 A 
ATOM     11  C   UNL     1       3.249   4.561  18.933  0.00  0.00    +0.000 A 
ATOM     12  C   UNL     1       3.072   5.843  18.397  0.00  0.00    +0.000 A 
ATOM     13  C   UNL     1       2.406   6.812  19.182  0.00  0.00    +0.000 A 
ENDROOT
BRANCH   1  16
ATOM     14  C   UNL     1       0.592  13.064  20.033  0.00  0.00    +0.000 C 
ATOM     15  O   UNL     1       1.733  13.299  20.400  0.00  0.00    +0.000 OA
ATOM     16  N   UNL     1       0.114  11.917  19.456  0.00  0.00    +0.000 N 
ATOM     17  H   UNL     1      -0.843  11.977  19.136  0.00  0.00    +0.000 HD
BRANCH  14  18
ATOM     18  O   UNL     1      -0.447  13.917  20.236  0.00  0.00    +0.000 OA
BRANCH  18  19
ATOM     19  C   UNL     1      -1.401  13.416  21.181  0.00  0.00    +0.000 C 
BRANCH  19  21
ATOM     20  C   UNL     1      -1.320  14.171  23.548  0.00  0.00    +0.000 C 
ATOM     21  C   UNL     1      -0.808  13.135  22.555  0.00  0.00    +0.000 C 
ENDBRANCH  19  21
ENDBRANCH  18  19
ENDBRANCH  14  18
ENDBRANCH   1  16
BRANCH  11  22
ATOM     22  S   UNL     1       4.134   3.337  18.002  0.00  0.00    +0.000 S 
ATOM     23  O   UNL     1       4.045   2.091  18.720  0.00  0.00    +0.000 OA
ATOM     24  O   UNL     1       3.756   3.444  16.604  0.00  0.00    +0.000 OA
BRANCH  22  25
ATOM     25  N   UNL     1       5.751   3.803  18.081  0.00  0.00    +0.000 NA
ATOM     26  H   UNL     1       6.323   3.150  17.549  0.00  0.00    +0.000 HD
BRANCH  25  27
ATOM     27  C   UNL     1       6.057   5.248  17.943  0.00  0.00    +0.000 C 
BRANCH  27  28
ATOM     28  C   UNL     1       6.470   5.618  16.495  0.00  0.00    +0.000 C 
ATOM     29  C   UNL     1       6.959   4.438  15.651  0.00  0.00    +0.000 C 
ATOM     30  C   UNL     1       5.338   6.339  15.748  0.00  0.00    +0.000 C 
ENDBRANCH  27  28
BRANCH  27  31
ATOM     31  C   UNL     1       7.108   5.707  18.964  0.00  0.00    +0.000 C 
ATOM     32  O   UNL     1       7.225   5.280  20.103  0.00  0.00    +0.000 OA
BRANCH  31  33
ATOM     33  O   UNL     1       7.901   6.718  18.516  0.00  0.00    +0.000 OA
ATOM     34  H   UNL     1       8.451   6.487  17.740  0.00  0.00    +0.000 HD
ENDBRANCH  31  33
ENDBRANCH  27  31
ENDBRANCH  25  27
ENDBRANCH  22  25
ENDBRANCH  11  22
TORSDOF 10
ENDMDL
MODEL 8
REMARK VINA RESULT:      -7.7      3.415      4.928
REMARK  Name = 
REMARK  13 active torsions:
REMARK  status: ('A' for Active; 'I' for Inactive)
REMARK    1  A    between atoms: C_1  and  C_2
REMARK    2  A    between atoms: C_2  and  C_3
REMARK    3  A    between atoms: C_3  and  O_4
REMARK    4  A    between atoms: O_4  and  C_5
REMARK    5  A    between atoms: N_7  and  C_8
REMARK    6  A    between atoms: C_18  and  S_19
REMARK    7  A    between atoms: S_19  and  N_22
REMARK    8  A    between atoms: N_22  and  C_23
REMARK    9  A    between atoms: C_23  and  C_24
REMARK   10  A    between atoms: C_23  and  C_27
REMARK   11  A    between atoms: C_24  and  O_26
REMARK   12  A    between atoms: C_27  and  C_28
REMARK   13  A    between atoms: C_27  and  C_29
REMARK                            x       y       z     vdW  Elec       q    Type
REMARK                         _______ _______ _______ _____ _____    ______ ____
ROOT
ATOM      1  C   UNL     1       1.020  10.247  18.897  0.00  0.00    +0.000 A 
ATOM      2  C   UNL     1       1.790   9.785  17.822  0.00  0.00    +0.000 A 
ATOM      3  C   UNL     1       2.352   8.499  17.809  0.00  0.00    +0.000 A 
ATOM      4  C   UNL     1       2.129   7.658  18.907  0.00  0.00    +0.000 A 
ATOM      5  C   UNL     1       1.418   8.165  19.990  0.00  0.00    +0.000 A 
ATOM      6  C   UNL     1       0.871   9.451  20.042  0.00  0.00    +0.000 A 
ATOM      7  O   UNL     1       1.317   7.224  20.969  0.00  0.00    +0.000 OA
ATOM      8  C   UNL     1       1.923   6.096  20.503  0.00  0.00    +0.000 A 
ATOM      9  C   UNL     1       2.010   4.891  21.192  0.00  0.00    +0.000 A 
ATOM     10  C   UNL     1       2.663   3.838  20.537  0.00  0.00    +0.000 A 
ATOM     11  C   UNL     1       3.190   4.008  19.247  0.00  0.00    +0.000 A 
ATOM     12  C   UNL     1       3.099   5.236  18.579  0.00  0.00    +0.000 A 
ATOM     13  C   UNL     1       2.444   6.306  19.230  0.00  0.00    +0.000 A 
ENDROOT
BRANCH   1  16
ATOM     14  C   UNL     1      -0.920  11.765  18.569  0.00  0.00    +0.000 C 
ATOM     15  O   UNL     1      -1.820  10.961  18.380  0.00  0.00    +0.000 OA
ATOM     16  N   UNL     1       0.388  11.506  18.885  0.00  0.00    +0.000 N 
ATOM     17  H   UNL     1       0.937  12.327  19.099  0.00  0.00    +0.000 HD
BRANCH  14  18
ATOM     18  O   UNL     1      -1.071  13.105  18.395  0.00  0.00    +0.000 OA
BRANCH  18  19
ATOM     19  C   UNL     1       0.168  13.820  18.489  0.00  0.00    +0.000 C 
BRANCH  19  21
ATOM     20  C   UNL     1       1.433  15.769  19.373  0.00  0.00    +0.000 C 
ATOM     21  C   UNL     1       0.049  15.150  19.220  0.00  0.00    +0.000 C 
ENDBRANCH  19  21
ENDBRANCH  18  19
ENDBRANCH  14  18
ENDBRANCH   1  16
BRANCH  11  22
ATOM     22  S   UNL     1       4.058   2.660  18.487  0.00  0.00    +0.000 S 
ATOM     23  O   UNL     1       4.959   2.110  19.467  0.00  0.00    +0.000 OA
ATOM     24  O   UNL     1       3.105   1.829  17.772  0.00  0.00    +0.000 OA
BRANCH  22  25
ATOM     25  N   UNL     1       5.031   3.367  17.307  0.00  0.00    +0.000 NA
ATOM     26  H   UNL     1       4.648   3.174  16.384  0.00  0.00    +0.000 HD
BRANCH  25  27
ATOM     27  C   UNL     1       5.532   4.741  17.564  0.00  0.00    +0.000 C 
BRANCH  27  28
ATOM     28  C   UNL     1       5.809   5.512  16.248  0.00  0.00    +0.000 C 
ATOM     29  C   UNL     1       5.563   4.704  14.971  0.00  0.00    +0.000 C 
ATOM     30  C   UNL     1       5.011   6.822  16.178  0.00  0.00    +0.000 C 
ENDBRANCH  27  28
BRANCH  27  31
ATOM     31  C   UNL     1       6.761   4.734  18.484  0.00  0.00    +0.000 C 
ATOM     32  O   UNL     1       7.884   4.370  18.167  0.00  0.00    +0.000 OA
BRANCH  31  33
ATOM     33  O   UNL     1       6.489   5.119  19.761  0.00  0.00    +0.000 OA
ATOM     34  H   UNL     1       6.888   4.548  20.449  0.00  0.00    +0.000 HD
ENDBRANCH  31  33
ENDBRANCH  27  31
ENDBRANCH  25  27
ENDBRANCH  22  25
ENDBRANCH  11  22
TORSDOF 10
ENDMDL
MODEL 9
REMARK VINA RESULT:      -7.7      3.469      4.961
REMARK  Name = 
REMARK  13 active torsions:
REMARK  status: ('A' for Active; 'I' for Inactive)
REMARK    1  A    between atoms: C_1  and  C_2
REMARK    2  A    between atoms: C_2  and  C_3
REMARK    3  A    between atoms: C_3  and  O_4
REMARK    4  A    between atoms: O_4  and  C_5
REMARK    5  A    between atoms: N_7  and  C_8
REMARK    6  A    between atoms: C_18  and  S_19
REMARK    7  A    between atoms: S_19  and  N_22
REMARK    8  A    between atoms: N_22  and  C_23
REMARK    9  A    between atoms: C_23  and  C_24
REMARK   10  A    between atoms: C_23  and  C_27
REMARK   11  A    between atoms: C_24  and  O_26
REMARK   12  A    between atoms: C_27  and  C_28
REMARK   13  A    between atoms: C_27  and  C_29
REMARK                            x       y       z     vdW  Elec       q    Type
REMARK                         _______ _______ _______ _____ _____    ______ ____
ROOT
ATOM      1  C   UNL     1       1.096  10.277  18.704  0.00  0.00    +0.000 A 
ATOM      2  C   UNL     1       1.885   9.757  17.670  0.00  0.00    +0.000 A 
ATOM      3  C   UNL     1       2.424   8.463  17.726  0.00  0.00    +0.000 A 
ATOM      4  C   UNL     1       2.159   7.674  18.853  0.00  0.00    +0.000 A 
ATOM      5  C   UNL     1       1.430   8.238  19.894  0.00  0.00    +0.000 A 
ATOM      6  C   UNL     1       0.905   9.534  19.878  0.00  0.00    +0.000 A 
ATOM      7  O   UNL     1       1.288   7.342  20.910  0.00  0.00    +0.000 OA
ATOM      8  C   UNL     1       1.886   6.186  20.508  0.00  0.00    +0.000 A 
ATOM      9  C   UNL     1       1.935   5.011  21.250  0.00  0.00    +0.000 A 
ATOM     10  C   UNL     1       2.585   3.919  20.658  0.00  0.00    +0.000 A 
ATOM     11  C   UNL     1       3.148   4.025  19.375  0.00  0.00    +0.000 A 
ATOM     12  C   UNL     1       3.095   5.224  18.654  0.00  0.00    +0.000 A 
ATOM     13  C   UNL     1       2.443   6.332  19.241  0.00  0.00    +0.000 A 
ENDROOT
BRANCH   1  16
ATOM     14  C   UNL     1       1.012  12.739  19.042  0.00  0.00    +0.000 C 
ATOM     15  O   UNL     1       2.149  12.962  19.431  0.00  0.00    +0.000 OA
ATOM     16  N   UNL     1       0.486  11.545  18.622  0.00  0.00    +0.000 N 
ATOM     17  H   UNL     1      -0.449  11.610  18.244  0.00  0.00    +0.000 HD
BRANCH  14  18
ATOM     18  O   UNL     1       0.023  13.672  19.056  0.00  0.00    +0.000 OA
BRANCH  18  19
ATOM     19  C   UNL     1       0.443  14.916  19.631  0.00  0.00    +0.000 C 
BRANCH  19  21
ATOM     20  C   UNL     1      -0.634  17.121  19.232  0.00  0.00    +0.000 C 
ATOM     21  C   UNL     1       0.343  16.095  18.672  0.00  0.00    +0.000 C 
ENDBRANCH  19  21
ENDBRANCH  18  19
ENDBRANCH  14  18
ENDBRANCH   1  16
BRANCH  11  22
ATOM     22  S   UNL     1       4.011   2.632  18.697  0.00  0.00    +0.000 S 
ATOM     23  O   UNL     1       4.945   2.166  19.691  0.00  0.00    +0.000 OA
ATOM     24  O   UNL     1       3.050   1.740  18.073  0.00  0.00    +0.000 OA
BRANCH  22  25
ATOM     25  N   UNL     1       4.945   3.257  17.441  0.00  0.00    +0.000 NA
ATOM     26  H   UNL     1       4.524   3.014  16.546  0.00  0.00    +0.000 HD
BRANCH  25  27
ATOM     27  C   UNL     1       5.468   4.637  17.596  0.00  0.00    +0.000 C 
BRANCH  27  28
ATOM     28  C   UNL     1       5.798   5.289  16.229  0.00  0.00    +0.000 C 
ATOM     29  C   UNL     1       5.532   4.395  15.015  0.00  0.00    +0.000 C 
ATOM     30  C   UNL     1       5.062   6.624  16.044  0.00  0.00    +0.000 C 
ENDBRANCH  27  28
BRANCH  27  31
ATOM     31  C   UNL     1       6.671   4.683  18.549  0.00  0.00    +0.000 C 
ATOM     32  O   UNL     1       6.668   5.162  19.673  0.00  0.00    +0.000 OA
BRANCH  31  33
ATOM     33  O   UNL     1       7.818   4.190  18.006  0.00  0.00    +0.000 OA
ATOM     34  H   UNL     1       8.075   4.604  17.158  0.00  0.00    +0.000 HD
ENDBRANCH  31  33
ENDBRANCH  27  31
ENDBRANCH  25  27
ENDBRANCH  22  25
ENDBRANCH  11  22
TORSDOF 10
ENDMDL
