MODEL 1
REMARK VINA RESULT:      -7.8      0.000      0.000
REMARK  Name = 
REMARK  6 active torsions:
REMARK  status: ('A' for Active; 'I' for Inactive)
REMARK    1  A    between atoms: C_1  and  N_2
REMARK    2  A    between atoms: C_3  and  C_4
REMARK    3  A    between atoms: C_4  and  N_5
REMARK    4  A    between atoms: C_16  and  S_17
REMARK    5  A    between atoms: S_17  and  C_18
REMARK    6  A    between atoms: C_18  and  C_19
REMARK                            x       y       z     vdW  Elec       q    Type
REMARK                         _______ _______ _______ _____ _____    ______ ____
ROOT
ATOM      1  C   UNL     1       5.328   6.470  16.185  0.00  0.00    +0.000 C 
ATOM      2  N   UNL     1       6.043   6.013  17.349  0.00  0.00    +0.000 N 
ATOM      3  C   UNL     1       5.877   4.824  18.029  0.00  0.00    +0.000 A 
ATOM      4  N   UNL     1       6.747   4.788  19.022  0.00  0.00    +0.000 NA
ATOM      5  N   UNL     1       7.501   5.934  18.984  0.00  0.00    +0.000 NA
ATOM      6  C   UNL     1       7.081   6.656  17.973  0.00  0.00    +0.000 A 
ENDROOT
BRANCH   3   7
ATOM      7  C   UNL     1       4.934   3.720  17.680  0.00  0.00    +0.000 C 
BRANCH   7   8
ATOM      8  N   UNL     1       3.601   3.962  18.202  0.00  0.00    +0.000 N 
ATOM      9  C   UNL     1       2.624   4.679  17.563  0.00  0.00    +0.000 A 
ATOM     10  N   UNL     1       1.490   4.648  18.223  0.00  0.00    +0.000 NA
ATOM     11  C   UNL     1       1.748   3.913  19.352  0.00  0.00    +0.000 A 
ATOM     12  C   UNL     1       0.880   3.532  20.386  0.00  0.00    +0.000 A 
ATOM     13  C   UNL     1       1.387   2.783  21.454  0.00  0.00    +0.000 A 
ATOM     14  C   UNL     1       2.743   2.455  21.512  0.00  0.00    +0.000 A 
ATOM     15  C   UNL     1       3.626   2.830  20.493  0.00  0.00    +0.000 A 
ATOM     16  C   UNL     1       3.087   3.527  19.403  0.00  0.00    +0.000 A 
ENDBRANCH   7   8
ENDBRANCH   3   7
BRANCH   6  17
ATOM     17  S   UNL     1       7.729   8.179  17.458  0.00  0.00    +0.000 S 
BRANCH  17  18
ATOM     18  C   UNL     1       8.678   8.664  18.936  0.00  0.00    +0.000 C 
BRANCH  18  19
ATOM     19  C   UNL     1       9.101  10.117  18.896  0.00  0.00    +0.000 A 
ATOM     20  C   UNL     1       8.658  10.966  17.872  0.00  0.00    +0.000 A 
ATOM     21  C   UNL     1       9.035  12.311  17.844  0.00  0.00    +0.000 A 
ATOM     22  C   UNL     1       9.866  12.825  18.838  0.00  0.00    +0.000 A 
ATOM     23  C   UNL     1      10.319  11.995  19.858  0.00  0.00    +0.000 A 
ATOM     24  C   UNL     1       9.942  10.646  19.888  0.00  0.00    +0.000 A 
ENDBRANCH  18  19
ENDBRANCH  17  18
ENDBRANCH   6  17
TORSDOF 5
ENDMDL
MODEL 2
REMARK VINA RESULT:      -7.5      1.237      2.041
REMARK  Name = 
REMARK  6 active torsions:
REMARK  status: ('A' for Active; 'I' for Inactive)
REMARK    1  A    between atoms: C_1  and  N_2
REMARK    2  A    between atoms: C_3  and  C_4
REMARK    3  A    between atoms: C_4  and  N_5
REMARK    4  A    between atoms: C_16  and  S_17
REMARK    5  A    between atoms: S_17  and  C_18
REMARK    6  A    between atoms: C_18  and  C_19
REMARK                            x       y       z     vdW  Elec       q    Type
REMARK                         _______ _______ _______ _____ _____    ______ ____
ROOT
ATOM      1  C   UNL     1       5.620   6.883  16.407  0.00  0.00    +0.000 C 
ATOM      2  N   UNL     1       6.437   6.377  17.481  0.00  0.00    +0.000 N 
ATOM      3  C   UNL     1       6.381   5.131  18.069  0.00  0.00    +0.000 A 
ATOM      4  N   UNL     1       7.317   5.067  18.998  0.00  0.00    +0.000 NA
ATOM      5  N   UNL     1       8.004   6.255  19.008  0.00  0.00    +0.000 NA
ATOM      6  C   UNL     1       7.479   7.029  18.089  0.00  0.00    +0.000 A 
ENDROOT
BRANCH   3   7
ATOM      7  C   UNL     1       5.477   4.004  17.690  0.00  0.00    +0.000 C 
BRANCH   7   8
ATOM      8  N   UNL     1       4.509   3.713  18.733  0.00  0.00    +0.000 N 
ATOM      9  C   UNL     1       4.420   2.529  19.416  0.00  0.00    +0.000 A 
ATOM     10  N   UNL     1       3.520   2.586  20.370  0.00  0.00    +0.000 NA
ATOM     11  C   UNL     1       2.978   3.844  20.281  0.00  0.00    +0.000 A 
ATOM     12  C   UNL     1       2.003   4.452  21.085  0.00  0.00    +0.000 A 
ATOM     13  C   UNL     1       1.598   5.758  20.785  0.00  0.00    +0.000 A 
ATOM     14  C   UNL     1       2.123   6.429  19.679  0.00  0.00    +0.000 A 
ATOM     15  C   UNL     1       3.094   5.836  18.862  0.00  0.00    +0.000 A 
ATOM     16  C   UNL     1       3.530   4.553  19.216  0.00  0.00    +0.000 A 
ENDBRANCH   7   8
ENDBRANCH   3   7
BRANCH   6  17
ATOM     17  S   UNL     1       8.008   8.623  17.663  0.00  0.00    +0.000 S 
BRANCH  17  18
ATOM     18  C   UNL     1       8.886   9.110  19.183  0.00  0.00    +0.000 C 
BRANCH  18  19
ATOM     19  C   UNL     1       9.466  10.506  19.091  0.00  0.00    +0.000 A 
ATOM     20  C   UNL     1       9.854  11.199  20.246  0.00  0.00    +0.000 A 
ATOM     21  C   UNL     1      10.403  12.481  20.161  0.00  0.00    +0.000 A 
ATOM     22  C   UNL     1      10.569  13.089  18.917  0.00  0.00    +0.000 A 
ATOM     23  C   UNL     1      10.184  12.417  17.762  0.00  0.00    +0.000 A 
ATOM     24  C   UNL     1       9.633  11.132  17.845  0.00  0.00    +0.000 A 
ENDBRANCH  18  19
ENDBRANCH  17  18
ENDBRANCH   6  17
TORSDOF 5
ENDMDL
MODEL 3
REMARK VINA RESULT:      -7.5      1.184      1.813
REMARK  Name = 
REMARK  6 active torsions:
REMARK  status: ('A' for Active; 'I' for Inactive)
REMARK    1  A    between atoms: C_1  and  N_2
REMARK    2  A    between atoms: C_3  and  C_4
REMARK    3  A    between atoms: C_4  and  N_5
REMARK    4  A    between atoms: C_16  and  S_17
REMARK    5  A    between atoms: S_17  and  C_18
REMARK    6  A    between atoms: C_18  and  C_19
REMARK                            x       y       z     vdW  Elec       q    Type
REMARK                         _______ _______ _______ _____ _____    ______ ____
ROOT
ATOM      1  C   UNL     1       6.850   5.252  19.366  0.00  0.00    +0.000 C 
ATOM      2  N   UNL     1       6.579   6.009  18.170  0.00  0.00    +0.000 N 
ATOM      3  C   UNL     1       5.609   5.766  17.219  0.00  0.00    +0.000 A 
ATOM      4  N   UNL     1       5.685   6.709  16.298  0.00  0.00    +0.000 NA
ATOM      5  N   UNL     1       6.682   7.584  16.649  0.00  0.00    +0.000 NA
ATOM      6  C   UNL     1       7.204   7.164  17.777  0.00  0.00    +0.000 A 
ENDROOT
BRANCH   3   7
ATOM      7  C   UNL     1       4.590   4.675  17.241  0.00  0.00    +0.000 C 
BRANCH   7   8
ATOM      8  N   UNL     1       3.562   4.916  18.239  0.00  0.00    +0.000 N 
ATOM      9  C   UNL     1       2.731   6.005  18.265  0.00  0.00    +0.000 A 
ATOM     10  N   UNL     1       1.835   5.908  19.220  0.00  0.00    +0.000 NA
ATOM     11  C   UNL     1       2.116   4.728  19.861  0.00  0.00    +0.000 A 
ATOM     12  C   UNL     1       1.446   4.114  20.929  0.00  0.00    +0.000 A 
ATOM     13  C   UNL     1       1.937   2.901  21.426  0.00  0.00    +0.000 A 
ATOM     14  C   UNL     1       3.098   2.333  20.898  0.00  0.00    +0.000 A 
ATOM     15  C   UNL     1       3.783   2.934  19.835  0.00  0.00    +0.000 A 
ATOM     16  C   UNL     1       3.241   4.116  19.311  0.00  0.00    +0.000 A 
ENDBRANCH   7   8
ENDBRANCH   3   7
BRANCH   6  17
ATOM     17  S   UNL     1       8.470   7.936  18.674  0.00  0.00    +0.000 S 
BRANCH  17  18
ATOM     18  C   UNL     1       8.326   9.648  18.065  0.00  0.00    +0.000 C 
BRANCH  18  19
ATOM     19  C   UNL     1       9.367  10.564  18.672  0.00  0.00    +0.000 A 
ATOM     20  C   UNL     1       9.373  10.832  20.048  0.00  0.00    +0.000 A 
ATOM     21  C   UNL     1      10.343  11.665  20.611  0.00  0.00    +0.000 A 
ATOM     22  C   UNL     1      11.321  12.245  19.804  0.00  0.00    +0.000 A 
ATOM     23  C   UNL     1      11.325  11.993  18.435  0.00  0.00    +0.000 A 
ATOM     24  C   UNL     1      10.354  11.159  17.869  0.00  0.00    +0.000 A 
ENDBRANCH  18  19
ENDBRANCH  17  18
ENDBRANCH   6  17
TORSDOF 5
ENDMDL
MODEL 4
REMARK VINA RESULT:      -7.5      1.213      1.404
REMARK  Name = 
REMARK  6 active torsions:
REMARK  status: ('A' for Active; 'I' for Inactive)
REMARK    1  A    between atoms: C_1  and  N_2
REMARK    2  A    between atoms: C_3  and  C_4
REMARK    3  A    between atoms: C_4  and  N_5
REMARK    4  A    between atoms: C_16  and  S_17
REMARK    5  A    between atoms: S_17  and  C_18
REMARK    6  A    between atoms: C_18  and  C_19
REMARK                            x       y       z     vdW  Elec       q    Type
REMARK                         _______ _______ _______ _____ _____    ______ ____
ROOT
ATOM      1  C   UNL     1       5.513   7.103  16.716  0.00  0.00    +0.000 C 
ATOM      2  N   UNL     1       6.432   6.547  17.677  0.00  0.00    +0.000 N 
ATOM      3  C   UNL     1       6.391   5.297  18.260  0.00  0.00    +0.000 A 
ATOM      4  N   UNL     1       7.430   5.179  19.066  0.00  0.00    +0.000 NA
ATOM      5  N   UNL     1       8.168   6.336  18.999  0.00  0.00    +0.000 NA
ATOM      6  C   UNL     1       7.569   7.144  18.157  0.00  0.00    +0.000 A 
ENDROOT
BRANCH   3   7
ATOM      7  C   UNL     1       5.396   4.217  17.988  0.00  0.00    +0.000 C 
BRANCH   7   8
ATOM      8  N   UNL     1       4.192   4.378  18.784  0.00  0.00    +0.000 N 
ATOM      9  C   UNL     1       3.937   5.433  19.620  0.00  0.00    +0.000 A 
ATOM     10  N   UNL     1       2.730   5.365  20.131  0.00  0.00    +0.000 NA
ATOM     11  C   UNL     1       2.193   4.203  19.638  0.00  0.00    +0.000 A 
ATOM     12  C   UNL     1       0.913   3.662  19.829  0.00  0.00    +0.000 A 
ATOM     13  C   UNL     1       0.599   2.440  19.223  0.00  0.00    +0.000 A 
ATOM     14  C   UNL     1       1.555   1.748  18.478  0.00  0.00    +0.000 A 
ATOM     15  C   UNL     1       2.840   2.270  18.280  0.00  0.00    +0.000 A 
ATOM     16  C   UNL     1       3.114   3.524  18.843  0.00  0.00    +0.000 A 
ENDBRANCH   7   8
ENDBRANCH   3   7
BRANCH   6  17
ATOM     17  S   UNL     1       8.115   8.717  17.680  0.00  0.00    +0.000 S 
BRANCH  17  18
ATOM     18  C   UNL     1       9.000   9.244  19.183  0.00  0.00    +0.000 C 
BRANCH  18  19
ATOM     19  C   UNL     1       9.557  10.646  19.062  0.00  0.00    +0.000 A 
ATOM     20  C   UNL     1       9.799  11.216  17.803  0.00  0.00    +0.000 A 
ATOM     21  C   UNL     1      10.298  12.516  17.690  0.00  0.00    +0.000 A 
ATOM     22  C   UNL     1      10.566  13.264  18.835  0.00  0.00    +0.000 A 
ATOM     23  C   UNL     1      10.336  12.712  20.091  0.00  0.00    +0.000 A 
ATOM     24  C   UNL     1       9.836  11.409  20.207  0.00  0.00    +0.000 A 
ENDBRANCH  18  19
ENDBRANCH  17  18
ENDBRANCH   6  17
TORSDOF 5
ENDMDL
MODEL 5
REMARK VINA RESULT:      -7.5      1.636      2.373
REMARK  Name = 
REMARK  6 active torsions:
REMARK  status: ('A' for Active; 'I' for Inactive)
REMARK    1  A    between atoms: C_1  and  N_2
REMARK    2  A    between atoms: C_3  and  C_4
REMARK    3  A    between atoms: C_4  and  N_5
REMARK    4  A    between atoms: C_16  and  S_17
REMARK    5  A    between atoms: S_17  and  C_18
REMARK    6  A    between atoms: C_18  and  C_19
REMARK                            x       y       z     vdW  Elec       q    Type
REMARK                         _______ _______ _______ _____ _____    ______ ____
ROOT
ATOM      1  C   UNL     1       7.849   5.655  19.404  0.00  0.00    +0.000 C 
ATOM      2  N   UNL     1       7.413   6.440  18.277  0.00  0.00    +0.000 N 
ATOM      3  C   UNL     1       6.534   6.070  17.279  0.00  0.00    +0.000 A 
ATOM      4  N   UNL     1       6.389   7.090  16.453  0.00  0.00    +0.000 NA
ATOM      5  N   UNL     1       7.148   8.137  16.915  0.00  0.00    +0.000 NA
ATOM      6  C   UNL     1       7.748   7.743  18.013  0.00  0.00    +0.000 A 
ENDROOT
BRANCH   3   7
ATOM      7  C   UNL     1       5.803   4.772  17.169  0.00  0.00    +0.000 C 
BRANCH   7   8
ATOM      8  N   UNL     1       4.436   4.880  17.649  0.00  0.00    +0.000 N 
ATOM      9  C   UNL     1       3.756   6.055  17.828  0.00  0.00    +0.000 A 
ATOM     10  N   UNL     1       2.507   5.844  18.174  0.00  0.00    +0.000 NA
ATOM     11  C   UNL     1       2.380   4.480  18.256  0.00  0.00    +0.000 A 
ATOM     12  C   UNL     1       1.246   3.707  18.546  0.00  0.00    +0.000 A 
ATOM     13  C   UNL     1       1.371   2.314  18.586  0.00  0.00    +0.000 A 
ATOM     14  C   UNL     1       2.610   1.704  18.383  0.00  0.00    +0.000 A 
ATOM     15  C   UNL     1       3.754   2.459  18.096  0.00  0.00    +0.000 A 
ATOM     16  C   UNL     1       3.596   3.848  18.000  0.00  0.00    +0.000 A 
ENDBRANCH   7   8
ENDBRANCH   3   7
BRANCH   6  17
ATOM     17  S   UNL     1       8.788   8.700  19.014  0.00  0.00    +0.000 S 
BRANCH  17  18
ATOM     18  C   UNL     1       8.854  10.250  18.059  0.00  0.00    +0.000 C 
BRANCH  18  19
ATOM     19  C   UNL     1      10.003  11.139  18.483  0.00  0.00    +0.000 A 
ATOM     20  C   UNL     1      10.390  11.219  19.828  0.00  0.00    +0.000 A 
ATOM     21  C   UNL     1      11.461  12.027  20.218  0.00  0.00    +0.000 A 
ATOM     22  C   UNL     1      12.158  12.772  19.267  0.00  0.00    +0.000 A 
ATOM     23  C   UNL     1      11.783  12.708  17.929  0.00  0.00    +0.000 A 
ATOM     24  C   UNL     1      10.710  11.898  17.536  0.00  0.00    +0.000 A 
ENDBRANCH  18  19
ENDBRANCH  17  18
ENDBRANCH   6  17
TORSDOF 5
ENDMDL
MODEL 6
REMARK VINA RESULT:      -7.5      5.458      7.760
REMARK  Name = 
REMARK  6 active torsions:
REMARK  status: ('A' for Active; 'I' for Inactive)
REMARK    1  A    between atoms: C_1  and  N_2
REMARK    2  A    between atoms: C_3  and  C_4
REMARK    3  A    between atoms: C_4  and  N_5
REMARK    4  A    between atoms: C_16  and  S_17
REMARK    5  A    between atoms: S_17  and  C_18
REMARK    6  A    between atoms: C_18  and  C_19
REMARK                            x       y       z     vdW  Elec       q    Type
REMARK                         _______ _______ _______ _____ _____    ______ ____
ROOT
ATOM      1  C   UNL     1       2.110   9.313  17.569  0.00  0.00    +0.000 C 
ATOM      2  N   UNL     1       1.670   9.016  18.909  0.00  0.00    +0.000 N 
ATOM      3  C   UNL     1       2.033   7.945  19.699  0.00  0.00    +0.000 A 
ATOM      4  N   UNL     1       1.422   8.061  20.864  0.00  0.00    +0.000 NA
ATOM      5  N   UNL     1       0.678   9.215  20.853  0.00  0.00    +0.000 NA
ATOM      6  C   UNL     1       0.841   9.786  19.684  0.00  0.00    +0.000 A 
ENDROOT
BRANCH   3   7
ATOM      7  C   UNL     1       3.005   6.866  19.349  0.00  0.00    +0.000 C 
BRANCH   7   8
ATOM      8  N   UNL     1       2.334   5.623  19.013  0.00  0.00    +0.000 N 
ATOM      9  C   UNL     1       1.868   5.293  17.767  0.00  0.00    +0.000 A 
ATOM     10  N   UNL     1       1.398   4.067  17.735  0.00  0.00    +0.000 NA
ATOM     11  C   UNL     1       1.531   3.595  19.016  0.00  0.00    +0.000 A 
ATOM     12  C   UNL     1       1.225   2.328  19.535  0.00  0.00    +0.000 A 
ATOM     13  C   UNL     1       1.439   2.085  20.896  0.00  0.00    +0.000 A 
ATOM     14  C   UNL     1       1.908   3.098  21.734  0.00  0.00    +0.000 A 
ATOM     15  C   UNL     1       2.214   4.371  21.236  0.00  0.00    +0.000 A 
ATOM     16  C   UNL     1       2.051   4.575  19.860  0.00  0.00    +0.000 A 
ENDBRANCH   7   8
ENDBRANCH   3   7
BRANCH   6  17
ATOM     17  S   UNL     1       0.155  11.292  19.171  0.00  0.00    +0.000 S 
BRANCH  17  18
ATOM     18  C   UNL     1      -1.620  10.961  19.416  0.00  0.00    +0.000 C 
BRANCH  18  19
ATOM     19  C   UNL     1      -2.368  10.835  18.106  0.00  0.00    +0.000 A 
ATOM     20  C   UNL     1      -3.588  11.498  17.910  0.00  0.00    +0.000 A 
ATOM     21  C   UNL     1      -4.271  11.395  16.696  0.00  0.00    +0.000 A 
ATOM     22  C   UNL     1      -3.746  10.624  15.660  0.00  0.00    +0.000 A 
ATOM     23  C   UNL     1      -2.539   9.955  15.841  0.00  0.00    +0.000 A 
ATOM     24  C   UNL     1      -1.853  10.057  17.057  0.00  0.00    +0.000 A 
ENDBRANCH  18  19
ENDBRANCH  17  18
ENDBRANCH   6  17
TORSDOF 5
ENDMDL
MODEL 7
REMARK VINA RESULT:      -7.4      5.437      7.940
REMARK  Name = 
REMARK  6 active torsions:
REMARK  status: ('A' for Active; 'I' for Inactive)
REMARK    1  A    between atoms: C_1  and  N_2
REMARK    2  A    between atoms: C_3  and  C_4
REMARK    3  A    between atoms: C_4  and  N_5
REMARK    4  A    between atoms: C_16  and  S_17
REMARK    5  A    between atoms: S_17  and  C_18
REMARK    6  A    between atoms: C_18  and  C_19
REMARK                            x       y       z     vdW  Elec       q    Type
REMARK                         _______ _______ _______ _____ _____    ______ ____
ROOT
ATOM      1  C   UNL     1       0.893   9.088  21.299  0.00  0.00    +0.000 C 
ATOM      2  N   UNL     1       1.361   8.831  19.961  0.00  0.00    +0.000 N 
ATOM      3  C   UNL     1       2.056   7.729  19.507  0.00  0.00    +0.000 A 
ATOM      4  N   UNL     1       2.270   7.876  18.213  0.00  0.00    +0.000 NA
ATOM      5  N   UNL     1       1.700   9.058  17.807  0.00  0.00    +0.000 NA
ATOM      6  C   UNL     1       1.147   9.616  18.858  0.00  0.00    +0.000 A 
ENDROOT
BRANCH   3   7
ATOM      7  C   UNL     1       2.446   6.528  20.305  0.00  0.00    +0.000 C 
BRANCH   7   8
ATOM      8  N   UNL     1       3.152   5.548  19.497  0.00  0.00    +0.000 N 
ATOM      9  C   UNL     1       4.455   5.656  19.090  0.00  0.00    +0.000 A 
ATOM     10  N   UNL     1       4.857   4.577  18.459  0.00  0.00    +0.000 NA
ATOM     11  C   UNL     1       3.762   3.750  18.424  0.00  0.00    +0.000 A 
ATOM     12  C   UNL     1       3.642   2.452  17.905  0.00  0.00    +0.000 A 
ATOM     13  C   UNL     1       2.401   1.809  17.975  0.00  0.00    +0.000 A 
ATOM     14  C   UNL     1       1.290   2.462  18.512  0.00  0.00    +0.000 A 
ATOM     15  C   UNL     1       1.389   3.759  19.029  0.00  0.00    +0.000 A 
ATOM     16  C   UNL     1       2.653   4.362  19.006  0.00  0.00    +0.000 A 
ENDBRANCH   7   8
ENDBRANCH   3   7
BRANCH   6  17
ATOM     17  S   UNL     1       0.256  11.102  18.881  0.00  0.00    +0.000 S 
BRANCH  17  18
ATOM     18  C   UNL     1      -1.434  10.483  19.168  0.00  0.00    +0.000 C 
BRANCH  18  19
ATOM     19  C   UNL     1      -2.309  10.611  17.939  0.00  0.00    +0.000 A 
ATOM     20  C   UNL     1      -2.024   9.881  16.776  0.00  0.00    +0.000 A 
ATOM     21  C   UNL     1      -2.841   9.986  15.647  0.00  0.00    +0.000 A 
ATOM     22  C   UNL     1      -3.953  10.827  15.665  0.00  0.00    +0.000 A 
ATOM     23  C   UNL     1      -4.245  11.563  16.809  0.00  0.00    +0.000 A 
ATOM     24  C   UNL     1      -3.428  11.458  17.941  0.00  0.00    +0.000 A 
ENDBRANCH  18  19
ENDBRANCH  17  18
ENDBRANCH   6  17
TORSDOF 5
ENDMDL
MODEL 8
REMARK VINA RESULT:      -7.4      1.128      1.606
REMARK  Name = 
REMARK  6 active torsions:
REMARK  status: ('A' for Active; 'I' for Inactive)
REMARK    1  A    between atoms: C_1  and  N_2
REMARK    2  A    between atoms: C_3  and  C_4
REMARK    3  A    between atoms: C_4  and  N_5
REMARK    4  A    between atoms: C_16  and  S_17
REMARK    5  A    between atoms: S_17  and  C_18
REMARK    6  A    between atoms: C_18  and  C_19
REMARK                            x       y       z     vdW  Elec       q    Type
REMARK                         _______ _______ _______ _____ _____    ______ ____
ROOT
ATOM      1  C   UNL     1       6.830   5.499  19.506  0.00  0.00    +0.000 C 
ATOM      2  N   UNL     1       6.684   6.056  18.185  0.00  0.00    +0.000 N 
ATOM      3  C   UNL     1       5.810   5.659  17.194  0.00  0.00    +0.000 A 
ATOM      4  N   UNL     1       5.983   6.446  16.147  0.00  0.00    +0.000 NA
ATOM      5  N   UNL     1       6.949   7.373  16.453  0.00  0.00    +0.000 NA
ATOM      6  C   UNL     1       7.354   7.140  17.678  0.00  0.00    +0.000 A 
ENDROOT
BRANCH   3   7
ATOM      7  C   UNL     1       4.784   4.578  17.288  0.00  0.00    +0.000 C 
BRANCH   7   8
ATOM      8  N   UNL     1       3.696   4.941  18.180  0.00  0.00    +0.000 N 
ATOM      9  C   UNL     1       3.100   6.173  18.232  0.00  0.00    +0.000 A 
ATOM     10  N   UNL     1       2.080   6.182  19.059  0.00  0.00    +0.000 NA
ATOM     11  C   UNL     1       2.034   4.918  19.591  0.00  0.00    +0.000 A 
ATOM     12  C   UNL     1       1.116   4.367  20.497  0.00  0.00    +0.000 A 
ATOM     13  C   UNL     1       1.287   3.039  20.907  0.00  0.00    +0.000 A 
ATOM     14  C   UNL     1       2.375   2.290  20.458  0.00  0.00    +0.000 A 
ATOM     15  C   UNL     1       3.304   2.825  19.557  0.00  0.00    +0.000 A 
ATOM     16  C   UNL     1       3.081   4.134  19.110  0.00  0.00    +0.000 A 
ENDBRANCH   7   8
ENDBRANCH   3   7
BRANCH   6  17
ATOM     17  S   UNL     1       8.531   8.053  18.562  0.00  0.00    +0.000 S 
BRANCH  17  18
ATOM     18  C   UNL     1       8.281   9.712  17.853  0.00  0.00    +0.000 C 
BRANCH  18  19
ATOM     19  C   UNL     1       9.132  10.763  18.533  0.00  0.00    +0.000 A 
ATOM     20  C   UNL     1       9.497  11.938  17.858  0.00  0.00    +0.000 A 
ATOM     21  C   UNL     1      10.269  12.915  18.491  0.00  0.00    +0.000 A 
ATOM     22  C   UNL     1      10.692  12.730  19.806  0.00  0.00    +0.000 A 
ATOM     23  C   UNL     1      10.344  11.568  20.487  0.00  0.00    +0.000 A 
ATOM     24  C   UNL     1       9.570  10.587  19.855  0.00  0.00    +0.000 A 
ENDBRANCH  18  19
ENDBRANCH  17  18
ENDBRANCH   6  17
TORSDOF 5
ENDMDL
MODEL 9
REMARK VINA RESULT:      -7.4      4.249      6.292
REMARK  Name = 
REMARK  6 active torsions:
REMARK  status: ('A' for Active; 'I' for Inactive)
REMARK    1  A    between atoms: C_1  and  N_2
REMARK    2  A    between atoms: C_3  and  C_4
REMARK    3  A    between atoms: C_4  and  N_5
REMARK    4  A    between atoms: C_16  and  S_17
REMARK    5  A    between atoms: S_17  and  C_18
REMARK    6  A    between atoms: C_18  and  C_19
REMARK                            x       y       z     vdW  Elec       q    Type
REMARK                         _______ _______ _______ _____ _____    ______ ____
ROOT
ATOM      1  C   UNL     1       5.334   4.091  18.056  0.00  0.00    +0.000 C 
ATOM      2  N   UNL     1       5.140   5.214  17.175  0.00  0.00    +0.000 N 
ATOM      3  C   UNL     1       4.213   6.230  17.292  0.00  0.00    +0.000 A 
ATOM      4  N   UNL     1       4.388   7.070  16.289  0.00  0.00    +0.000 NA
ATOM      5  N   UNL     1       5.440   6.627  15.526  0.00  0.00    +0.000 NA
ATOM      6  C   UNL     1       5.892   5.523  16.070  0.00  0.00    +0.000 A 
ENDROOT
BRANCH   3   7
ATOM      7  C   UNL     1       3.221   6.410  18.393  0.00  0.00    +0.000 C 
BRANCH   7   8
ATOM      8  N   UNL     1       2.348   5.257  18.529  0.00  0.00    +0.000 N 
ATOM      9  C   UNL     1       1.609   4.706  17.515  0.00  0.00    +0.000 A 
ATOM     10  N   UNL     1       0.994   3.613  17.903  0.00  0.00    +0.000 NA
ATOM     11  C   UNL     1       1.318   3.467  19.229  0.00  0.00    +0.000 A 
ATOM     12  C   UNL     1       0.965   2.446  20.124  0.00  0.00    +0.000 A 
ATOM     13  C   UNL     1       1.412   2.525  21.448  0.00  0.00    +0.000 A 
ATOM     14  C   UNL     1       2.158   3.622  21.883  0.00  0.00    +0.000 A 
ATOM     15  C   UNL     1       2.515   4.653  21.006  0.00  0.00    +0.000 A 
ATOM     16  C   UNL     1       2.111   4.524  19.670  0.00  0.00    +0.000 A 
ENDBRANCH   7   8
ENDBRANCH   3   7
BRANCH   6  17
ATOM     17  S   UNL     1       7.242   4.586  15.522  0.00  0.00    +0.000 S 
BRANCH  17  18
ATOM     18  C   UNL     1       7.303   5.068  13.766  0.00  0.00    +0.000 C 
BRANCH  18  19
ATOM     19  C   UNL     1       6.596   4.072  12.871  0.00  0.00    +0.000 A 
ATOM     20  C   UNL     1       7.326   3.182  12.070  0.00  0.00    +0.000 A 
ATOM     21  C   UNL     1       6.674   2.253  11.255  0.00  0.00    +0.000 A 
ATOM     22  C   UNL     1       5.281   2.204  11.227  0.00  0.00    +0.000 A 
ATOM     23  C   UNL     1       4.543   3.084  12.011  0.00  0.00    +0.000 A 
ATOM     24  C   UNL     1       5.194   4.016  12.828  0.00  0.00    +0.000 A 
ENDBRANCH  18  19
ENDBRANCH  17  18
ENDBRANCH   6  17
TORSDOF 5
ENDMDL
