MODEL 1
REMARK VINA RESULT:      -7.1      0.000      0.000
REMARK  Name = 
REMARK  11 active torsions:
REMARK  status: ('A' for Active; 'I' for Inactive)
REMARK    1  A    between atoms: C_1  and  C_2
REMARK    2  A    between atoms: C_2  and  N_3
REMARK    3  A    between atoms: N_3  and  C_4
REMARK    4  A    between atoms: C_9  and  N_10
REMARK    5  A    between atoms: N_13  and  C_14
REMARK    6  A    between atoms: C_14  and  C_15
REMARK    7  A    between atoms: C_15  and  C_16
REMARK    8  A    between atoms: C_20  and  C_21
REMARK    9  A    between atoms: C_22  and  O_23
REMARK   10  A    between atoms: C_24  and  C_25
REMARK   11  A    between atoms: C_26  and  C_27
REMARK                            x       y       z     vdW  Elec       q    Type
REMARK                         _______ _______ _______ _____ _____    ______ ____
ROOT
ATOM      1  C   UNL     1      -0.314  10.158  19.102  0.00  0.00    +0.000 C 
ENDROOT
BRANCH   1   2
ATOM      2  C   UNL     1      -1.319  11.358  19.359  0.00  0.00    +0.000 C 
ATOM      3  C   UNL     1      -0.673  12.602  18.686  0.00  0.00    +0.000 C 
ATOM      4  C   UNL     1      -1.538  11.661  20.855  0.00  0.00    +0.000 C 
ATOM      5  C   UNL     1      -2.476  12.833  21.084  0.00  0.00    +0.000 C 
ATOM      6  C   UNL     1      -3.681  12.786  20.166  0.00  0.00    +0.000 A 
ATOM      7  C   UNL     1      -4.804  13.611  20.420  0.00  0.00    +0.000 A 
ATOM      8  C   UNL     1      -4.859  14.532  21.626  0.00  0.00    +0.000 C 
ATOM      9  C   UNL     1      -5.910  13.565  19.542  0.00  0.00    +0.000 A 
ATOM     10  C   UNL     1      -5.895  12.723  18.409  0.00  0.00    +0.000 A 
ATOM     11  C   UNL     1      -7.088  12.720  17.475  0.00  0.00    +0.000 C 
ATOM     12  C   UNL     1      -4.765  11.899  18.153  0.00  0.00    +0.000 A 
ATOM     13  C   UNL     1      -4.690  10.992  16.942  0.00  0.00    +0.000 C 
ATOM     14  C   UNL     1      -3.661  11.927  19.032  0.00  0.00    +0.000 A 
ATOM     15  O   UNL     1      -2.564  11.139  18.774  0.00  0.00    +0.000 OA
BRANCH   9  16
ATOM     16  O   UNL     1      -7.004  14.333  19.769  0.00  0.00    +0.000 OA
ATOM     17  H   UNL     1      -7.854  14.007  20.093  0.00  0.00    +0.000 HD
ENDBRANCH   9  16
ENDBRANCH   1   2
BRANCH   1  21
ATOM     18  N   UNL     1       2.199   7.636  18.827  0.00  0.00    +0.000 N 
ATOM     19  C   UNL     1       1.589   7.962  20.117  0.00  0.00    +0.000 C 
ATOM     20  C   UNL     1       1.664   9.488  20.411  0.00  0.00    +0.000 C 
ATOM     21  N   UNL     1       1.177  10.310  19.263  0.00  0.00    +0.000 NA
ATOM     22  C   UNL     1       2.049   9.967  18.118  0.00  0.00    +0.000 C 
ATOM     23  C   UNL     1       1.866   8.504  17.704  0.00  0.00    +0.000 C 
BRANCH  18  29
ATOM     24  C   UNL     1       3.013   5.313  19.433  0.00  0.00    +0.000 A 
ATOM     25  C   UNL     1       3.982   4.314  19.212  0.00  0.00    +0.000 A 
ATOM     26  C   UNL     1       5.034   4.522  18.330  0.00  0.00    +0.000 A 
ATOM     27  C   UNL     1       5.137   5.741  17.669  0.00  0.00    +0.000 A 
ATOM     28  N   UNL     1       4.209   6.709  17.873  0.00  0.00    +0.000 NA
ATOM     29  C   UNL     1       3.139   6.548  18.705  0.00  0.00    +0.000 A 
BRANCH  24  30
ATOM     30  N   UNL     1       1.986   5.095  20.413  0.00  0.00    +0.000 N 
ATOM     31  H   UNL     1       1.913   5.712  21.228  0.00  0.00    +0.000 HD
BRANCH  30  33
ATOM     32  C   UNL     1       1.433   2.932  21.419  0.00  0.00    +0.000 C 
ATOM     33  C   UNL     1       1.056   3.985  20.376  0.00  0.00    +0.000 C 
ENDBRANCH  30  33
ENDBRANCH  24  30
ENDBRANCH  18  29
ENDBRANCH   1  21
TORSDOF 6
ENDMDL
MODEL 2
REMARK VINA RESULT:      -7.1      1.829      2.667
REMARK  Name = 
REMARK  11 active torsions:
REMARK  status: ('A' for Active; 'I' for Inactive)
REMARK    1  A    between atoms: C_1  and  C_2
REMARK    2  A    between atoms: C_2  and  N_3
REMARK    3  A    between atoms: N_3  and  C_4
REMARK    4  A    between atoms: C_9  and  N_10
REMARK    5  A    between atoms: N_13  and  C_14
REMARK    6  A    between atoms: C_14  and  C_15
REMARK    7  A    between atoms: C_15  and  C_16
REMARK    8  A    between atoms: C_20  and  C_21
REMARK    9  A    between atoms: C_22  and  O_23
REMARK   10  A    between atoms: C_24  and  C_25
REMARK   11  A    between atoms: C_26  and  C_27
REMARK                            x       y       z     vdW  Elec       q    Type
REMARK                         _______ _______ _______ _____ _____    ______ ____
ROOT
ATOM      1  C   UNL     1      -0.177  11.518  19.889  0.00  0.00    +0.000 C 
ENDROOT
BRANCH   1   2
ATOM      2  C   UNL     1      -0.975  12.500  20.844  0.00  0.00    +0.000 C 
ATOM      3  C   UNL     1      -0.649  13.935  20.342  0.00  0.00    +0.000 C 
ATOM      4  C   UNL     1      -0.557  12.386  22.324  0.00  0.00    +0.000 C 
ATOM      5  C   UNL     1      -1.306  13.357  23.221  0.00  0.00    +0.000 C 
ATOM      6  C   UNL     1      -2.781  13.421  22.883  0.00  0.00    +0.000 A 
ATOM      7  C   UNL     1      -3.692  14.033  23.779  0.00  0.00    +0.000 A 
ATOM      8  C   UNL     1      -3.238  14.603  25.111  0.00  0.00    +0.000 C 
ATOM      9  C   UNL     1      -5.063  14.098  23.437  0.00  0.00    +0.000 A 
ATOM     10  C   UNL     1      -5.523  13.580  22.208  0.00  0.00    +0.000 A 
ATOM     11  C   UNL     1      -6.994  13.692  21.863  0.00  0.00    +0.000 C 
ATOM     12  C   UNL     1      -4.607  12.971  21.307  0.00  0.00    +0.000 A 
ATOM     13  C   UNL     1      -5.045  12.417  19.968  0.00  0.00    +0.000 C 
ATOM     14  C   UNL     1      -3.239  12.888  21.645  0.00  0.00    +0.000 A 
ATOM     15  O   UNL     1      -2.353  12.310  20.767  0.00  0.00    +0.000 OA
BRANCH   9  16
ATOM     16  O   UNL     1      -5.958  14.665  24.282  0.00  0.00    +0.000 OA
ATOM     17  H   UNL     1      -6.872  14.373  24.400  0.00  0.00    +0.000 HD
ENDBRANCH   9  16
ENDBRANCH   1   2
BRANCH   1  21
ATOM     18  N   UNL     1       1.810   8.706  18.940  0.00  0.00    +0.000 N 
ATOM     19  C   UNL     1       1.169   9.556  17.935  0.00  0.00    +0.000 C 
ATOM     20  C   UNL     1      -0.353   9.717  18.215  0.00  0.00    +0.000 C 
ATOM     21  N   UNL     1      -0.631  10.104  19.630  0.00  0.00    +0.000 NA
ATOM     22  C   UNL     1      -0.071   9.019  20.466  0.00  0.00    +0.000 C 
ATOM     23  C   UNL     1       1.454   8.951  20.333  0.00  0.00    +0.000 C 
BRANCH  18  29
ATOM     24  C   UNL     1       2.742   6.367  19.233  0.00  0.00    +0.000 A 
ATOM     25  C   UNL     1       3.630   5.387  18.744  0.00  0.00    +0.000 A 
ATOM     26  C   UNL     1       4.442   5.644  17.647  0.00  0.00    +0.000 A 
ATOM     27  C   UNL     1       4.386   6.891  17.035  0.00  0.00    +0.000 A 
ATOM     28  N   UNL     1       3.534   7.840  17.496  0.00  0.00    +0.000 NA
ATOM     29  C   UNL     1       2.692   7.633  18.550  0.00  0.00    +0.000 A 
BRANCH  24  30
ATOM     30  N   UNL     1       1.978   6.098  20.418  0.00  0.00    +0.000 N 
ATOM     31  H   UNL     1       1.440   6.847  20.865  0.00  0.00    +0.000 HD
BRANCH  30  33
ATOM     32  C   UNL     1       0.941   3.880  20.466  0.00  0.00    +0.000 C 
ATOM     33  C   UNL     1       1.967   4.819  21.100  0.00  0.00    +0.000 C 
ENDBRANCH  30  33
ENDBRANCH  24  30
ENDBRANCH  18  29
ENDBRANCH   1  21
TORSDOF 6
ENDMDL
MODEL 3
REMARK VINA RESULT:      -7.1      7.142     10.991
REMARK  Name = 
REMARK  11 active torsions:
REMARK  status: ('A' for Active; 'I' for Inactive)
REMARK    1  A    between atoms: C_1  and  C_2
REMARK    2  A    between atoms: C_2  and  N_3
REMARK    3  A    between atoms: N_3  and  C_4
REMARK    4  A    between atoms: C_9  and  N_10
REMARK    5  A    between atoms: N_13  and  C_14
REMARK    6  A    between atoms: C_14  and  C_15
REMARK    7  A    between atoms: C_15  and  C_16
REMARK    8  A    between atoms: C_20  and  C_21
REMARK    9  A    between atoms: C_22  and  O_23
REMARK   10  A    between atoms: C_24  and  C_25
REMARK   11  A    between atoms: C_26  and  C_27
REMARK                            x       y       z     vdW  Elec       q    Type
REMARK                         _______ _______ _______ _____ _____    ______ ____
ROOT
ATOM      1  C   UNL     1       4.995  14.625  19.840  0.00  0.00    +0.000 C 
ENDROOT
BRANCH   1   2
ATOM      2  C   UNL     1       6.421  15.255  19.553  0.00  0.00    +0.000 C 
ATOM      3  C   UNL     1       7.063  15.500  20.947  0.00  0.00    +0.000 C 
ATOM      4  C   UNL     1       6.355  16.596  18.795  0.00  0.00    +0.000 C 
ATOM      5  C   UNL     1       7.727  17.203  18.557  0.00  0.00    +0.000 C 
ATOM      6  C   UNL     1       8.739  16.166  18.116  0.00  0.00    +0.000 A 
ATOM      7  C   UNL     1       9.981  16.570  17.566  0.00  0.00    +0.000 A 
ATOM      8  C   UNL     1      10.324  18.035  17.365  0.00  0.00    +0.000 C 
ATOM      9  C   UNL     1      10.919  15.586  17.177  0.00  0.00    +0.000 A 
ATOM     10  C   UNL     1      10.638  14.214  17.350  0.00  0.00    +0.000 A 
ATOM     11  C   UNL     1      11.678  13.190  16.947  0.00  0.00    +0.000 C 
ATOM     12  C   UNL     1       9.392  13.811  17.906  0.00  0.00    +0.000 A 
ATOM     13  C   UNL     1       9.048  12.353  18.131  0.00  0.00    +0.000 C 
ATOM     14  C   UNL     1       8.443  14.784  18.285  0.00  0.00    +0.000 A 
ATOM     15  O   UNL     1       7.246  14.391  18.835  0.00  0.00    +0.000 OA
BRANCH   9  16
ATOM     16  O   UNL     1      12.109  15.944  16.636  0.00  0.00    +0.000 OA
ATOM     17  H   UNL     1      12.854  16.315  17.127  0.00  0.00    +0.000 HD
ENDBRANCH   9  16
ENDBRANCH   1   2
BRANCH   1  21
ATOM     18  N   UNL     1       1.789  13.134  19.334  0.00  0.00    +0.000 N 
ATOM     19  C   UNL     1       2.747  13.265  18.235  0.00  0.00    +0.000 C 
ATOM     20  C   UNL     1       3.255  14.730  18.097  0.00  0.00    +0.000 C 
ATOM     21  N   UNL     1       3.717  15.293  19.400  0.00  0.00    +0.000 NA
ATOM     22  C   UNL     1       2.547  15.243  20.304  0.00  0.00    +0.000 C 
ATOM     23  C   UNL     1       2.131  13.796  20.587  0.00  0.00    +0.000 C 
BRANCH  18  29
ATOM     24  C   UNL     1       0.452  11.029  18.877  0.00  0.00    +0.000 A 
ATOM     25  C   UNL     1      -0.830  10.460  18.738  0.00  0.00    +0.000 A 
ATOM     26  C   UNL     1      -1.974  11.241  18.845  0.00  0.00    +0.000 A 
ATOM     27  C   UNL     1      -1.847  12.606  19.078  0.00  0.00    +0.000 A 
ATOM     28  N   UNL     1      -0.618  13.164  19.215  0.00  0.00    +0.000 NA
ATOM     29  C   UNL     1       0.538  12.440  19.149  0.00  0.00    +0.000 A 
BRANCH  24  30
ATOM     30  N   UNL     1       1.613  10.210  18.679  0.00  0.00    +0.000 N 
ATOM     31  H   UNL     1       2.465  10.383  19.221  0.00  0.00    +0.000 HD
BRANCH  30  33
ATOM     32  C   UNL     1       2.583   8.017  18.178  0.00  0.00    +0.000 C 
ATOM     33  C   UNL     1       1.703   9.163  17.680  0.00  0.00    +0.000 C 
ENDBRANCH  30  33
ENDBRANCH  24  30
ENDBRANCH  18  29
ENDBRANCH   1  21
TORSDOF 6
ENDMDL
MODEL 4
REMARK VINA RESULT:      -7.1      1.872      3.296
REMARK  Name = 
REMARK  11 active torsions:
REMARK  status: ('A' for Active; 'I' for Inactive)
REMARK    1  A    between atoms: C_1  and  C_2
REMARK    2  A    between atoms: C_2  and  N_3
REMARK    3  A    between atoms: N_3  and  C_4
REMARK    4  A    between atoms: C_9  and  N_10
REMARK    5  A    between atoms: N_13  and  C_14
REMARK    6  A    between atoms: C_14  and  C_15
REMARK    7  A    between atoms: C_15  and  C_16
REMARK    8  A    between atoms: C_20  and  C_21
REMARK    9  A    between atoms: C_22  and  O_23
REMARK   10  A    between atoms: C_24  and  C_25
REMARK   11  A    between atoms: C_26  and  C_27
REMARK                            x       y       z     vdW  Elec       q    Type
REMARK                         _______ _______ _______ _____ _____    ______ ____
ROOT
ATOM      1  C   UNL     1       1.700   8.609  17.841  0.00  0.00    +0.000 C 
ENDROOT
BRANCH   1   2
ATOM      2  C   UNL     1       0.774   9.797  18.336  0.00  0.00    +0.000 C 
ATOM      3  C   UNL     1       1.483  11.103  17.881  0.00  0.00    +0.000 C 
ATOM      4  C   UNL     1       0.597   9.836  19.867  0.00  0.00    +0.000 C 
ATOM      5  C   UNL     1      -0.265  10.999  20.328  0.00  0.00    +0.000 C 
ATOM      6  C   UNL     1      -1.484  11.188  19.449  0.00  0.00    +0.000 A 
ATOM      7  C   UNL     1      -2.551  12.016  19.876  0.00  0.00    +0.000 A 
ATOM      8  C   UNL     1      -2.532  12.704  21.229  0.00  0.00    +0.000 C 
ATOM      9  C   UNL     1      -3.672  12.192  19.033  0.00  0.00    +0.000 A 
ATOM     10  C   UNL     1      -3.726  11.570  17.767  0.00  0.00    +0.000 A 
ATOM     11  C   UNL     1      -4.931  11.804  16.879  0.00  0.00    +0.000 C 
ATOM     12  C   UNL     1      -2.652  10.742  17.338  0.00  0.00    +0.000 A 
ATOM     13  C   UNL     1      -2.651  10.067  15.982  0.00  0.00    +0.000 C 
ATOM     14  C   UNL     1      -1.534  10.548  18.178  0.00  0.00    +0.000 A 
ATOM     15  O   UNL     1      -0.491   9.759  17.754  0.00  0.00    +0.000 OA
BRANCH   9  16
ATOM     16  O   UNL     1      -4.713  12.967  19.423  0.00  0.00    +0.000 OA
ATOM     17  H   UNL     1      -5.492  13.163  18.885  0.00  0.00    +0.000 HD
ENDBRANCH   9  16
ENDBRANCH   1   2
BRANCH   1  21
ATOM     18  N   UNL     1       2.805   5.252  18.355  0.00  0.00    +0.000 N 
ATOM     19  C   UNL     1       1.890   5.902  19.295  0.00  0.00    +0.000 C 
ATOM     20  C   UNL     1       2.449   7.274  19.773  0.00  0.00    +0.000 C 
ATOM     21  N   UNL     1       2.890   8.133  18.634  0.00  0.00    +0.000 NA
ATOM     22  C   UNL     1       3.945   7.369  17.933  0.00  0.00    +0.000 C 
ATOM     23  C   UNL     1       3.378   6.090  17.309  0.00  0.00    +0.000 C 
BRANCH  18  29
ATOM     24  C   UNL     1       4.441   3.437  19.031  0.00  0.00    +0.000 A 
ATOM     25  C   UNL     1       4.670   2.052  19.160  0.00  0.00    +0.000 A 
ATOM     26  C   UNL     1       3.702   1.130  18.785  0.00  0.00    +0.000 A 
ATOM     27  C   UNL     1       2.497   1.583  18.260  0.00  0.00    +0.000 A 
ATOM     28  N   UNL     1       2.265   2.913  18.133  0.00  0.00    +0.000 NA
ATOM     29  C   UNL     1       3.167   3.864  18.513  0.00  0.00    +0.000 A 
BRANCH  24  30
ATOM     30  N   UNL     1       5.493   4.359  19.350  0.00  0.00    +0.000 N 
ATOM     31  H   UNL     1       5.495   4.847  20.252  0.00  0.00    +0.000 HD
BRANCH  30  33
ATOM     32  C   UNL     1       7.507   5.728  19.084  0.00  0.00    +0.000 C 
ATOM     33  C   UNL     1       6.553   4.727  18.433  0.00  0.00    +0.000 C 
ENDBRANCH  30  33
ENDBRANCH  24  30
ENDBRANCH  18  29
ENDBRANCH   1  21
TORSDOF 6
ENDMDL
MODEL 5
REMARK VINA RESULT:      -7.0      1.813      2.901
REMARK  Name = 
REMARK  11 active torsions:
REMARK  status: ('A' for Active; 'I' for Inactive)
REMARK    1  A    between atoms: C_1  and  C_2
REMARK    2  A    between atoms: C_2  and  N_3
REMARK    3  A    between atoms: N_3  and  C_4
REMARK    4  A    between atoms: C_9  and  N_10
REMARK    5  A    between atoms: N_13  and  C_14
REMARK    6  A    between atoms: C_14  and  C_15
REMARK    7  A    between atoms: C_15  and  C_16
REMARK    8  A    between atoms: C_20  and  C_21
REMARK    9  A    between atoms: C_22  and  O_23
REMARK   10  A    between atoms: C_24  and  C_25
REMARK   11  A    between atoms: C_26  and  C_27
REMARK                            x       y       z     vdW  Elec       q    Type
REMARK                         _______ _______ _______ _____ _____    ______ ____
ROOT
ATOM      1  C   UNL     1       1.768   8.662  19.976  0.00  0.00    +0.000 C 
ENDROOT
BRANCH   1   2
ATOM      2  C   UNL     1       0.814   9.928  20.010  0.00  0.00    +0.000 C 
ATOM      3  C   UNL     1       1.642  11.098  19.408  0.00  0.00    +0.000 C 
ATOM      4  C   UNL     1       0.367  10.317  21.433  0.00  0.00    +0.000 C 
ATOM      5  C   UNL     1      -0.520  11.551  21.452  0.00  0.00    +0.000 C 
ATOM      6  C   UNL     1      -1.553  11.526  20.345  0.00  0.00    +0.000 A 
ATOM      7  C   UNL     1      -2.648  12.425  20.370  0.00  0.00    +0.000 A 
ATOM      8  C   UNL     1      -2.846  13.407  21.511  0.00  0.00    +0.000 C 
ATOM      9  C   UNL     1      -3.592  12.397  19.318  0.00  0.00    +0.000 A 
ATOM     10  C   UNL     1      -3.441  11.500  18.239  0.00  0.00    +0.000 A 
ATOM     11  C   UNL     1      -4.458  11.517  17.116  0.00  0.00    +0.000 C 
ATOM     12  C   UNL     1      -2.339  10.601  18.213  0.00  0.00    +0.000 A 
ATOM     13  C   UNL     1      -2.120   9.632  17.070  0.00  0.00    +0.000 C 
ATOM     14  C   UNL     1      -1.399  10.611  19.265  0.00  0.00    +0.000 A 
ATOM     15  O   UNL     1      -0.327   9.750  19.230  0.00  0.00    +0.000 OA
BRANCH   9  16
ATOM     16  O   UNL     1      -4.656  13.236  19.324  0.00  0.00    +0.000 OA
ATOM     17  H   UNL     1      -4.931  13.791  18.581  0.00  0.00    +0.000 HD
ENDBRANCH   9  16
ENDBRANCH   1   2
BRANCH   1  21
ATOM     18  N   UNL     1       4.050   6.618  18.140  0.00  0.00    +0.000 N 
ATOM     19  C   UNL     1       3.375   7.755  17.511  0.00  0.00    +0.000 C 
ATOM     20  C   UNL     1       1.833   7.684  17.715  0.00  0.00    +0.000 C 
ATOM     21  N   UNL     1       1.462   7.445  19.141  0.00  0.00    +0.000 NA
ATOM     22  C   UNL     1       2.086   6.157  19.515  0.00  0.00    +0.000 C 
ATOM     23  C   UNL     1       3.614   6.255  19.483  0.00  0.00    +0.000 C 
BRANCH  18  29
ATOM     24  C   UNL     1       4.783   4.569  16.840  0.00  0.00    +0.000 A 
ATOM     25  C   UNL     1       5.831   3.934  16.143  0.00  0.00    +0.000 A 
ATOM     26  C   UNL     1       7.081   4.528  16.037  0.00  0.00    +0.000 A 
ATOM     27  C   UNL     1       7.302   5.761  16.640  0.00  0.00    +0.000 A 
ATOM     28  N   UNL     1       6.301   6.382  17.312  0.00  0.00    +0.000 NA
ATOM     29  C   UNL     1       5.045   5.859  17.423  0.00  0.00    +0.000 A 
BRANCH  24  30
ATOM     30  N   UNL     1       3.529   3.889  17.001  0.00  0.00    +0.000 N 
ATOM     31  H   UNL     1       2.695   4.224  16.509  0.00  0.00    +0.000 HD
BRANCH  30  33
ATOM     32  C   UNL     1       1.839   2.585  18.202  0.00  0.00    +0.000 C 
ATOM     33  C   UNL     1       3.326   2.769  17.899  0.00  0.00    +0.000 C 
ENDBRANCH  30  33
ENDBRANCH  24  30
ENDBRANCH  18  29
ENDBRANCH   1  21
TORSDOF 6
ENDMDL
MODEL 6
REMARK VINA RESULT:      -7.0      3.133      9.637
REMARK  Name = 
REMARK  11 active torsions:
REMARK  status: ('A' for Active; 'I' for Inactive)
REMARK    1  A    between atoms: C_1  and  C_2
REMARK    2  A    between atoms: C_2  and  N_3
REMARK    3  A    between atoms: N_3  and  C_4
REMARK    4  A    between atoms: C_9  and  N_10
REMARK    5  A    between atoms: N_13  and  C_14
REMARK    6  A    between atoms: C_14  and  C_15
REMARK    7  A    between atoms: C_15  and  C_16
REMARK    8  A    between atoms: C_20  and  C_21
REMARK    9  A    between atoms: C_22  and  O_23
REMARK   10  A    between atoms: C_24  and  C_25
REMARK   11  A    between atoms: C_26  and  C_27
REMARK                            x       y       z     vdW  Elec       q    Type
REMARK                         _______ _______ _______ _____ _____    ______ ____
ROOT
ATOM      1  C   UNL     1       1.837  10.174  18.244  0.00  0.00    +0.000 C 
ENDROOT
BRANCH   1   2
ATOM      2  C   UNL     1       1.937   8.601  18.421  0.00  0.00    +0.000 C 
ATOM      3  C   UNL     1       0.698   8.013  17.690  0.00  0.00    +0.000 C 
ATOM      4  C   UNL     1       1.903   8.149  19.895  0.00  0.00    +0.000 C 
ATOM      5  C   UNL     1       1.967   6.639  20.047  0.00  0.00    +0.000 C 
ATOM      6  C   UNL     1       2.988   6.016  19.117  0.00  0.00    +0.000 A 
ATOM      7  C   UNL     1       3.404   4.676  19.309  0.00  0.00    +0.000 A 
ATOM      8  C   UNL     1       2.881   3.837  20.462  0.00  0.00    +0.000 C 
ATOM      9  C   UNL     1       4.345   4.108  18.420  0.00  0.00    +0.000 A 
ATOM     10  C   UNL     1       4.853   4.856  17.335  0.00  0.00    +0.000 A 
ATOM     11  C   UNL     1       5.839   4.205  16.387  0.00  0.00    +0.000 C 
ATOM     12  C   UNL     1       4.431   6.199  17.141  0.00  0.00    +0.000 A 
ATOM     13  C   UNL     1       4.930   7.038  15.983  0.00  0.00    +0.000 C 
ATOM     14  C   UNL     1       3.502   6.780  18.031  0.00  0.00    +0.000 A 
ATOM     15  O   UNL     1       3.085   8.075  17.833  0.00  0.00    +0.000 OA
BRANCH   9  16
ATOM     16  O   UNL     1       4.772   2.833  18.589  0.00  0.00    +0.000 OA
ATOM     17  H   UNL     1       5.075   2.455  19.426  0.00  0.00    +0.000 HD
ENDBRANCH   9  16
ENDBRANCH   1   2
BRANCH   1  21
ATOM     18  N   UNL     1      -1.302  11.617  19.149  0.00  0.00    +0.000 N 
ATOM     19  C   UNL     1      -0.369  12.320  18.267  0.00  0.00    +0.000 C 
ATOM     20  C   UNL     1       1.049  12.415  18.900  0.00  0.00    +0.000 C 
ATOM     21  N   UNL     1       1.535  11.095  19.398  0.00  0.00    +0.000 NA
ATOM     22  C   UNL     1       0.552  10.655  20.414  0.00  0.00    +0.000 C 
ATOM     23  C   UNL     1      -0.817  10.394  19.779  0.00  0.00    +0.000 C 
BRANCH  18  29
ATOM     24  C   UNL     1      -3.803  11.729  18.749  0.00  0.00    +0.000 A 
ATOM     25  C   UNL     1      -5.027  12.316  19.127  0.00  0.00    +0.000 A 
ATOM     26  C   UNL     1      -5.077  13.290  20.115  0.00  0.00    +0.000 A 
ATOM     27  C   UNL     1      -3.897  13.699  20.728  0.00  0.00    +0.000 A 
ATOM     28  N   UNL     1      -2.714  13.140  20.373  0.00  0.00    +0.000 NA
ATOM     29  C   UNL     1      -2.610  12.158  19.430  0.00  0.00    +0.000 A 
BRANCH  24  30
ATOM     30  N   UNL     1      -3.777  10.786  17.667  0.00  0.00    +0.000 N 
ATOM     31  H   UNL     1      -3.642   9.787  17.857  0.00  0.00    +0.000 HD
BRANCH  30  33
ATOM     32  C   UNL     1      -2.785  10.427  15.457  0.00  0.00    +0.000 C 
ATOM     33  C   UNL     1      -3.855  11.157  16.268  0.00  0.00    +0.000 C 
ENDBRANCH  30  33
ENDBRANCH  24  30
ENDBRANCH  18  29
ENDBRANCH   1  21
TORSDOF 6
ENDMDL
MODEL 7
REMARK VINA RESULT:      -6.9      3.196      4.731
REMARK  Name = 
REMARK  11 active torsions:
REMARK  status: ('A' for Active; 'I' for Inactive)
REMARK    1  A    between atoms: C_1  and  C_2
REMARK    2  A    between atoms: C_2  and  N_3
REMARK    3  A    between atoms: N_3  and  C_4
REMARK    4  A    between atoms: C_9  and  N_10
REMARK    5  A    between atoms: N_13  and  C_14
REMARK    6  A    between atoms: C_14  and  C_15
REMARK    7  A    between atoms: C_15  and  C_16
REMARK    8  A    between atoms: C_20  and  C_21
REMARK    9  A    between atoms: C_22  and  O_23
REMARK   10  A    between atoms: C_24  and  C_25
REMARK   11  A    between atoms: C_26  and  C_27
REMARK                            x       y       z     vdW  Elec       q    Type
REMARK                         _______ _______ _______ _____ _____    ______ ____
ROOT
ATOM      1  C   UNL     1       2.030   7.414  20.411  0.00  0.00    +0.000 C 
ENDROOT
BRANCH   1   2
ATOM      2  C   UNL     1       1.315   8.669  21.066  0.00  0.00    +0.000 C 
ATOM      3  C   UNL     1       2.231   9.111  22.242  0.00  0.00    +0.000 C 
ATOM      4  C   UNL     1      -0.087   8.350  21.623  0.00  0.00    +0.000 C 
ATOM      5  C   UNL     1      -0.746   9.553  22.277  0.00  0.00    +0.000 C 
ATOM      6  C   UNL     1      -0.555  10.817  21.465  0.00  0.00    +0.000 A 
ATOM      7  C   UNL     1      -1.329  11.969  21.746  0.00  0.00    +0.000 A 
ATOM      8  C   UNL     1      -2.394  11.969  22.829  0.00  0.00    +0.000 C 
ATOM      9  C   UNL     1      -1.123  13.145  20.988  0.00  0.00    +0.000 A 
ATOM     10  C   UNL     1      -0.142  13.185  19.974  0.00  0.00    +0.000 A 
ATOM     11  C   UNL     1       0.070  14.470  19.201  0.00  0.00    +0.000 C 
ATOM     12  C   UNL     1       0.638  12.029  19.696  0.00  0.00    +0.000 A 
ATOM     13  C   UNL     1       1.716  12.024  18.633  0.00  0.00    +0.000 C 
ATOM     14  C   UNL     1       0.430  10.846  20.438  0.00  0.00    +0.000 A 
ATOM     15  O   UNL     1       1.196   9.734  20.176  0.00  0.00    +0.000 OA
BRANCH   9  16
ATOM     16  O   UNL     1      -1.861  14.257  21.226  0.00  0.00    +0.000 OA
ATOM     17  H   UNL     1      -2.819  14.320  21.121  0.00  0.00    +0.000 HD
ENDBRANCH   9  16
ENDBRANCH   1   2
BRANCH   1  21
ATOM     18  N   UNL     1       4.221   6.016  17.962  0.00  0.00    +0.000 N 
ATOM     19  C   UNL     1       3.937   7.452  17.995  0.00  0.00    +0.000 C 
ATOM     20  C   UNL     1       2.405   7.728  17.996  0.00  0.00    +0.000 C 
ATOM     21  N   UNL     1       1.687   6.924  19.028  0.00  0.00    +0.000 NA
ATOM     22  C   UNL     1       1.949   5.506  18.697  0.00  0.00    +0.000 C 
ATOM     23  C   UNL     1       3.436   5.170  18.852  0.00  0.00    +0.000 C 
BRANCH  18  29
ATOM     24  C   UNL     1       6.438   4.898  17.449  0.00  0.00    +0.000 A 
ATOM     25  C   UNL     1       7.287   4.377  16.452  0.00  0.00    +0.000 A 
ATOM     26  C   UNL     1       6.930   4.430  15.111  0.00  0.00    +0.000 A 
ATOM     27  C   UNL     1       5.724   5.020  14.751  0.00  0.00    +0.000 A 
ATOM     28  N   UNL     1       4.899   5.524  15.702  0.00  0.00    +0.000 NA
ATOM     29  C   UNL     1       5.184   5.472  17.036  0.00  0.00    +0.000 A 
BRANCH  24  30
ATOM     30  N   UNL     1       6.874   4.901  18.817  0.00  0.00    +0.000 N 
ATOM     31  H   UNL     1       6.430   4.281  19.501  0.00  0.00    +0.000 HD
BRANCH  30  33
ATOM     32  C   UNL     1       7.995   7.051  18.469  0.00  0.00    +0.000 C 
ATOM     33  C   UNL     1       7.881   5.801  19.342  0.00  0.00    +0.000 C 
ENDBRANCH  30  33
ENDBRANCH  24  30
ENDBRANCH  18  29
ENDBRANCH   1  21
TORSDOF 6
ENDMDL
MODEL 8
REMARK VINA RESULT:      -6.8      3.782      5.754
REMARK  Name = 
REMARK  11 active torsions:
REMARK  status: ('A' for Active; 'I' for Inactive)
REMARK    1  A    between atoms: C_1  and  C_2
REMARK    2  A    between atoms: C_2  and  N_3
REMARK    3  A    between atoms: N_3  and  C_4
REMARK    4  A    between atoms: C_9  and  N_10
REMARK    5  A    between atoms: N_13  and  C_14
REMARK    6  A    between atoms: C_14  and  C_15
REMARK    7  A    between atoms: C_15  and  C_16
REMARK    8  A    between atoms: C_20  and  C_21
REMARK    9  A    between atoms: C_22  and  O_23
REMARK   10  A    between atoms: C_24  and  C_25
REMARK   11  A    between atoms: C_26  and  C_27
REMARK                            x       y       z     vdW  Elec       q    Type
REMARK                         _______ _______ _______ _____ _____    ______ ____
ROOT
ATOM      1  C   UNL     1       1.548  10.752  19.901  0.00  0.00    +0.000 C 
ENDROOT
BRANCH   1   2
ATOM      2  C   UNL     1       1.103  12.274  19.893  0.00  0.00    +0.000 C 
ATOM      3  C   UNL     1       0.231  12.465  21.166  0.00  0.00    +0.000 C 
ATOM      4  C   UNL     1       0.265  12.659  18.657  0.00  0.00    +0.000 C 
ATOM      5  C   UNL     1      -0.181  14.111  18.681  0.00  0.00    +0.000 C 
ATOM      6  C   UNL     1       0.928  15.040  19.128  0.00  0.00    +0.000 A 
ATOM      7  C   UNL     1       0.807  16.439  18.937  0.00  0.00    +0.000 A 
ATOM      8  C   UNL     1      -0.403  17.047  18.251  0.00  0.00    +0.000 C 
ATOM      9  C   UNL     1       1.846  17.290  19.378  0.00  0.00    +0.000 A 
ATOM     10  C   UNL     1       2.986  16.762  20.021  0.00  0.00    +0.000 A 
ATOM     11  C   UNL     1       4.067  17.708  20.504  0.00  0.00    +0.000 C 
ATOM     12  C   UNL     1       3.104  15.358  20.216  0.00  0.00    +0.000 A 
ATOM     13  C   UNL     1       4.297  14.742  20.917  0.00  0.00    +0.000 C 
ATOM     14  C   UNL     1       2.079  14.498  19.767  0.00  0.00    +0.000 A 
ATOM     15  O   UNL     1       2.189  13.143  19.969  0.00  0.00    +0.000 OA
BRANCH   9  16
ATOM     16  O   UNL     1       1.763  18.631  19.195  0.00  0.00    +0.000 OA
ATOM     17  H   UNL     1       0.947  19.147  19.234  0.00  0.00    +0.000 HD
ENDBRANCH   9  16
ENDBRANCH   1   2
BRANCH   1  21
ATOM     18  N   UNL     1       2.345   7.504  18.648  0.00  0.00    +0.000 N 
ATOM     19  C   UNL     1       2.063   8.618  17.742  0.00  0.00    +0.000 C 
ATOM     20  C   UNL     1       0.710   9.304  18.090  0.00  0.00    +0.000 C 
ATOM     21  N   UNL     1       0.601   9.635  19.542  0.00  0.00    +0.000 NA
ATOM     22  C   UNL     1       0.721   8.349  20.264  0.00  0.00    +0.000 C 
ATOM     23  C   UNL     1       2.111   7.735  20.068  0.00  0.00    +0.000 C 
BRANCH  18  29
ATOM     24  C   UNL     1       4.099   5.962  17.660  0.00  0.00    +0.000 A 
ATOM     25  C   UNL     1       4.397   4.661  17.207  0.00  0.00    +0.000 A 
ATOM     26  C   UNL     1       3.428   3.666  17.207  0.00  0.00    +0.000 A 
ATOM     27  C   UNL     1       2.144   3.965  17.648  0.00  0.00    +0.000 A 
ATOM     28  N   UNL     1       1.847   5.213  18.087  0.00  0.00    +0.000 NA
ATOM     29  C   UNL     1       2.766   6.221  18.138  0.00  0.00    +0.000 A 
BRANCH  24  30
ATOM     30  N   UNL     1       5.099   6.987  17.569  0.00  0.00    +0.000 N 
ATOM     31  H   UNL     1       4.900   7.933  17.911  0.00  0.00    +0.000 HD
BRANCH  30  33
ATOM     32  C   UNL     1       7.510   6.856  17.979  0.00  0.00    +0.000 C 
ATOM     33  C   UNL     1       6.391   6.803  16.939  0.00  0.00    +0.000 C 
ENDBRANCH  30  33
ENDBRANCH  24  30
ENDBRANCH  18  29
ENDBRANCH   1  21
TORSDOF 6
ENDMDL
MODEL 9
REMARK VINA RESULT:      -6.8      7.104      8.880
REMARK  Name = 
REMARK  11 active torsions:
REMARK  status: ('A' for Active; 'I' for Inactive)
REMARK    1  A    between atoms: C_1  and  C_2
REMARK    2  A    between atoms: C_2  and  N_3
REMARK    3  A    between atoms: N_3  and  C_4
REMARK    4  A    between atoms: C_9  and  N_10
REMARK    5  A    between atoms: N_13  and  C_14
REMARK    6  A    between atoms: C_14  and  C_15
REMARK    7  A    between atoms: C_15  and  C_16
REMARK    8  A    between atoms: C_20  and  C_21
REMARK    9  A    between atoms: C_22  and  O_23
REMARK   10  A    between atoms: C_24  and  C_25
REMARK   11  A    between atoms: C_26  and  C_27
REMARK                            x       y       z     vdW  Elec       q    Type
REMARK                         _______ _______ _______ _____ _____    ______ ____
ROOT
ATOM      1  C   UNL     1       5.196  15.212  19.595  0.00  0.00    +0.000 C 
ENDROOT
BRANCH   1   2
ATOM      2  C   UNL     1       3.753  15.502  19.006  0.00  0.00    +0.000 C 
ATOM      3  C   UNL     1       3.433  14.308  18.064  0.00  0.00    +0.000 C 
ATOM      4  C   UNL     1       3.677  16.809  18.191  0.00  0.00    +0.000 C 
ATOM      5  C   UNL     1       2.297  17.057  17.606  0.00  0.00    +0.000 C 
ATOM      6  C   UNL     1       1.195  16.752  18.599  0.00  0.00    +0.000 A 
ATOM      7  C   UNL     1      -0.129  17.192  18.353  0.00  0.00    +0.000 A 
ATOM      8  C   UNL     1      -0.481  18.008  17.122  0.00  0.00    +0.000 C 
ATOM      9  C   UNL     1      -1.147  16.883  19.284  0.00  0.00    +0.000 A 
ATOM     10  C   UNL     1      -0.859  16.125  20.440  0.00  0.00    +0.000 A 
ATOM     11  C   UNL     1      -1.980  15.790  21.402  0.00  0.00    +0.000 C 
ATOM     12  C   UNL     1       0.470  15.681  20.684  0.00  0.00    +0.000 A 
ATOM     13  C   UNL     1       0.828  14.849  21.898  0.00  0.00    +0.000 C 
ATOM     14  C   UNL     1       1.496  15.996  19.767  0.00  0.00    +0.000 A 
ATOM     15  O   UNL     1       2.777  15.553  19.999  0.00  0.00    +0.000 OA
BRANCH   9  16
ATOM     16  O   UNL     1      -2.419  17.303  19.080  0.00  0.00    +0.000 OA
ATOM     17  H   UNL     1      -3.212  16.782  19.263  0.00  0.00    +0.000 HD
ENDBRANCH   9  16
ENDBRANCH   1   2
BRANCH   1  21
ATOM     18  N   UNL     1       8.421  13.803  18.988  0.00  0.00    +0.000 N 
ATOM     19  C   UNL     1       8.091  14.416  20.276  0.00  0.00    +0.000 C 
ATOM     20  C   UNL     1       7.523  15.853  20.091  0.00  0.00    +0.000 C 
ATOM     21  N   UNL     1       6.430  15.904  19.076  0.00  0.00    +0.000 NA
ATOM     22  C   UNL     1       7.027  15.425  17.809  0.00  0.00    +0.000 C 
ATOM     23  C   UNL     1       7.443  13.954  17.917  0.00  0.00    +0.000 C 
BRANCH  18  29
ATOM     24  C   UNL     1      10.649  13.576  17.801  0.00  0.00    +0.000 A 
ATOM     25  C   UNL     1      11.864  12.867  17.710  0.00  0.00    +0.000 A 
ATOM     26  C   UNL     1      12.118  11.778  18.532  0.00  0.00    +0.000 A 
ATOM     27  C   UNL     1      11.152  11.375  19.447  0.00  0.00    +0.000 A 
ATOM     28  N   UNL     1       9.980  12.051  19.544  0.00  0.00    +0.000 NA
ATOM     29  C   UNL     1       9.689  13.145  18.783  0.00  0.00    +0.000 A 
BRANCH  24  30
ATOM     30  N   UNL     1      10.385  14.645  16.880  0.00  0.00    +0.000 N 
ATOM     31  H   UNL     1       9.791  14.485  16.061  0.00  0.00    +0.000 HD
BRANCH  30  33
ATOM     32  C   UNL     1      10.895  16.483  18.417  0.00  0.00    +0.000 C 
ATOM     33  C   UNL     1      10.977  15.964  16.982  0.00  0.00    +0.000 C 
ENDBRANCH  30  33
ENDBRANCH  24  30
ENDBRANCH  18  29
ENDBRANCH   1  21
TORSDOF 6
ENDMDL
