MODEL 1
REMARK VINA RESULT:      -7.5      0.000      0.000
REMARK  Name = 
REMARK  8 active torsions:
REMARK  status: ('A' for Active; 'I' for Inactive)
REMARK    1  A    between atoms: C_1  and  C_2
REMARK    2  A    between atoms: C_5  and  C_6
REMARK    3  A    between atoms: C_8  and  C_9
REMARK    4  A    between atoms: C_9  and  N_10
REMARK    5  A    between atoms: C_12  and  C_13
REMARK    6  A    between atoms: C_14  and  C_15
REMARK    7  A    between atoms: C_16  and  C_17
REMARK    8  A    between atoms: C_23  and  C_24
REMARK                            x       y       z     vdW  Elec       q    Type
REMARK                         _______ _______ _______ _____ _____    ______ ____
ROOT
ATOM      1  C   UNL     1       1.946   6.321  20.276  0.00  0.00    +0.000 A 
ATOM      2  N   UNL     1       3.011   5.748  19.751  0.00  0.00    +0.000 NA
ATOM      3  C   UNL     1       2.864   4.408  20.040  0.00  0.00    +0.000 A 
ATOM      4  C   UNL     1       1.687   4.224  20.727  0.00  0.00    +0.000 A 
ATOM      5  O   UNL     1       1.093   5.437  20.892  0.00  0.00    +0.000 OA
ENDROOT
BRANCH   1  10
ATOM      6  C   UNL     1       0.400  11.889  20.715  0.00  0.00    +0.000 C 
ATOM      7  C   UNL     1       0.814  10.452  20.598  0.00  0.00    +0.000 A 
ATOM      8  C   UNL     1       0.739   9.594  21.692  0.00  0.00    +0.000 A 
ATOM      9  C   UNL     1       1.110   8.255  21.559  0.00  0.00    +0.000 A 
ATOM     10  C   UNL     1       1.562   7.732  20.331  0.00  0.00    +0.000 A 
ATOM     11  C   UNL     1       1.639   8.595  19.219  0.00  0.00    +0.000 A 
ATOM     12  C   UNL     1       2.078   8.161  17.844  0.00  0.00    +0.000 C 
ATOM     13  C   UNL     1       1.269   9.948  19.373  0.00  0.00    +0.000 A 
ENDBRANCH   1  10
BRANCH   3  14
ATOM     14  C   UNL     1       3.906   3.412  19.673  0.00  0.00    +0.000 C 
BRANCH  14  15
ATOM     15  N   UNL     1       4.833   3.985  18.701  0.00  0.00    +0.000 N 
ATOM     16  N   UNL     1       5.934   4.632  19.208  0.00  0.00    +0.000 NA
ATOM     17  C   UNL     1       6.786   5.140  18.376  0.00  0.00    +0.000 A 
ATOM     18  C   UNL     1       7.955   5.887  18.981  0.00  0.00    +0.000 C 
ATOM     19  C   UNL     1       6.687   5.030  16.895  0.00  0.00    +0.000 A 
ATOM     20  C   UNL     1       7.763   5.581  16.004  0.00  0.00    +0.000 C 
ATOM     21  C   UNL     1       5.590   4.408  16.427  0.00  0.00    +0.000 A 
ATOM     22  C   UNL     1       4.543   3.898  17.348  0.00  0.00    +0.000 A 
ATOM     23  O   UNL     1       3.493   3.446  16.898  0.00  0.00    +0.000 OA
BRANCH  21  24
ATOM     24  C   UNL     1       5.388   4.202  15.032  0.00  0.00    +0.000 C 
ATOM     25  N   UNL     1       5.308   4.028  13.887  0.00  0.00    +0.000 NA
ENDBRANCH  21  24
ENDBRANCH  14  15
ENDBRANCH   3  14
TORSDOF 4
ENDMDL
MODEL 2
REMARK VINA RESULT:      -7.3      4.112      8.752
REMARK  Name = 
REMARK  8 active torsions:
REMARK  status: ('A' for Active; 'I' for Inactive)
REMARK    1  A    between atoms: C_1  and  C_2
REMARK    2  A    between atoms: C_5  and  C_6
REMARK    3  A    between atoms: C_8  and  C_9
REMARK    4  A    between atoms: C_9  and  N_10
REMARK    5  A    between atoms: C_12  and  C_13
REMARK    6  A    between atoms: C_14  and  C_15
REMARK    7  A    between atoms: C_16  and  C_17
REMARK    8  A    between atoms: C_23  and  C_24
REMARK                            x       y       z     vdW  Elec       q    Type
REMARK                         _______ _______ _______ _____ _____    ______ ____
ROOT
ATOM      1  C   UNL     1       1.747   7.682  19.963  0.00  0.00    +0.000 A 
ATOM      2  N   UNL     1       1.742   8.714  19.143  0.00  0.00    +0.000 NA
ATOM      3  C   UNL     1       1.105   9.715  19.847  0.00  0.00    +0.000 A 
ATOM      4  C   UNL     1       0.761   9.238  21.090  0.00  0.00    +0.000 A 
ATOM      5  O   UNL     1       1.158   7.940  21.177  0.00  0.00    +0.000 OA
ENDROOT
BRANCH   1  10
ATOM      6  C   UNL     1       3.580   2.219  19.339  0.00  0.00    +0.000 C 
ATOM      7  C   UNL     1       3.099   3.632  19.487  0.00  0.00    +0.000 A 
ATOM      8  C   UNL     1       2.228   3.988  20.513  0.00  0.00    +0.000 A 
ATOM      9  C   UNL     1       1.807   5.313  20.647  0.00  0.00    +0.000 A 
ATOM     10  C   UNL     1       2.245   6.320  19.765  0.00  0.00    +0.000 A 
ATOM     11  C   UNL     1       3.129   5.967  18.725  0.00  0.00    +0.000 A 
ATOM     12  C   UNL     1       3.696   6.947  17.731  0.00  0.00    +0.000 C 
ATOM     13  C   UNL     1       3.538   4.622  18.598  0.00  0.00    +0.000 A 
ENDBRANCH   1  10
BRANCH   3  14
ATOM     14  C   UNL     1       0.832  11.044  19.238  0.00  0.00    +0.000 C 
BRANCH  14  15
ATOM     15  N   UNL     1      -0.583  11.161  18.894  0.00  0.00    +0.000 N 
ATOM     16  N   UNL     1      -1.007  10.466  17.786  0.00  0.00    +0.000 NA
ATOM     17  C   UNL     1      -2.258  10.534  17.459  0.00  0.00    +0.000 A 
ATOM     18  C   UNL     1      -2.667   9.794  16.204  0.00  0.00    +0.000 C 
ATOM     19  C   UNL     1      -3.292  11.277  18.230  0.00  0.00    +0.000 A 
ATOM     20  C   UNL     1      -4.737  11.237  17.824  0.00  0.00    +0.000 C 
ATOM     21  C   UNL     1      -2.846  11.962  19.298  0.00  0.00    +0.000 A 
ATOM     22  C   UNL     1      -1.403  11.987  19.648  0.00  0.00    +0.000 A 
ATOM     23  O   UNL     1      -1.000  12.718  20.550  0.00  0.00    +0.000 OA
BRANCH  21  24
ATOM     24  C   UNL     1      -3.734  12.686  20.144  0.00  0.00    +0.000 C 
ATOM     25  N   UNL     1      -4.500  13.202  20.847  0.00  0.00    +0.000 NA
ENDBRANCH  21  24
ENDBRANCH  14  15
ENDBRANCH   3  14
TORSDOF 4
ENDMDL
MODEL 3
REMARK VINA RESULT:      -7.3      3.307      8.655
REMARK  Name = 
REMARK  8 active torsions:
REMARK  status: ('A' for Active; 'I' for Inactive)
REMARK    1  A    between atoms: C_1  and  C_2
REMARK    2  A    between atoms: C_5  and  C_6
REMARK    3  A    between atoms: C_8  and  C_9
REMARK    4  A    between atoms: C_9  and  N_10
REMARK    5  A    between atoms: C_12  and  C_13
REMARK    6  A    between atoms: C_14  and  C_15
REMARK    7  A    between atoms: C_16  and  C_17
REMARK    8  A    between atoms: C_23  and  C_24
REMARK                            x       y       z     vdW  Elec       q    Type
REMARK                         _______ _______ _______ _____ _____    ______ ____
ROOT
ATOM      1  C   UNL     1       2.485   7.371  18.851  0.00  0.00    +0.000 A 
ATOM      2  N   UNL     1       2.331   7.369  20.161  0.00  0.00    +0.000 NA
ATOM      3  C   UNL     1       1.539   8.468  20.420  0.00  0.00    +0.000 A 
ATOM      4  C   UNL     1       1.231   9.089  19.232  0.00  0.00    +0.000 A 
ATOM      5  O   UNL     1       1.833   8.405  18.222  0.00  0.00    +0.000 OA
ENDROOT
BRANCH   1  10
ATOM      6  C   UNL     1       5.691   3.997  15.400  0.00  0.00    +0.000 C 
ATOM      7  C   UNL     1       4.866   4.861  16.305  0.00  0.00    +0.000 A 
ATOM      8  C   UNL     1       5.135   6.221  16.437  0.00  0.00    +0.000 A 
ATOM      9  C   UNL     1       4.343   7.015  17.269  0.00  0.00    +0.000 A 
ATOM     10  C   UNL     1       3.258   6.477  17.989  0.00  0.00    +0.000 A 
ATOM     11  C   UNL     1       2.979   5.101  17.858  0.00  0.00    +0.000 A 
ATOM     12  C   UNL     1       1.834   4.404  18.547  0.00  0.00    +0.000 C 
ATOM     13  C   UNL     1       3.794   4.312  17.020  0.00  0.00    +0.000 A 
ENDBRANCH   1  10
BRANCH   3  14
ATOM     14  C   UNL     1       1.184   8.863  21.809  0.00  0.00    +0.000 C 
BRANCH  14  15
ATOM     15  N   UNL     1       0.573  10.190  21.817  0.00  0.00    +0.000 N 
ATOM     16  N   UNL     1       1.218  11.169  21.099  0.00  0.00    +0.000 NA
ATOM     17  C   UNL     1       0.697  12.355  21.071  0.00  0.00    +0.000 A 
ATOM     18  C   UNL     1       1.469  13.411  20.310  0.00  0.00    +0.000 C 
ATOM     19  C   UNL     1      -0.588  12.727  21.724  0.00  0.00    +0.000 A 
ATOM     20  C   UNL     1      -1.160  14.107  21.573  0.00  0.00    +0.000 C 
ATOM     21  C   UNL     1      -1.187  11.755  22.434  0.00  0.00    +0.000 A 
ATOM     22  C   UNL     1      -0.570  10.410  22.571  0.00  0.00    +0.000 A 
ATOM     23  O   UNL     1      -1.068   9.577  23.324  0.00  0.00    +0.000 OA
BRANCH  21  24
ATOM     24  C   UNL     1      -2.439  11.966  23.080  0.00  0.00    +0.000 C 
ATOM     25  N   UNL     1      -3.421  12.113  23.680  0.00  0.00    +0.000 NA
ENDBRANCH  21  24
ENDBRANCH  14  15
ENDBRANCH   3  14
TORSDOF 4
ENDMDL
MODEL 4
REMARK VINA RESULT:      -7.2      3.613      8.492
REMARK  Name = 
REMARK  8 active torsions:
REMARK  status: ('A' for Active; 'I' for Inactive)
REMARK    1  A    between atoms: C_1  and  C_2
REMARK    2  A    between atoms: C_5  and  C_6
REMARK    3  A    between atoms: C_8  and  C_9
REMARK    4  A    between atoms: C_9  and  N_10
REMARK    5  A    between atoms: C_12  and  C_13
REMARK    6  A    between atoms: C_14  and  C_15
REMARK    7  A    between atoms: C_16  and  C_17
REMARK    8  A    between atoms: C_23  and  C_24
REMARK                            x       y       z     vdW  Elec       q    Type
REMARK                         _______ _______ _______ _____ _____    ______ ____
ROOT
ATOM      1  C   UNL     1       2.462   7.672  18.384  0.00  0.00    +0.000 A 
ATOM      2  N   UNL     1       1.754   8.649  17.852  0.00  0.00    +0.000 NA
ATOM      3  C   UNL     1       1.102   9.229  18.920  0.00  0.00    +0.000 A 
ATOM      4  C   UNL     1       1.464   8.574  20.075  0.00  0.00    +0.000 A 
ATOM      5  O   UNL     1       2.326   7.574  19.747  0.00  0.00    +0.000 OA
ENDROOT
BRANCH   1  10
ATOM      6  C   UNL     1       6.033   3.889  15.832  0.00  0.00    +0.000 C 
ATOM      7  C   UNL     1       5.112   4.861  16.505  0.00  0.00    +0.000 A 
ATOM      8  C   UNL     1       5.390   6.225  16.510  0.00  0.00    +0.000 A 
ATOM      9  C   UNL     1       4.509   7.118  17.125  0.00  0.00    +0.000 A 
ATOM     10  C   UNL     1       3.326   6.677  17.748  0.00  0.00    +0.000 A 
ATOM     11  C   UNL     1       3.037   5.297  17.745  0.00  0.00    +0.000 A 
ATOM     12  C   UNL     1       1.795   4.693  18.349  0.00  0.00    +0.000 C 
ATOM     13  C   UNL     1       3.942   4.407  17.127  0.00  0.00    +0.000 A 
ENDBRANCH   1  10
BRANCH   3  14
ATOM     14  C   UNL     1       0.135  10.342  18.733  0.00  0.00    +0.000 C 
BRANCH  14  15
ATOM     15  N   UNL     1       0.664  11.575  19.311  0.00  0.00    +0.000 N 
ATOM     16  N   UNL     1       1.706  12.171  18.642  0.00  0.00    +0.000 NA
ATOM     17  C   UNL     1       2.192  13.273  19.117  0.00  0.00    +0.000 A 
ATOM     18  C   UNL     1       3.370  13.865  18.374  0.00  0.00    +0.000 C 
ATOM     19  C   UNL     1       1.667  13.977  20.319  0.00  0.00    +0.000 A 
ATOM     20  C   UNL     1       2.239  15.295  20.755  0.00  0.00    +0.000 C 
ATOM     21  C   UNL     1       0.660  13.362  20.964  0.00  0.00    +0.000 A 
ATOM     22  C   UNL     1       0.141  12.048  20.506  0.00  0.00    +0.000 A 
ATOM     23  O   UNL     1      -0.691  11.445  21.178  0.00  0.00    +0.000 OA
BRANCH  21  24
ATOM     24  C   UNL     1       0.041  13.943  22.108  0.00  0.00    +0.000 C 
ATOM     25  N   UNL     1      -0.392  14.396  23.085  0.00  0.00    +0.000 NA
ENDBRANCH  21  24
ENDBRANCH  14  15
ENDBRANCH   3  14
TORSDOF 4
ENDMDL
MODEL 5
REMARK VINA RESULT:      -7.2      4.792      7.051
REMARK  Name = 
REMARK  8 active torsions:
REMARK  status: ('A' for Active; 'I' for Inactive)
REMARK    1  A    between atoms: C_1  and  C_2
REMARK    2  A    between atoms: C_5  and  C_6
REMARK    3  A    between atoms: C_8  and  C_9
REMARK    4  A    between atoms: C_9  and  N_10
REMARK    5  A    between atoms: C_12  and  C_13
REMARK    6  A    between atoms: C_14  and  C_15
REMARK    7  A    between atoms: C_16  and  C_17
REMARK    8  A    between atoms: C_23  and  C_24
REMARK                            x       y       z     vdW  Elec       q    Type
REMARK                         _______ _______ _______ _____ _____    ______ ____
ROOT
ATOM      1  C   UNL     1       8.680   9.630  18.267  0.00  0.00    +0.000 A 
ATOM      2  N   UNL     1       7.890   9.178  17.314  0.00  0.00    +0.000 NA
ATOM      3  C   UNL     1       7.664   7.859  17.646  0.00  0.00    +0.000 A 
ATOM      4  C   UNL     1       8.327   7.570  18.815  0.00  0.00    +0.000 A 
ATOM      5  O   UNL     1       8.987   8.690  19.221  0.00  0.00    +0.000 OA
ENDROOT
BRANCH   1  10
ATOM      6  C   UNL     1      11.291  14.745  19.048  0.00  0.00    +0.000 C 
ATOM      7  C   UNL     1      10.618  13.423  18.831  0.00  0.00    +0.000 A 
ATOM      8  C   UNL     1      11.143  12.254  19.375  0.00  0.00    +0.000 A 
ATOM      9  C   UNL     1      10.491  11.034  19.179  0.00  0.00    +0.000 A 
ATOM     10  C   UNL     1       9.295  10.947  18.440  0.00  0.00    +0.000 A 
ATOM     11  C   UNL     1       8.756  12.127  17.889  0.00  0.00    +0.000 A 
ATOM     12  C   UNL     1       7.471  12.180  17.102  0.00  0.00    +0.000 C 
ATOM     13  C   UNL     1       9.433  13.350  18.088  0.00  0.00    +0.000 A 
ENDBRANCH   1  10
BRANCH   3  14
ATOM     14  C   UNL     1       6.862   6.961  16.772  0.00  0.00    +0.000 C 
BRANCH  14  15
ATOM     15  N   UNL     1       5.712   6.436  17.506  0.00  0.00    +0.000 N 
ATOM     16  N   UNL     1       4.573   7.204  17.497  0.00  0.00    +0.000 NA
ATOM     17  C   UNL     1       3.529   6.764  18.124  0.00  0.00    +0.000 A 
ATOM     18  C   UNL     1       2.315   7.668  18.128  0.00  0.00    +0.000 C 
ATOM     19  C   UNL     1       3.456   5.450  18.820  0.00  0.00    +0.000 A 
ATOM     20  C   UNL     1       2.178   4.982  19.455  0.00  0.00    +0.000 C 
ATOM     21  C   UNL     1       4.591   4.728  18.829  0.00  0.00    +0.000 A 
ATOM     22  C   UNL     1       5.835   5.244  18.204  0.00  0.00    +0.000 A 
ATOM     23  O   UNL     1       6.890   4.628  18.331  0.00  0.00    +0.000 OA
BRANCH  21  24
ATOM     24  C   UNL     1       4.649   3.438  19.429  0.00  0.00    +0.000 C 
ATOM     25  N   UNL     1       4.617   2.372  19.886  0.00  0.00    +0.000 NA
ENDBRANCH  21  24
ENDBRANCH  14  15
ENDBRANCH   3  14
TORSDOF 4
ENDMDL
MODEL 6
REMARK VINA RESULT:      -7.2      3.104      4.657
REMARK  Name = 
REMARK  8 active torsions:
REMARK  status: ('A' for Active; 'I' for Inactive)
REMARK    1  A    between atoms: C_1  and  C_2
REMARK    2  A    between atoms: C_5  and  C_6
REMARK    3  A    between atoms: C_8  and  C_9
REMARK    4  A    between atoms: C_9  and  N_10
REMARK    5  A    between atoms: C_12  and  C_13
REMARK    6  A    between atoms: C_14  and  C_15
REMARK    7  A    between atoms: C_16  and  C_17
REMARK    8  A    between atoms: C_23  and  C_24
REMARK                            x       y       z     vdW  Elec       q    Type
REMARK                         _______ _______ _______ _____ _____    ______ ____
ROOT
ATOM      1  C   UNL     1      -0.047   9.645  18.413  0.00  0.00    +0.000 A 
ATOM      2  N   UNL     1       0.920   9.291  17.589  0.00  0.00    +0.000 NA
ATOM      3  C   UNL     1       1.911   8.793  18.409  0.00  0.00    +0.000 A 
ATOM      4  C   UNL     1       1.486   8.857  19.716  0.00  0.00    +0.000 A 
ATOM      5  O   UNL     1       0.240   9.404  19.734  0.00  0.00    +0.000 OA
ENDROOT
BRANCH   1  10
ATOM      6  C   UNL     1      -5.203  11.982  17.174  0.00  0.00    +0.000 C 
ATOM      7  C   UNL     1      -3.874  11.373  17.508  0.00  0.00    +0.000 A 
ATOM      8  C   UNL     1      -3.358  10.323  16.753  0.00  0.00    +0.000 A 
ATOM      9  C   UNL     1      -2.110   9.782  17.067  0.00  0.00    +0.000 A 
ATOM     10  C   UNL     1      -1.339  10.275  18.138  0.00  0.00    +0.000 A 
ATOM     11  C   UNL     1      -1.855  11.339  18.905  0.00  0.00    +0.000 A 
ATOM     12  C   UNL     1      -1.125  11.979  20.058  0.00  0.00    +0.000 C 
ATOM     13  C   UNL     1      -3.122  11.869  18.580  0.00  0.00    +0.000 A 
ENDBRANCH   1  10
BRANCH   3  14
ATOM     14  C   UNL     1       3.220   8.343  17.866  0.00  0.00    +0.000 C 
BRANCH  14  15
ATOM     15  N   UNL     1       3.285   6.884  17.848  0.00  0.00    +0.000 N 
ATOM     16  N   UNL     1       2.347   6.216  18.597  0.00  0.00    +0.000 NA
ATOM     17  C   UNL     1       2.364   4.922  18.594  0.00  0.00    +0.000 A 
ATOM     18  C   UNL     1       1.344   4.232  19.473  0.00  0.00    +0.000 C 
ATOM     19  C   UNL     1       3.305   4.093  17.790  0.00  0.00    +0.000 A 
ATOM     20  C   UNL     1       3.204   2.595  17.783  0.00  0.00    +0.000 C 
ATOM     21  C   UNL     1       4.224   4.773  17.081  0.00  0.00    +0.000 A 
ATOM     22  C   UNL     1       4.297   6.255  17.137  0.00  0.00    +0.000 A 
ATOM     23  O   UNL     1       5.219   6.848  16.583  0.00  0.00    +0.000 OA
BRANCH  21  24
ATOM     24  C   UNL     1       5.162   4.105  16.242  0.00  0.00    +0.000 C 
ATOM     25  N   UNL     1       5.963   3.638  15.545  0.00  0.00    +0.000 NA
ENDBRANCH  21  24
ENDBRANCH  14  15
ENDBRANCH   3  14
TORSDOF 4
ENDMDL
MODEL 7
REMARK VINA RESULT:      -7.1      1.359      2.378
REMARK  Name = 
REMARK  8 active torsions:
REMARK  status: ('A' for Active; 'I' for Inactive)
REMARK    1  A    between atoms: C_1  and  C_2
REMARK    2  A    between atoms: C_5  and  C_6
REMARK    3  A    between atoms: C_8  and  C_9
REMARK    4  A    between atoms: C_9  and  N_10
REMARK    5  A    between atoms: C_12  and  C_13
REMARK    6  A    between atoms: C_14  and  C_15
REMARK    7  A    between atoms: C_16  and  C_17
REMARK    8  A    between atoms: C_23  and  C_24
REMARK                            x       y       z     vdW  Elec       q    Type
REMARK                         _______ _______ _______ _____ _____    ______ ____
ROOT
ATOM      1  C   UNL     1       2.062   6.182  20.136  0.00  0.00    +0.000 A 
ATOM      2  N   UNL     1       3.210   5.742  19.659  0.00  0.00    +0.000 NA
ATOM      3  C   UNL     1       3.150   4.373  19.818  0.00  0.00    +0.000 A 
ATOM      4  C   UNL     1       1.941   4.039  20.381  0.00  0.00    +0.000 A 
ATOM      5  O   UNL     1       1.238   5.184  20.596  0.00  0.00    +0.000 OA
ENDROOT
BRANCH   1  10
ATOM      6  C   UNL     1       0.047  11.559  20.916  0.00  0.00    +0.000 C 
ATOM      7  C   UNL     1       0.582  10.174  20.712  0.00  0.00    +0.000 A 
ATOM      8  C   UNL     1       0.560   9.238  21.742  0.00  0.00    +0.000 A 
ATOM      9  C   UNL     1       1.044   7.946  21.527  0.00  0.00    +0.000 A 
ATOM     10  C   UNL     1       1.560   7.549  20.278  0.00  0.00    +0.000 A 
ATOM     11  C   UNL     1       1.584   8.491  19.229  0.00  0.00    +0.000 A 
ATOM     12  C   UNL     1       2.081   8.192  17.838  0.00  0.00    +0.000 C 
ATOM     13  C   UNL     1       1.098   9.795  19.466  0.00  0.00    +0.000 A 
ENDBRANCH   1  10
BRANCH   3  14
ATOM     14  C   UNL     1       4.297   3.496  19.460  0.00  0.00    +0.000 C 
BRANCH  14  15
ATOM     15  N   UNL     1       5.131   4.141  18.449  0.00  0.00    +0.000 N 
ATOM     16  N   UNL     1       4.915   3.768  17.144  0.00  0.00    +0.000 NA
ATOM     17  C   UNL     1       5.625   4.330  16.219  0.00  0.00    +0.000 A 
ATOM     18  C   UNL     1       5.387   3.851  14.803  0.00  0.00    +0.000 C 
ATOM     19  C   UNL     1       6.635   5.397  16.461  0.00  0.00    +0.000 A 
ATOM     20  C   UNL     1       7.358   6.051  15.319  0.00  0.00    +0.000 C 
ATOM     21  C   UNL     1       6.838   5.728  17.749  0.00  0.00    +0.000 A 
ATOM     22  C   UNL     1       6.112   5.037  18.845  0.00  0.00    +0.000 A 
ATOM     23  O   UNL     1       6.403   5.266  20.016  0.00  0.00    +0.000 OA
BRANCH  21  24
ATOM     24  C   UNL     1       7.750   6.758  18.119  0.00  0.00    +0.000 C 
ATOM     25  N   UNL     1       8.429   7.654  18.404  0.00  0.00    +0.000 NA
ENDBRANCH  21  24
ENDBRANCH  14  15
ENDBRANCH   3  14
TORSDOF 4
ENDMDL
MODEL 8
REMARK VINA RESULT:      -7.1      3.546      8.504
REMARK  Name = 
REMARK  8 active torsions:
REMARK  status: ('A' for Active; 'I' for Inactive)
REMARK    1  A    between atoms: C_1  and  C_2
REMARK    2  A    between atoms: C_5  and  C_6
REMARK    3  A    between atoms: C_8  and  C_9
REMARK    4  A    between atoms: C_9  and  N_10
REMARK    5  A    between atoms: C_12  and  C_13
REMARK    6  A    between atoms: C_14  and  C_15
REMARK    7  A    between atoms: C_16  and  C_17
REMARK    8  A    between atoms: C_23  and  C_24
REMARK                            x       y       z     vdW  Elec       q    Type
REMARK                         _______ _______ _______ _____ _____    ______ ____
ROOT
ATOM      1  C   UNL     1       2.403   6.638  19.010  0.00  0.00    +0.000 A 
ATOM      2  N   UNL     1       2.461   7.611  18.123  0.00  0.00    +0.000 NA
ATOM      3  C   UNL     1       1.934   8.707  18.773  0.00  0.00    +0.000 A 
ATOM      4  C   UNL     1       1.587   8.345  20.054  0.00  0.00    +0.000 A 
ATOM      5  O   UNL     1       1.873   7.025  20.218  0.00  0.00    +0.000 OA
ENDROOT
BRANCH   1  10
ATOM      6  C   UNL     1       3.671   1.007  18.489  0.00  0.00    +0.000 C 
ATOM      7  C   UNL     1       3.351   2.467  18.612  0.00  0.00    +0.000 A 
ATOM      8  C   UNL     1       2.039   2.923  18.522  0.00  0.00    +0.000 A 
ATOM      9  C   UNL     1       1.758   4.284  18.658  0.00  0.00    +0.000 A 
ATOM     10  C   UNL     1       2.776   5.228  18.893  0.00  0.00    +0.000 A 
ATOM     11  C   UNL     1       4.107   4.773  18.988  0.00  0.00    +0.000 A 
ATOM     12  C   UNL     1       5.287   5.670  19.264  0.00  0.00    +0.000 C 
ATOM     13  C   UNL     1       4.375   3.396  18.839  0.00  0.00    +0.000 A 
ENDBRANCH   1  10
BRANCH   3  14
ATOM     14  C   UNL     1       1.757  10.013  18.083  0.00  0.00    +0.000 C 
BRANCH  14  15
ATOM     15  N   UNL     1       0.451  10.582  18.404  0.00  0.00    +0.000 N 
ATOM     16  N   UNL     1      -0.640   9.993  17.812  0.00  0.00    +0.000 NA
ATOM     17  C   UNL     1      -1.816  10.462  18.085  0.00  0.00    +0.000 A 
ATOM     18  C   UNL     1      -2.982   9.814  17.370  0.00  0.00    +0.000 C 
ATOM     19  C   UNL     1      -2.080  11.571  19.042  0.00  0.00    +0.000 A 
ATOM     20  C   UNL     1      -3.484  11.999  19.361  0.00  0.00    +0.000 C 
ATOM     21  C   UNL     1      -0.993  12.140  19.593  0.00  0.00    +0.000 A 
ATOM     22  C   UNL     1       0.376  11.695  19.230  0.00  0.00    +0.000 A 
ATOM     23  O   UNL     1       1.355  12.308  19.646  0.00  0.00    +0.000 OA
BRANCH  21  24
ATOM     24  C   UNL     1      -1.105  13.188  20.552  0.00  0.00    +0.000 C 
ATOM     25  N   UNL     1      -1.116  14.065  21.311  0.00  0.00    +0.000 NA
ENDBRANCH  21  24
ENDBRANCH  14  15
ENDBRANCH   3  14
TORSDOF 4
ENDMDL
MODEL 9
REMARK VINA RESULT:      -7.1      3.617      8.294
REMARK  Name = 
REMARK  8 active torsions:
REMARK  status: ('A' for Active; 'I' for Inactive)
REMARK    1  A    between atoms: C_1  and  C_2
REMARK    2  A    between atoms: C_5  and  C_6
REMARK    3  A    between atoms: C_8  and  C_9
REMARK    4  A    between atoms: C_9  and  N_10
REMARK    5  A    between atoms: C_12  and  C_13
REMARK    6  A    between atoms: C_14  and  C_15
REMARK    7  A    between atoms: C_16  and  C_17
REMARK    8  A    between atoms: C_23  and  C_24
REMARK                            x       y       z     vdW  Elec       q    Type
REMARK                         _______ _______ _______ _____ _____    ______ ____
ROOT
ATOM      1  C   UNL     1       2.486   7.680  18.335  0.00  0.00    +0.000 A 
ATOM      2  N   UNL     1       1.808   8.667  17.783  0.00  0.00    +0.000 NA
ATOM      3  C   UNL     1       1.161   9.277  18.837  0.00  0.00    +0.000 A 
ATOM      4  C   UNL     1       1.495   8.629  20.003  0.00  0.00    +0.000 A 
ATOM      5  O   UNL     1       2.334   7.603  19.698  0.00  0.00    +0.000 OA
ENDROOT
BRANCH   1  10
ATOM      6  C   UNL     1       5.983   3.777  15.861  0.00  0.00    +0.000 C 
ATOM      7  C   UNL     1       5.081   4.780  16.514  0.00  0.00    +0.000 A 
ATOM      8  C   UNL     1       5.370   6.141  16.466  0.00  0.00    +0.000 A 
ATOM      9  C   UNL     1       4.508   7.063  17.064  0.00  0.00    +0.000 A 
ATOM     10  C   UNL     1       3.331   6.655  17.721  0.00  0.00    +0.000 A 
ATOM     11  C   UNL     1       3.031   5.278  17.772  0.00  0.00    +0.000 A 
ATOM     12  C   UNL     1       1.794   4.708  18.417  0.00  0.00    +0.000 C 
ATOM     13  C   UNL     1       3.918   4.359  17.171  0.00  0.00    +0.000 A 
ENDBRANCH   1  10
BRANCH   3  14
ATOM     14  C   UNL     1       0.223  10.412  18.625  0.00  0.00    +0.000 C 
BRANCH  14  15
ATOM     15  N   UNL     1       0.663  11.579  19.386  0.00  0.00    +0.000 N 
ATOM     16  N   UNL     1      -0.069  11.895  20.506  0.00  0.00    +0.000 NA
ATOM     17  C   UNL     1       0.300  12.915  21.213  0.00  0.00    +0.000 A 
ATOM     18  C   UNL     1      -0.566  13.254  22.408  0.00  0.00    +0.000 C 
ATOM     19  C   UNL     1       1.500  13.750  20.929  0.00  0.00    +0.000 A 
ATOM     20  C   UNL     1       1.900  14.867  21.849  0.00  0.00    +0.000 C 
ATOM     21  C   UNL     1       2.185  13.428  19.817  0.00  0.00    +0.000 A 
ATOM     22  C   UNL     1       1.737  12.327  18.928  0.00  0.00    +0.000 A 
ATOM     23  O   UNL     1       2.303  12.132  17.855  0.00  0.00    +0.000 OA
BRANCH  21  24
ATOM     24  C   UNL     1       3.373  14.123  19.447  0.00  0.00    +0.000 C 
ATOM     25  N   UNL     1       4.291  14.740  19.097  0.00  0.00    +0.000 NA
ENDBRANCH  21  24
ENDBRANCH  14  15
ENDBRANCH   3  14
TORSDOF 4
ENDMDL
