MODEL 1
REMARK VINA RESULT:      -8.0      0.000      0.000
REMARK  Name = 
REMARK  4 active torsions:
REMARK  status: ('A' for Active; 'I' for Inactive)
REMARK    1  A    between atoms: C_2  and  C_3
REMARK    2  A    between atoms: C_2  and  C_4
REMARK    3  A    between atoms: C_10  and  C_12
REMARK    4  A    between atoms: C_19  and  C_20
REMARK                            x       y       z     vdW  Elec       q    Type
REMARK                         _______ _______ _______ _____ _____    ______ ____
ROOT
ATOM      1  C   UNL     1       5.060   5.179  16.022  0.00  0.00    +0.000 C 
ATOM      2  C   UNL     1       4.908   6.659  16.482  0.00  0.00    +0.000 C 
ATOM      3  C   UNL     1       3.820   6.565  17.516  0.00  0.00    +0.000 A 
ATOM      4  N   UNL     1       3.194   7.624  18.056  0.00  0.00    +0.000 NA
ATOM      5  C   UNL     1       2.380   7.328  19.085  0.00  0.00    +0.000 A 
ATOM      6  N   UNL     1       1.771   8.422  19.691  0.00  0.00    +0.000 N 
ATOM      7  C   UNL     1       1.085   8.366  20.882  0.00  0.00    +0.000 C 
ATOM      8  O   UNL     1       0.977   7.383  21.611  0.00  0.00    +0.000 OA
ATOM      9  N   UNL     1       2.138   6.083  19.530  0.00  0.00    +0.000 NA
ATOM     10  C   UNL     1       2.772   5.049  18.950  0.00  0.00    +0.000 A 
ATOM     11  C   UNL     1       2.487   3.684  19.489  0.00  0.00    +0.000 C 
ATOM     12  C   UNL     1       3.652   5.263  17.926  0.00  0.00    +0.000 A 
ATOM     13  C   UNL     1       4.553   4.322  17.213  0.00  0.00    +0.000 C 
ATOM     14  H   UNL     1       1.903   9.278  19.184  0.00  0.00    +0.000 HD
ENDROOT
BRANCH   7  15
ATOM     15  C   UNL     1       0.412   9.618  21.335  0.00  0.00    +0.000 A 
ATOM     16  C   UNL     1      -0.301   9.564  22.545  0.00  0.00    +0.000 A 
ATOM     17  C   UNL     1      -0.957  10.691  23.039  0.00  0.00    +0.000 A 
ATOM     18  C   UNL     1      -0.903  11.887  22.331  0.00  0.00    +0.000 A 
ATOM     19  C   UNL     1      -0.183  11.959  21.137  0.00  0.00    +0.000 A 
ATOM     20  C   UNL     1       0.478  10.830  20.637  0.00  0.00    +0.000 A 
ENDBRANCH   7  15
BRANCH   1  22
ATOM     21  C   UNL     1       6.731   4.484  14.234  0.00  0.00    +0.000 C 
ATOM     22  C   UNL     1       6.428   4.727  15.520  0.00  0.00    +0.000 C 
ATOM     23  C   UNL     1       7.484   4.527  16.581  0.00  0.00    +0.000 C 
ENDBRANCH   1  22
TORSDOF 2
ENDMDL
MODEL 2
REMARK VINA RESULT:      -8.0      0.192      1.046
REMARK  Name = 
REMARK  4 active torsions:
REMARK  status: ('A' for Active; 'I' for Inactive)
REMARK    1  A    between atoms: C_2  and  C_3
REMARK    2  A    between atoms: C_2  and  C_4
REMARK    3  A    between atoms: C_10  and  C_12
REMARK    4  A    between atoms: C_19  and  C_20
REMARK                            x       y       z     vdW  Elec       q    Type
REMARK                         _______ _______ _______ _____ _____    ______ ____
ROOT
ATOM      1  C   UNL     1       5.040   5.175  15.882  0.00  0.00    +0.000 C 
ATOM      2  C   UNL     1       4.915   6.630  16.421  0.00  0.00    +0.000 C 
ATOM      3  C   UNL     1       3.826   6.500  17.452  0.00  0.00    +0.000 A 
ATOM      4  N   UNL     1       3.220   7.539  18.049  0.00  0.00    +0.000 NA
ATOM      5  C   UNL     1       2.403   7.202  19.063  0.00  0.00    +0.000 A 
ATOM      6  N   UNL     1       1.814   8.273  19.729  0.00  0.00    +0.000 N 
ATOM      7  C   UNL     1       1.130   8.165  20.917  0.00  0.00    +0.000 C 
ATOM      8  O   UNL     1       1.004   7.145  21.591  0.00  0.00    +0.000 OA
ATOM      9  N   UNL     1       2.139   5.940  19.441  0.00  0.00    +0.000 NA
ATOM     10  C   UNL     1       2.754   4.927  18.804  0.00  0.00    +0.000 A 
ATOM     11  C   UNL     1       2.445   3.541  19.269  0.00  0.00    +0.000 C 
ATOM     12  C   UNL     1       3.636   5.180  17.791  0.00  0.00    +0.000 A 
ATOM     13  C   UNL     1       4.519   4.263  17.026  0.00  0.00    +0.000 C 
ATOM     14  H   UNL     1       1.961   9.152  19.268  0.00  0.00    +0.000 HD
ENDROOT
BRANCH   7  15
ATOM     15  C   UNL     1       0.479   9.402  21.439  0.00  0.00    +0.000 A 
ATOM     16  C   UNL     1       0.615  10.573  20.674  0.00  0.00    +0.000 A 
ATOM     17  C   UNL     1       0.037  11.771  21.091  0.00  0.00    +0.000 A 
ATOM     18  C   UNL     1      -0.691  11.809  22.276  0.00  0.00    +0.000 A 
ATOM     19  C   UNL     1      -0.849  10.650  23.036  0.00  0.00    +0.000 A 
ATOM     20  C   UNL     1      -0.270   9.444  22.621  0.00  0.00    +0.000 A 
ENDBRANCH   7  15
BRANCH   1  22
ATOM     21  C   UNL     1       6.666   4.447  14.067  0.00  0.00    +0.000 C 
ATOM     22  C   UNL     1       6.398   4.726  15.353  0.00  0.00    +0.000 C 
ATOM     23  C   UNL     1       7.488   4.575  16.387  0.00  0.00    +0.000 C 
ENDBRANCH   1  22
TORSDOF 2
ENDMDL
MODEL 3
REMARK VINA RESULT:      -7.8      0.680      1.017
REMARK  Name = 
REMARK  4 active torsions:
REMARK  status: ('A' for Active; 'I' for Inactive)
REMARK    1  A    between atoms: C_2  and  C_3
REMARK    2  A    between atoms: C_2  and  C_4
REMARK    3  A    between atoms: C_10  and  C_12
REMARK    4  A    between atoms: C_19  and  C_20
REMARK                            x       y       z     vdW  Elec       q    Type
REMARK                         _______ _______ _______ _____ _____    ______ ____
ROOT
ATOM      1  C   UNL     1       4.984   5.087  16.596  0.00  0.00    +0.000 C 
ATOM      2  C   UNL     1       4.679   6.607  16.729  0.00  0.00    +0.000 C 
ATOM      3  C   UNL     1       3.648   6.635  17.825  0.00  0.00    +0.000 A 
ATOM      4  N   UNL     1       2.924   7.716  18.157  0.00  0.00    +0.000 NA
ATOM      5  C   UNL     1       2.189   7.575  19.274  0.00  0.00    +0.000 A 
ATOM      6  N   UNL     1       1.480   8.708  19.663  0.00  0.00    +0.000 N 
ATOM      7  C   UNL     1       0.850   8.850  20.878  0.00  0.00    +0.000 C 
ATOM      8  O   UNL     1       0.884   8.049  21.810  0.00  0.00    +0.000 OA
ATOM      9  N   UNL     1       2.110   6.444  19.996  0.00  0.00    +0.000 NA
ATOM     10  C   UNL     1       2.838   5.378  19.619  0.00  0.00    +0.000 A 
ATOM     11  C   UNL     1       2.734   4.148  20.460  0.00  0.00    +0.000 C 
ATOM     12  C   UNL     1       3.648   5.448  18.520  0.00  0.00    +0.000 A 
ATOM     13  C   UNL     1       4.626   4.471  17.975  0.00  0.00    +0.000 C 
ATOM     14  H   UNL     1       1.492   9.436  18.973  0.00  0.00    +0.000 HD
ENDROOT
BRANCH   7  15
ATOM     15  C   UNL     1       0.053  10.094  21.086  0.00  0.00    +0.000 A 
ATOM     16  C   UNL     1      -0.406  10.353  22.389  0.00  0.00    +0.000 A 
ATOM     17  C   UNL     1      -1.157  11.494  22.668  0.00  0.00    +0.000 A 
ATOM     18  C   UNL     1      -1.450  12.394  21.648  0.00  0.00    +0.000 A 
ATOM     19  C   UNL     1      -0.985  12.157  20.353  0.00  0.00    +0.000 A 
ATOM     20  C   UNL     1      -0.230  11.012  20.069  0.00  0.00    +0.000 A 
ENDBRANCH   7  15
BRANCH   1  22
ATOM     21  C   UNL     1       7.458   4.588  16.911  0.00  0.00    +0.000 C 
ATOM     22  C   UNL     1       6.375   4.679  16.122  0.00  0.00    +0.000 C 
ATOM     23  C   UNL     1       6.506   4.386  14.646  0.00  0.00    +0.000 C 
ENDBRANCH   1  22
TORSDOF 2
ENDMDL
MODEL 4
REMARK VINA RESULT:      -7.7      0.694      1.428
REMARK  Name = 
REMARK  4 active torsions:
REMARK  status: ('A' for Active; 'I' for Inactive)
REMARK    1  A    between atoms: C_2  and  C_3
REMARK    2  A    between atoms: C_2  and  C_4
REMARK    3  A    between atoms: C_10  and  C_12
REMARK    4  A    between atoms: C_19  and  C_20
REMARK                            x       y       z     vdW  Elec       q    Type
REMARK                         _______ _______ _______ _____ _____    ______ ____
ROOT
ATOM      1  C   UNL     1       4.909   5.032  16.534  0.00  0.00    +0.000 C 
ATOM      2  C   UNL     1       4.645   6.560  16.671  0.00  0.00    +0.000 C 
ATOM      3  C   UNL     1       3.632   6.615  17.782  0.00  0.00    +0.000 A 
ATOM      4  N   UNL     1       2.942   7.715  18.124  0.00  0.00    +0.000 NA
ATOM      5  C   UNL     1       2.220   7.593  19.253  0.00  0.00    +0.000 A 
ATOM      6  N   UNL     1       1.547   8.744  19.652  0.00  0.00    +0.000 N 
ATOM      7  C   UNL     1       0.940   8.902  20.875  0.00  0.00    +0.000 C 
ATOM      8  O   UNL     1       0.967   8.101  21.807  0.00  0.00    +0.000 OA
ATOM      9  N   UNL     1       2.123   6.464  19.976  0.00  0.00    +0.000 NA
ATOM     10  C   UNL     1       2.817   5.380  19.588  0.00  0.00    +0.000 A 
ATOM     11  C   UNL     1       2.693   4.152  20.432  0.00  0.00    +0.000 C 
ATOM     12  C   UNL     1       3.612   5.428  18.477  0.00  0.00    +0.000 A 
ATOM     13  C   UNL     1       4.555   4.426  17.919  0.00  0.00    +0.000 C 
ATOM     14  H   UNL     1       1.568   9.472  18.961  0.00  0.00    +0.000 HD
ENDROOT
BRANCH   7  15
ATOM     15  C   UNL     1       0.179  10.166  21.095  0.00  0.00    +0.000 A 
ATOM     16  C   UNL     1      -0.048  10.984  19.976  0.00  0.00    +0.000 A 
ATOM     17  C   UNL     1      -0.752  12.182  20.096  0.00  0.00    +0.000 A 
ATOM     18  C   UNL     1      -1.243  12.571  21.338  0.00  0.00    +0.000 A 
ATOM     19  C   UNL     1      -1.040  11.759  22.455  0.00  0.00    +0.000 A 
ATOM     20  C   UNL     1      -0.334  10.556  22.338  0.00  0.00    +0.000 A 
ENDBRANCH   7  15
BRANCH   1  22
ATOM     21  C   UNL     1       7.419   4.679  16.748  0.00  0.00    +0.000 C 
ATOM     22  C   UNL     1       6.282   4.588  16.039  0.00  0.00    +0.000 C 
ATOM     23  C   UNL     1       6.326   4.032  14.635  0.00  0.00    +0.000 C 
ENDBRANCH   1  22
TORSDOF 2
ENDMDL
MODEL 5
REMARK VINA RESULT:      -7.7      2.176      8.381
REMARK  Name = 
REMARK  4 active torsions:
REMARK  status: ('A' for Active; 'I' for Inactive)
REMARK    1  A    between atoms: C_2  and  C_3
REMARK    2  A    between atoms: C_2  and  C_4
REMARK    3  A    between atoms: C_10  and  C_12
REMARK    4  A    between atoms: C_19  and  C_20
REMARK                            x       y       z     vdW  Elec       q    Type
REMARK                         _______ _______ _______ _____ _____    ______ ____
ROOT
ATOM      1  C   UNL     1       1.447   8.551  20.484  0.00  0.00    +0.000 C 
ATOM      2  C   UNL     1       1.830   8.709  18.983  0.00  0.00    +0.000 C 
ATOM      3  C   UNL     1       2.654   7.475  18.729  0.00  0.00    +0.000 A 
ATOM      4  N   UNL     1       3.383   7.266  17.621  0.00  0.00    +0.000 NA
ATOM      5  C   UNL     1       3.900   6.028  17.517  0.00  0.00    +0.000 A 
ATOM      6  N   UNL     1       4.608   5.779  16.345  0.00  0.00    +0.000 N 
ATOM      7  C   UNL     1       5.024   4.532  15.941  0.00  0.00    +0.000 C 
ATOM      8  O   UNL     1       4.772   3.467  16.500  0.00  0.00    +0.000 OA
ATOM      9  N   UNL     1       3.771   5.069  18.450  0.00  0.00    +0.000 NA
ATOM     10  C   UNL     1       3.047   5.326  19.553  0.00  0.00    +0.000 A 
ATOM     11  C   UNL     1       2.916   4.225  20.555  0.00  0.00    +0.000 C 
ATOM     12  C   UNL     1       2.448   6.543  19.720  0.00  0.00    +0.000 A 
ATOM     13  C   UNL     1       1.514   7.026  20.770  0.00  0.00    +0.000 C 
ATOM     14  H   UNL     1       4.767   6.605  15.799  0.00  0.00    +0.000 HD
ENDROOT
BRANCH   7  15
ATOM     15  C   UNL     1       5.858   4.464  14.706  0.00  0.00    +0.000 A 
ATOM     16  C   UNL     1       5.385   3.662  13.654  0.00  0.00    +0.000 A 
ATOM     17  C   UNL     1       6.105   3.545  12.465  0.00  0.00    +0.000 A 
ATOM     18  C   UNL     1       7.303   4.236  12.313  0.00  0.00    +0.000 A 
ATOM     19  C   UNL     1       7.775   5.050  13.344  0.00  0.00    +0.000 A 
ATOM     20  C   UNL     1       7.055   5.171  14.539  0.00  0.00    +0.000 A 
ENDBRANCH   7  15
BRANCH   1  22
ATOM     21  C   UNL     1      -0.564  10.094  20.269  0.00  0.00    +0.000 C 
ATOM     22  C   UNL     1       0.134   9.172  20.952  0.00  0.00    +0.000 C 
ATOM     23  C   UNL     1      -0.370   8.705  22.297  0.00  0.00    +0.000 C 
ENDBRANCH   1  22
TORSDOF 2
ENDMDL
MODEL 6
REMARK VINA RESULT:      -7.6      2.257      8.445
REMARK  Name = 
REMARK  4 active torsions:
REMARK  status: ('A' for Active; 'I' for Inactive)
REMARK    1  A    between atoms: C_2  and  C_3
REMARK    2  A    between atoms: C_2  and  C_4
REMARK    3  A    between atoms: C_10  and  C_12
REMARK    4  A    between atoms: C_19  and  C_20
REMARK                            x       y       z     vdW  Elec       q    Type
REMARK                         _______ _______ _______ _____ _____    ______ ____
ROOT
ATOM      1  C   UNL     1       1.561   8.409  20.411  0.00  0.00    +0.000 C 
ATOM      2  C   UNL     1       1.904   8.575  18.902  0.00  0.00    +0.000 C 
ATOM      3  C   UNL     1       2.739   7.354  18.625  0.00  0.00    +0.000 A 
ATOM      4  N   UNL     1       3.444   7.158  17.498  0.00  0.00    +0.000 NA
ATOM      5  C   UNL     1       3.976   5.928  17.379  0.00  0.00    +0.000 A 
ATOM      6  N   UNL     1       4.658   5.692  16.190  0.00  0.00    +0.000 N 
ATOM      7  C   UNL     1       5.083   4.452  15.773  0.00  0.00    +0.000 C 
ATOM      8  O   UNL     1       4.861   3.382  16.336  0.00  0.00    +0.000 OA
ATOM      9  N   UNL     1       3.885   4.966  18.313  0.00  0.00    +0.000 NA
ATOM     10  C   UNL     1       3.185   5.210  19.435  0.00  0.00    +0.000 A 
ATOM     11  C   UNL     1       3.096   4.106  20.438  0.00  0.00    +0.000 C 
ATOM     12  C   UNL     1       2.573   6.418  19.619  0.00  0.00    +0.000 A 
ATOM     13  C   UNL     1       1.658   6.885  20.693  0.00  0.00    +0.000 C 
ATOM     14  H   UNL     1       4.792   6.521  15.641  0.00  0.00    +0.000 HD
ENDROOT
BRANCH   7  15
ATOM     15  C   UNL     1       5.887   4.398  14.517  0.00  0.00    +0.000 A 
ATOM     16  C   UNL     1       7.043   5.195  14.458  0.00  0.00    +0.000 A 
ATOM     17  C   UNL     1       7.849   5.200  13.320  0.00  0.00    +0.000 A 
ATOM     18  C   UNL     1       7.512   4.403  12.231  0.00  0.00    +0.000 A 
ATOM     19  C   UNL     1       6.376   3.594  12.284  0.00  0.00    +0.000 A 
ATOM     20  C   UNL     1       5.564   3.584  13.424  0.00  0.00    +0.000 A 
ENDBRANCH   7  15
BRANCH   1  22
ATOM     21  C   UNL     1      -0.465   8.533  21.945  0.00  0.00    +0.000 C 
ATOM     22  C   UNL     1       0.251   9.009  20.913  0.00  0.00    +0.000 C 
ATOM     23  C   UNL     1      -0.253  10.213  20.153  0.00  0.00    +0.000 C 
ENDBRANCH   1  22
TORSDOF 2
ENDMDL
MODEL 7
REMARK VINA RESULT:      -7.6      1.081      1.323
REMARK  Name = 
REMARK  4 active torsions:
REMARK  status: ('A' for Active; 'I' for Inactive)
REMARK    1  A    between atoms: C_2  and  C_3
REMARK    2  A    between atoms: C_2  and  C_4
REMARK    3  A    between atoms: C_10  and  C_12
REMARK    4  A    between atoms: C_19  and  C_20
REMARK                            x       y       z     vdW  Elec       q    Type
REMARK                         _______ _______ _______ _____ _____    ______ ____
ROOT
ATOM      1  C   UNL     1       5.164   5.196  16.501  0.00  0.00    +0.000 C 
ATOM      2  C   UNL     1       4.829   6.716  16.467  0.00  0.00    +0.000 C 
ATOM      3  C   UNL     1       3.765   6.836  17.524  0.00  0.00    +0.000 A 
ATOM      4  N   UNL     1       3.012   7.931  17.721  0.00  0.00    +0.000 NA
ATOM      5  C   UNL     1       2.246   7.891  18.826  0.00  0.00    +0.000 A 
ATOM      6  N   UNL     1       1.507   9.043  19.075  0.00  0.00    +0.000 N 
ATOM      7  C   UNL     1       0.838   9.297  20.250  0.00  0.00    +0.000 C 
ATOM      8  O   UNL     1       0.857   8.598  21.260  0.00  0.00    +0.000 OA
ATOM      9  N   UNL     1       2.165   6.839  19.659  0.00  0.00    +0.000 NA
ATOM     10  C   UNL     1       2.923   5.755  19.415  0.00  0.00    +0.000 A 
ATOM     11  C   UNL     1       2.814   4.616  20.376  0.00  0.00    +0.000 C 
ATOM     12  C   UNL     1       3.764   5.727  18.339  0.00  0.00    +0.000 A 
ATOM     13  C   UNL     1       4.775   4.719  17.927  0.00  0.00    +0.000 C 
ATOM     14  H   UNL     1       1.528   9.697  18.314  0.00  0.00    +0.000 HD
ENDROOT
BRANCH   7  15
ATOM     15  C   UNL     1       0.014  10.539  20.305  0.00  0.00    +0.000 A 
ATOM     16  C   UNL     1       0.357  11.496  21.275  0.00  0.00    +0.000 A 
ATOM     17  C   UNL     1      -0.363  12.685  21.392  0.00  0.00    +0.000 A 
ATOM     18  C   UNL     1      -1.430  12.933  20.535  0.00  0.00    +0.000 A 
ATOM     19  C   UNL     1      -1.770  11.998  19.555  0.00  0.00    +0.000 A 
ATOM     20  C   UNL     1      -1.050  10.804  19.434  0.00  0.00    +0.000 A 
ENDBRANCH   7  15
BRANCH   1  22
ATOM     21  C   UNL     1       6.993   4.557  14.853  0.00  0.00    +0.000 C 
ATOM     22  C   UNL     1       6.576   4.770  16.112  0.00  0.00    +0.000 C 
ATOM     23  C   UNL     1       7.539   4.560  17.257  0.00  0.00    +0.000 C 
ENDBRANCH   1  22
TORSDOF 2
ENDMDL
MODEL 8
REMARK VINA RESULT:      -7.5      1.959      8.295
REMARK  Name = 
REMARK  4 active torsions:
REMARK  status: ('A' for Active; 'I' for Inactive)
REMARK    1  A    between atoms: C_2  and  C_3
REMARK    2  A    between atoms: C_2  and  C_4
REMARK    3  A    between atoms: C_10  and  C_12
REMARK    4  A    between atoms: C_19  and  C_20
REMARK                            x       y       z     vdW  Elec       q    Type
REMARK                         _______ _______ _______ _____ _____    ______ ____
ROOT
ATOM      1  C   UNL     1      -1.385  11.745  19.448  0.00  0.00    +0.000 C 
ATOM      2  C   UNL     1      -0.994  10.900  18.201  0.00  0.00    +0.000 C 
ATOM      3  C   UNL     1       0.117  10.035  18.732  0.00  0.00    +0.000 A 
ATOM      4  N   UNL     1       0.918   9.275  17.967  0.00  0.00    +0.000 NA
ATOM      5  C   UNL     1       1.727   8.449  18.654  0.00  0.00    +0.000 A 
ATOM      6  N   UNL     1       2.519   7.613  17.873  0.00  0.00    +0.000 N 
ATOM      7  C   UNL     1       3.245   6.553  18.363  0.00  0.00    +0.000 C 
ATOM      8  O   UNL     1       3.241   6.145  19.522  0.00  0.00    +0.000 OA
ATOM      9  N   UNL     1       1.802   8.398  19.995  0.00  0.00    +0.000 NA
ATOM     10  C   UNL     1       0.994   9.189  20.724  0.00  0.00    +0.000 A 
ATOM     11  C   UNL     1       1.099   9.086  22.211  0.00  0.00    +0.000 C 
ATOM     12  C   UNL     1       0.109  10.028  20.108  0.00  0.00    +0.000 A 
ATOM     13  C   UNL     1      -0.956  10.896  20.675  0.00  0.00    +0.000 C 
ATOM     14  H   UNL     1       2.492   7.844  16.897  0.00  0.00    +0.000 HD
ENDROOT
BRANCH   7  15
ATOM     15  C   UNL     1       4.117   5.825  17.396  0.00  0.00    +0.000 A 
ATOM     16  C   UNL     1       4.064   4.421  17.411  0.00  0.00    +0.000 A 
ATOM     17  C   UNL     1       4.847   3.666  16.539  0.00  0.00    +0.000 A 
ATOM     18  C   UNL     1       5.688   4.308  15.636  0.00  0.00    +0.000 A 
ATOM     19  C   UNL     1       5.737   5.703  15.597  0.00  0.00    +0.000 A 
ATOM     20  C   UNL     1       4.952   6.464  16.471  0.00  0.00    +0.000 A 
ENDBRANCH   7  15
BRANCH   1  22
ATOM     21  C   UNL     1      -3.297  13.029  20.529  0.00  0.00    +0.000 C 
ATOM     22  C   UNL     1      -2.827  12.231  19.555  0.00  0.00    +0.000 C 
ATOM     23  C   UNL     1      -3.768  11.739  18.481  0.00  0.00    +0.000 C 
ENDBRANCH   1  22
TORSDOF 2
ENDMDL
MODEL 9
REMARK VINA RESULT:      -7.4      1.900      8.335
REMARK  Name = 
REMARK  4 active torsions:
REMARK  status: ('A' for Active; 'I' for Inactive)
REMARK    1  A    between atoms: C_2  and  C_3
REMARK    2  A    between atoms: C_2  and  C_4
REMARK    3  A    between atoms: C_10  and  C_12
REMARK    4  A    between atoms: C_19  and  C_20
REMARK                            x       y       z     vdW  Elec       q    Type
REMARK                         _______ _______ _______ _____ _____    ______ ____
ROOT
ATOM      1  C   UNL     1      -1.226  11.808  19.520  0.00  0.00    +0.000 C 
ATOM      2  C   UNL     1      -0.856  10.980  18.254  0.00  0.00    +0.000 C 
ATOM      3  C   UNL     1       0.227  10.071  18.768  0.00  0.00    +0.000 A 
ATOM      4  N   UNL     1       1.007   9.305  17.988  0.00  0.00    +0.000 NA
ATOM      5  C   UNL     1       1.789   8.439  18.657  0.00  0.00    +0.000 A 
ATOM      6  N   UNL     1       2.559   7.598  17.859  0.00  0.00    +0.000 N 
ATOM      7  C   UNL     1       3.251   6.506  18.326  0.00  0.00    +0.000 C 
ATOM      8  O   UNL     1       3.231   6.072  19.476  0.00  0.00    +0.000 OA
ATOM      9  N   UNL     1       1.858   8.355  19.997  0.00  0.00    +0.000 NA
ATOM     10  C   UNL     1       1.072   9.152  20.741  0.00  0.00    +0.000 A 
ATOM     11  C   UNL     1       1.169   9.012  22.226  0.00  0.00    +0.000 C 
ATOM     12  C   UNL     1       0.214  10.031  20.143  0.00  0.00    +0.000 A 
ATOM     13  C   UNL     1      -0.826  10.918  20.727  0.00  0.00    +0.000 C 
ATOM     14  H   UNL     1       2.541   7.853  16.888  0.00  0.00    +0.000 HD
ENDROOT
BRANCH   7  15
ATOM     15  C   UNL     1       4.105   5.775  17.344  0.00  0.00    +0.000 A 
ATOM     16  C   UNL     1       4.800   6.545  16.397  0.00  0.00    +0.000 A 
ATOM     17  C   UNL     1       5.620   5.939  15.446  0.00  0.00    +0.000 A 
ATOM     18  C   UNL     1       5.759   4.554  15.437  0.00  0.00    +0.000 A 
ATOM     19  C   UNL     1       5.087   3.779  16.384  0.00  0.00    +0.000 A 
ATOM     20  C   UNL     1       4.264   4.384  17.341  0.00  0.00    +0.000 A 
ENDBRANCH   7  15
BRANCH   1  22
ATOM     21  C   UNL     1      -3.076  13.209  20.562  0.00  0.00    +0.000 C 
ATOM     22  C   UNL     1      -2.653  12.334  19.634  0.00  0.00    +0.000 C 
ATOM     23  C   UNL     1      -3.637  11.790  18.625  0.00  0.00    +0.000 C 
ENDBRANCH   1  22
TORSDOF 2
ENDMDL
