MODEL 1
REMARK VINA RESULT:      -8.2      0.000      0.000
REMARK  Name = 
REMARK  4 active torsions:
REMARK  status: ('A' for Active; 'I' for Inactive)
REMARK    1  A    between atoms: C_1  and  N_2
REMARK    2  A    between atoms: N_2  and  C_3
REMARK    3  A    between atoms: C_3  and  C_4
REMARK    4  A    between atoms: C_10  and  C_12
REMARK                            x       y       z     vdW  Elec       q    Type
REMARK                         _______ _______ _______ _____ _____    ______ ____
ROOT
ATOM      1  C   UNL     1       5.610   5.333  19.626  0.00  0.00    +0.000 C 
ATOM      2  N   UNL     1       5.489   5.206  18.176  0.00  0.00    +0.000 N 
ATOM      3  C   UNL     1       6.626   4.730  17.519  0.00  0.00    +0.000 C 
ATOM      4  O   UNL     1       7.609   4.421  18.206  0.00  0.00    +0.000 OA
ENDROOT
BRANCH   3   5
ATOM      5  C   UNL     1       6.736   4.648  16.069  0.00  0.00    +0.000 A 
ATOM      6  C   UNL     1       6.005   3.744  15.307  0.00  0.00    +0.000 A 
ATOM      7  C   UNL     1       6.327   3.903  13.942  0.00  0.00    +0.000 A 
ATOM      8  C   UNL     1       5.897   3.265  12.765  0.00  0.00    +0.000 A 
ATOM      9  C   UNL     1       6.453   3.645  11.543  0.00  0.00    +0.000 A 
ATOM     10  C   UNL     1       7.421   4.648  11.491  0.00  0.00    +0.000 A 
ATOM     11  C   UNL     1       7.841   5.316  12.649  0.00  0.00    +0.000 A 
ATOM     12  C   UNL     1       7.271   4.920  13.870  0.00  0.00    +0.000 A 
ATOM     13  N   UNL     1       7.451   5.397  15.157  0.00  0.00    +0.000 N 
ATOM     14  H   UNL     1       8.004   6.211  15.370  0.00  0.00    +0.000 HD
ENDBRANCH   3   5
BRANCH   2  15
ATOM     15  C   UNL     1       4.167   5.428  17.601  0.00  0.00    +0.000 C 
BRANCH  15  16
ATOM     16  C   UNL     1       3.122   4.422  18.036  0.00  0.00    +0.000 A 
ATOM     17  C   UNL     1       2.135   4.725  18.987  0.00  0.00    +0.000 A 
ATOM     18  C   UNL     1       1.176   3.785  19.356  0.00  0.00    +0.000 A 
ATOM     19  C   UNL     1       1.180   2.522  18.775  0.00  0.00    +0.000 A 
ATOM     20  C   UNL     1       2.139   2.205  17.814  0.00  0.00    +0.000 A 
ATOM     21  C   UNL     1       3.097   3.151  17.439  0.00  0.00    +0.000 A 
ENDBRANCH  15  16
ENDBRANCH   2  15
TORSDOF 3
ENDMDL
MODEL 2
REMARK VINA RESULT:      -8.2      0.298      1.069
REMARK  Name = 
REMARK  4 active torsions:
REMARK  status: ('A' for Active; 'I' for Inactive)
REMARK    1  A    between atoms: C_1  and  N_2
REMARK    2  A    between atoms: N_2  and  C_3
REMARK    3  A    between atoms: C_3  and  C_4
REMARK    4  A    between atoms: C_10  and  C_12
REMARK                            x       y       z     vdW  Elec       q    Type
REMARK                         _______ _______ _______ _____ _____    ______ ____
ROOT
ATOM      1  C   UNL     1       5.695   5.290  19.617  0.00  0.00    +0.000 C 
ATOM      2  N   UNL     1       5.562   5.178  18.167  0.00  0.00    +0.000 N 
ATOM      3  C   UNL     1       6.696   4.716  17.496  0.00  0.00    +0.000 C 
ATOM      4  O   UNL     1       7.687   4.406  18.171  0.00  0.00    +0.000 OA
ENDROOT
BRANCH   3   5
ATOM      5  C   UNL     1       6.795   4.650  16.044  0.00  0.00    +0.000 A 
ATOM      6  C   UNL     1       6.045   3.765  15.277  0.00  0.00    +0.000 A 
ATOM      7  C   UNL     1       6.359   3.937  13.911  0.00  0.00    +0.000 A 
ATOM      8  C   UNL     1       5.912   3.319  12.730  0.00  0.00    +0.000 A 
ATOM      9  C   UNL     1       6.464   3.707  11.508  0.00  0.00    +0.000 A 
ATOM     10  C   UNL     1       7.445   4.698  11.461  0.00  0.00    +0.000 A 
ATOM     11  C   UNL     1       7.883   5.345  12.624  0.00  0.00    +0.000 A 
ATOM     12  C   UNL     1       7.316   4.942  13.844  0.00  0.00    +0.000 A 
ATOM     13  N   UNL     1       7.512   5.401  15.135  0.00  0.00    +0.000 N 
ATOM     14  H   UNL     1       8.078   6.204  15.354  0.00  0.00    +0.000 HD
ENDBRANCH   3   5
BRANCH   2  15
ATOM     15  C   UNL     1       4.234   5.398  17.606  0.00  0.00    +0.000 C 
BRANCH  15  16
ATOM     16  C   UNL     1       3.243   4.289  17.897  0.00  0.00    +0.000 A 
ATOM     17  C   UNL     1       3.553   2.934  17.702  0.00  0.00    +0.000 A 
ATOM     18  C   UNL     1       2.628   1.934  17.994  0.00  0.00    +0.000 A 
ATOM     19  C   UNL     1       1.375   2.270  18.494  0.00  0.00    +0.000 A 
ATOM     20  C   UNL     1       1.053   3.608  18.714  0.00  0.00    +0.000 A 
ATOM     21  C   UNL     1       1.984   4.611  18.427  0.00  0.00    +0.000 A 
ENDBRANCH  15  16
ENDBRANCH   2  15
TORSDOF 3
ENDMDL
MODEL 3
REMARK VINA RESULT:      -7.8      1.693      5.876
REMARK  Name = 
REMARK  4 active torsions:
REMARK  status: ('A' for Active; 'I' for Inactive)
REMARK    1  A    between atoms: C_1  and  N_2
REMARK    2  A    between atoms: N_2  and  C_3
REMARK    3  A    between atoms: C_3  and  C_4
REMARK    4  A    between atoms: C_10  and  C_12
REMARK                            x       y       z     vdW  Elec       q    Type
REMARK                         _______ _______ _______ _____ _____    ______ ____
ROOT
ATOM      1  C   UNL     1       8.273   7.009  18.491  0.00  0.00    +0.000 C 
ATOM      2  N   UNL     1       6.977   6.370  18.283  0.00  0.00    +0.000 N 
ATOM      3  C   UNL     1       6.563   5.508  19.301  0.00  0.00    +0.000 C 
ATOM      4  O   UNL     1       7.293   5.388  20.295  0.00  0.00    +0.000 OA
ENDROOT
BRANCH   3   5
ATOM      5  C   UNL     1       5.360   4.692  19.219  0.00  0.00    +0.000 A 
ATOM      6  C   UNL     1       4.092   5.189  19.495  0.00  0.00    +0.000 A 
ATOM      7  C   UNL     1       3.133   4.166  19.331  0.00  0.00    +0.000 A 
ATOM      8  C   UNL     1       1.736   4.115  19.478  0.00  0.00    +0.000 A 
ATOM      9  C   UNL     1       1.073   2.905  19.268  0.00  0.00    +0.000 A 
ATOM     10  C   UNL     1       1.788   1.762  18.912  0.00  0.00    +0.000 A 
ATOM     11  C   UNL     1       3.178   1.799  18.732  0.00  0.00    +0.000 A 
ATOM     12  C   UNL     1       3.828   3.025  18.948  0.00  0.00    +0.000 A 
ATOM     13  N   UNL     1       5.159   3.385  18.823  0.00  0.00    +0.000 N 
ATOM     14  H   UNL     1       5.863   2.769  18.451  0.00  0.00    +0.000 HD
ENDBRANCH   3   5
BRANCH   2  15
ATOM     15  C   UNL     1       6.195   6.819  17.137  0.00  0.00    +0.000 C 
BRANCH  15  16
ATOM     16  C   UNL     1       6.160   5.838  15.983  0.00  0.00    +0.000 A 
ATOM     17  C   UNL     1       7.292   5.553  15.204  0.00  0.00    +0.000 A 
ATOM     18  C   UNL     1       7.235   4.633  14.159  0.00  0.00    +0.000 A 
ATOM     19  C   UNL     1       6.045   3.974  13.877  0.00  0.00    +0.000 A 
ATOM     20  C   UNL     1       4.913   4.226  14.651  0.00  0.00    +0.000 A 
ATOM     21  C   UNL     1       4.972   5.144  15.703  0.00  0.00    +0.000 A 
ENDBRANCH  15  16
ENDBRANCH   2  15
TORSDOF 3
ENDMDL
MODEL 4
REMARK VINA RESULT:      -7.8      3.083      6.486
REMARK  Name = 
REMARK  4 active torsions:
REMARK  status: ('A' for Active; 'I' for Inactive)
REMARK    1  A    between atoms: C_1  and  N_2
REMARK    2  A    between atoms: N_2  and  C_3
REMARK    3  A    between atoms: C_3  and  C_4
REMARK    4  A    between atoms: C_10  and  C_12
REMARK                            x       y       z     vdW  Elec       q    Type
REMARK                         _______ _______ _______ _____ _____    ______ ____
ROOT
ATOM      1  C   UNL     1       5.261   4.026  16.751  0.00  0.00    +0.000 C 
ATOM      2  N   UNL     1       4.121   4.713  17.355  0.00  0.00    +0.000 N 
ATOM      3  C   UNL     1       4.321   6.063  17.646  0.00  0.00    +0.000 C 
ATOM      4  O   UNL     1       5.409   6.571  17.339  0.00  0.00    +0.000 OA
ENDROOT
BRANCH   3   5
ATOM      5  C   UNL     1       3.347   6.881  18.355  0.00  0.00    +0.000 A 
ATOM      6  C   UNL     1       2.680   7.945  17.759  0.00  0.00    +0.000 A 
ATOM      7  C   UNL     1       1.805   8.542  18.693  0.00  0.00    +0.000 A 
ATOM      8  C   UNL     1       0.914   9.627  18.630  0.00  0.00    +0.000 A 
ATOM      9  C   UNL     1       0.203   9.992  19.774  0.00  0.00    +0.000 A 
ATOM     10  C   UNL     1       0.373   9.286  20.964  0.00  0.00    +0.000 A 
ATOM     11  C   UNL     1       1.235   8.183  21.040  0.00  0.00    +0.000 A 
ATOM     12  C   UNL     1       1.942   7.830  19.879  0.00  0.00    +0.000 A 
ATOM     13  N   UNL     1       2.826   6.795  19.630  0.00  0.00    +0.000 N 
ATOM     14  H   UNL     1       3.018   6.063  20.295  0.00  0.00    +0.000 HD
ENDBRANCH   3   5
BRANCH   2  15
ATOM     15  C   UNL     1       2.869   3.970  17.434  0.00  0.00    +0.000 C 
BRANCH  15  16
ATOM     16  C   UNL     1       2.496   3.524  18.833  0.00  0.00    +0.000 A 
ATOM     17  C   UNL     1       3.441   3.017  19.738  0.00  0.00    +0.000 A 
ATOM     18  C   UNL     1       3.072   2.630  21.024  0.00  0.00    +0.000 A 
ATOM     19  C   UNL     1       1.750   2.751  21.435  0.00  0.00    +0.000 A 
ATOM     20  C   UNL     1       0.798   3.272  20.560  0.00  0.00    +0.000 A 
ATOM     21  C   UNL     1       1.169   3.665  19.271  0.00  0.00    +0.000 A 
ENDBRANCH  15  16
ENDBRANCH   2  15
TORSDOF 3
ENDMDL
MODEL 5
REMARK VINA RESULT:      -7.8      1.654      5.887
REMARK  Name = 
REMARK  4 active torsions:
REMARK  status: ('A' for Active; 'I' for Inactive)
REMARK    1  A    between atoms: C_1  and  N_2
REMARK    2  A    between atoms: N_2  and  C_3
REMARK    3  A    between atoms: C_3  and  C_4
REMARK    4  A    between atoms: C_10  and  C_12
REMARK                            x       y       z     vdW  Elec       q    Type
REMARK                         _______ _______ _______ _____ _____    ______ ____
ROOT
ATOM      1  C   UNL     1       8.203   6.960  18.428  0.00  0.00    +0.000 C 
ATOM      2  N   UNL     1       6.905   6.319  18.235  0.00  0.00    +0.000 N 
ATOM      3  C   UNL     1       6.491   5.482  19.274  0.00  0.00    +0.000 C 
ATOM      4  O   UNL     1       7.220   5.385  20.270  0.00  0.00    +0.000 OA
ENDROOT
BRANCH   3   5
ATOM      5  C   UNL     1       5.286   4.667  19.211  0.00  0.00    +0.000 A 
ATOM      6  C   UNL     1       4.022   5.166  19.505  0.00  0.00    +0.000 A 
ATOM      7  C   UNL     1       3.060   4.143  19.357  0.00  0.00    +0.000 A 
ATOM      8  C   UNL     1       1.666   4.093  19.525  0.00  0.00    +0.000 A 
ATOM      9  C   UNL     1       0.999   2.883  19.327  0.00  0.00    +0.000 A 
ATOM     10  C   UNL     1       1.709   1.739  18.964  0.00  0.00    +0.000 A 
ATOM     11  C   UNL     1       3.095   1.774  18.764  0.00  0.00    +0.000 A 
ATOM     12  C   UNL     1       3.749   3.000  18.967  0.00  0.00    +0.000 A 
ATOM     13  N   UNL     1       5.078   3.359  18.822  0.00  0.00    +0.000 N 
ATOM     14  H   UNL     1       5.776   2.742  18.441  0.00  0.00    +0.000 HD
ENDBRANCH   3   5
BRANCH   2  15
ATOM     15  C   UNL     1       6.124   6.742  17.079  0.00  0.00    +0.000 C 
BRANCH  15  16
ATOM     16  C   UNL     1       6.109   5.745  15.939  0.00  0.00    +0.000 A 
ATOM     17  C   UNL     1       4.987   4.955  15.646  0.00  0.00    +0.000 A 
ATOM     18  C   UNL     1       4.996   4.057  14.580  0.00  0.00    +0.000 A 
ATOM     19  C   UNL     1       6.126   3.937  13.781  0.00  0.00    +0.000 A 
ATOM     20  C   UNL     1       7.245   4.727  14.041  0.00  0.00    +0.000 A 
ATOM     21  C   UNL     1       7.234   5.632  15.106  0.00  0.00    +0.000 A 
ENDBRANCH  15  16
ENDBRANCH   2  15
TORSDOF 3
ENDMDL
MODEL 6
REMARK VINA RESULT:      -7.8      2.330      4.100
REMARK  Name = 
REMARK  4 active torsions:
REMARK  status: ('A' for Active; 'I' for Inactive)
REMARK    1  A    between atoms: C_1  and  N_2
REMARK    2  A    between atoms: N_2  and  C_3
REMARK    3  A    between atoms: C_3  and  C_4
REMARK    4  A    between atoms: C_10  and  C_12
REMARK                            x       y       z     vdW  Elec       q    Type
REMARK                         _______ _______ _______ _____ _____    ______ ____
ROOT
ATOM      1  C   UNL     1       2.342   2.499  21.610  0.00  0.00    +0.000 C 
ATOM      2  N   UNL     1       2.750   3.066  20.328  0.00  0.00    +0.000 N 
ATOM      3  C   UNL     1       4.058   2.775  19.933  0.00  0.00    +0.000 C 
ATOM      4  O   UNL     1       4.737   2.041  20.664  0.00  0.00    +0.000 OA
ENDROOT
BRANCH   3   5
ATOM      5  C   UNL     1       4.681   3.347  18.747  0.00  0.00    +0.000 A 
ATOM      6  C   UNL     1       5.585   4.401  18.805  0.00  0.00    +0.000 A 
ATOM      7  C   UNL     1       6.013   4.733  17.502  0.00  0.00    +0.000 A 
ATOM      8  C   UNL     1       6.898   5.697  16.989  0.00  0.00    +0.000 A 
ATOM      9  C   UNL     1       7.080   5.789  15.608  0.00  0.00    +0.000 A 
ATOM     10  C   UNL     1       6.394   4.931  14.749  0.00  0.00    +0.000 A 
ATOM     11  C   UNL     1       5.529   3.944  15.242  0.00  0.00    +0.000 A 
ATOM     12  C   UNL     1       5.359   3.866  16.634  0.00  0.00    +0.000 A 
ATOM     13  N   UNL     1       4.615   2.998  17.413  0.00  0.00    +0.000 N 
ATOM     14  H   UNL     1       4.129   2.200  17.038  0.00  0.00    +0.000 HD
ENDBRANCH   3   5
BRANCH   2  15
ATOM     15  C   UNL     1       1.716   3.725  19.538  0.00  0.00    +0.000 C 
BRANCH  15  16
ATOM     16  C   UNL     1       1.917   5.217  19.368  0.00  0.00    +0.000 A 
ATOM     17  C   UNL     1       2.248   5.796  18.133  0.00  0.00    +0.000 A 
ATOM     18  C   UNL     1       2.410   7.173  18.003  0.00  0.00    +0.000 A 
ATOM     19  C   UNL     1       2.238   8.001  19.106  0.00  0.00    +0.000 A 
ATOM     20  C   UNL     1       1.890   7.450  20.338  0.00  0.00    +0.000 A 
ATOM     21  C   UNL     1       1.721   6.068  20.467  0.00  0.00    +0.000 A 
ENDBRANCH  15  16
ENDBRANCH   2  15
TORSDOF 3
ENDMDL
MODEL 7
REMARK VINA RESULT:      -7.7      2.398      4.089
REMARK  Name = 
REMARK  4 active torsions:
REMARK  status: ('A' for Active; 'I' for Inactive)
REMARK    1  A    between atoms: C_1  and  N_2
REMARK    2  A    between atoms: N_2  and  C_3
REMARK    3  A    between atoms: C_3  and  C_4
REMARK    4  A    between atoms: C_10  and  C_12
REMARK                            x       y       z     vdW  Elec       q    Type
REMARK                         _______ _______ _______ _____ _____    ______ ____
ROOT
ATOM      1  C   UNL     1       2.182   2.479  21.646  0.00  0.00    +0.000 C 
ATOM      2  N   UNL     1       2.647   3.055  20.386  0.00  0.00    +0.000 N 
ATOM      3  C   UNL     1       3.974   2.778  20.054  0.00  0.00    +0.000 C 
ATOM      4  O   UNL     1       4.625   2.048  20.815  0.00  0.00    +0.000 OA
ENDROOT
BRANCH   3   5
ATOM      5  C   UNL     1       4.648   3.359  18.901  0.00  0.00    +0.000 A 
ATOM      6  C   UNL     1       5.526   4.432  19.004  0.00  0.00    +0.000 A 
ATOM      7  C   UNL     1       6.017   4.769  17.724  0.00  0.00    +0.000 A 
ATOM      8  C   UNL     1       6.908   5.751  17.256  0.00  0.00    +0.000 A 
ATOM      9  C   UNL     1       7.161   5.843  15.886  0.00  0.00    +0.000 A 
ATOM     10  C   UNL     1       6.539   4.970  14.994  0.00  0.00    +0.000 A 
ATOM     11  C   UNL     1       5.669   3.966  15.444  0.00  0.00    +0.000 A 
ATOM     12  C   UNL     1       5.427   3.888  16.825  0.00  0.00    +0.000 A 
ATOM     13  N   UNL     1       4.660   3.007  17.567  0.00  0.00    +0.000 N 
ATOM     14  H   UNL     1       4.210   2.199  17.169  0.00  0.00    +0.000 HD
ENDBRANCH   3   5
BRANCH   2  15
ATOM     15  C   UNL     1       1.645   3.705  19.549  0.00  0.00    +0.000 C 
BRANCH  15  16
ATOM     16  C   UNL     1       1.839   5.200  19.393  0.00  0.00    +0.000 A 
ATOM     17  C   UNL     1       1.713   6.091  20.469  0.00  0.00    +0.000 A 
ATOM     18  C   UNL     1       1.914   7.459  20.299  0.00  0.00    +0.000 A 
ATOM     19  C   UNL     1       2.253   7.963  19.049  0.00  0.00    +0.000 A 
ATOM     20  C   UNL     1       2.404   7.094  17.970  0.00  0.00    +0.000 A 
ATOM     21  C   UNL     1       2.208   5.720  18.142  0.00  0.00    +0.000 A 
ENDBRANCH  15  16
ENDBRANCH   2  15
TORSDOF 3
ENDMDL
MODEL 8
REMARK VINA RESULT:      -7.7      2.233      3.764
REMARK  Name = 
REMARK  4 active torsions:
REMARK  status: ('A' for Active; 'I' for Inactive)
REMARK    1  A    between atoms: C_1  and  N_2
REMARK    2  A    between atoms: N_2  and  C_3
REMARK    3  A    between atoms: C_3  and  C_4
REMARK    4  A    between atoms: C_10  and  C_12
REMARK                            x       y       z     vdW  Elec       q    Type
REMARK                         _______ _______ _______ _____ _____    ______ ____
ROOT
ATOM      1  C   UNL     1       2.273   2.557  21.482  0.00  0.00    +0.000 C 
ATOM      2  N   UNL     1       2.751   3.107  20.217  0.00  0.00    +0.000 N 
ATOM      3  C   UNL     1       4.068   2.785  19.882  0.00  0.00    +0.000 C 
ATOM      4  O   UNL     1       4.698   2.041  20.647  0.00  0.00    +0.000 OA
ENDROOT
BRANCH   3   5
ATOM      5  C   UNL     1       4.757   3.335  18.723  0.00  0.00    +0.000 A 
ATOM      6  C   UNL     1       4.284   3.185  17.424  0.00  0.00    +0.000 A 
ATOM      7  C   UNL     1       5.162   3.824  16.522  0.00  0.00    +0.000 A 
ATOM      8  C   UNL     1       5.172   3.978  15.125  0.00  0.00    +0.000 A 
ATOM      9  C   UNL     1       6.233   4.654  14.521  0.00  0.00    +0.000 A 
ATOM     10  C   UNL     1       7.269   5.173  15.297  0.00  0.00    +0.000 A 
ATOM     11  C   UNL     1       7.264   5.055  16.693  0.00  0.00    +0.000 A 
ATOM     12  C   UNL     1       6.188   4.372  17.283  0.00  0.00    +0.000 A 
ATOM     13  N   UNL     1       5.885   4.121  18.610  0.00  0.00    +0.000 N 
ATOM     14  H   UNL     1       6.412   4.507  19.377  0.00  0.00    +0.000 HD
ENDBRANCH   3   5
BRANCH   2  15
ATOM     15  C   UNL     1       1.768   3.783  19.377  0.00  0.00    +0.000 C 
BRANCH  15  16
ATOM     16  C   UNL     1       1.882   5.293  19.377  0.00  0.00    +0.000 A 
ATOM     17  C   UNL     1       1.647   6.065  20.525  0.00  0.00    +0.000 A 
ATOM     18  C   UNL     1       1.776   7.453  20.499  0.00  0.00    +0.000 A 
ATOM     19  C   UNL     1       2.150   8.095  19.325  0.00  0.00    +0.000 A 
ATOM     20  C   UNL     1       2.409   7.347  18.179  0.00  0.00    +0.000 A 
ATOM     21  C   UNL     1       2.286   5.954  18.205  0.00  0.00    +0.000 A 
ENDBRANCH  15  16
ENDBRANCH   2  15
TORSDOF 3
ENDMDL
MODEL 9
REMARK VINA RESULT:      -7.7      3.123      6.516
REMARK  Name = 
REMARK  4 active torsions:
REMARK  status: ('A' for Active; 'I' for Inactive)
REMARK    1  A    between atoms: C_1  and  N_2
REMARK    2  A    between atoms: N_2  and  C_3
REMARK    3  A    between atoms: C_3  and  C_4
REMARK    4  A    between atoms: C_10  and  C_12
REMARK                            x       y       z     vdW  Elec       q    Type
REMARK                         _______ _______ _______ _____ _____    ______ ____
ROOT
ATOM      1  C   UNL     1       5.133   4.053  16.708  0.00  0.00    +0.000 C 
ATOM      2  N   UNL     1       4.009   4.733  17.348  0.00  0.00    +0.000 N 
ATOM      3  C   UNL     1       4.211   6.084  17.635  0.00  0.00    +0.000 C 
ATOM      4  O   UNL     1       5.286   6.598  17.295  0.00  0.00    +0.000 OA
ENDROOT
BRANCH   3   5
ATOM      5  C   UNL     1       3.255   6.896  18.375  0.00  0.00    +0.000 A 
ATOM      6  C   UNL     1       2.572   7.965  17.805  0.00  0.00    +0.000 A 
ATOM      7  C   UNL     1       1.722   8.553  18.766  0.00  0.00    +0.000 A 
ATOM      8  C   UNL     1       0.829   9.638  18.734  0.00  0.00    +0.000 A 
ATOM      9  C   UNL     1       0.147   9.994  19.899  0.00  0.00    +0.000 A 
ATOM     10  C   UNL     1       0.347   9.277  21.078  0.00  0.00    +0.000 A 
ATOM     11  C   UNL     1       1.211   8.175  21.124  0.00  0.00    +0.000 A 
ATOM     12  C   UNL     1       1.889   7.832  19.942  0.00  0.00    +0.000 A 
ATOM     13  N   UNL     1       2.766   6.799  19.662  0.00  0.00    +0.000 N 
ATOM     14  H   UNL     1       2.974   6.061  20.315  0.00  0.00    +0.000 HD
ENDBRANCH   3   5
BRANCH   2  15
ATOM     15  C   UNL     1       2.764   3.983  17.465  0.00  0.00    +0.000 C 
BRANCH  15  16
ATOM     16  C   UNL     1       2.424   3.557  18.879  0.00  0.00    +0.000 A 
ATOM     17  C   UNL     1       1.129   3.669  19.408  0.00  0.00    +0.000 A 
ATOM     18  C   UNL     1       0.842   3.254  20.706  0.00  0.00    +0.000 A 
ATOM     19  C   UNL     1       1.844   2.710  21.500  0.00  0.00    +0.000 A 
ATOM     20  C   UNL     1       3.133   2.569  20.989  0.00  0.00    +0.000 A 
ATOM     21  C   UNL     1       3.420   2.981  19.684  0.00  0.00    +0.000 A 
ENDBRANCH  15  16
ENDBRANCH   2  15
TORSDOF 3
ENDMDL
