MODEL 1
REMARK VINA RESULT:      -7.3      0.000      0.000
REMARK  Name = 
REMARK  10 active torsions:
REMARK  status: ('A' for Active; 'I' for Inactive)
REMARK    1  A    between atoms: C_1  and  O_2
REMARK    2  A    between atoms: O_2  and  C_3
REMARK    3  A    between atoms: C_7  and  C_8
REMARK    4  A    between atoms: C_10  and  C_11
REMARK    5  A    between atoms: C_14  and  N_15
REMARK    6  A    between atoms: N_15  and  S_16
REMARK    7  A    between atoms: S_16  and  C_17
REMARK    8  A    between atoms: C_24  and  C_26
REMARK    9  A    between atoms: C_32  and  O_33
REMARK   10  A    between atoms: O_33  and  C_34
REMARK                            x       y       z     vdW  Elec       q    Type
REMARK                         _______ _______ _______ _____ _____    ______ ____
ROOT
ATOM      1  C   UNL     1      -0.517  11.919  21.437  0.00  0.00    +0.000 C 
ATOM      2  C   UNL     1      -0.479  10.453  20.991  0.00  0.00    +0.000 C 
ATOM      3  C   UNL     1       0.777  10.447  20.171  0.00  0.00    +0.000 C 
ATOM      4  N   UNL     1       1.288  11.614  19.940  0.00  0.00    +0.000 NA
ATOM      5  N   UNL     1       0.537  12.540  20.616  0.00  0.00    +0.000 N 
ATOM      6  C   UNL     1       0.912  13.883  20.681  0.00  0.00    +0.000 C 
ATOM      7  O   UNL     1       0.290  14.733  21.317  0.00  0.00    +0.000 OA
ENDROOT
BRANCH   1  12
ATOM      8  C   UNL     1      -3.954  13.392  22.266  0.00  0.00    +0.000 A 
ATOM      9  C   UNL     1      -4.594  13.287  21.019  0.00  0.00    +0.000 A 
ATOM     10  C   UNL     1      -3.946  12.712  19.935  0.00  0.00    +0.000 A 
ATOM     11  C   UNL     1      -2.634  12.274  20.072  0.00  0.00    +0.000 A 
ATOM     12  C   UNL     1      -1.934  12.449  21.278  0.00  0.00    +0.000 A 
ATOM     13  C   UNL     1      -2.599  13.033  22.390  0.00  0.00    +0.000 A 
BRANCH   8  15
ATOM     14  C   UNL     1      -5.372  12.834  24.060  0.00  0.00    +0.000 C 
ATOM     15  O   UNL     1      -4.653  13.849  23.357  0.00  0.00    +0.000 OA
ENDBRANCH   8  15
BRANCH  13  16
ATOM     16  O   UNL     1      -1.819  13.116  23.519  0.00  0.00    +0.000 OA
ATOM     17  C   UNL     1      -1.498  14.390  24.060  0.00  0.00    +0.000 C 
ENDBRANCH  13  16
ENDBRANCH   1  12
BRANCH   3  18
ATOM     18  C   UNL     1       1.372   9.205  19.628  0.00  0.00    +0.000 A 
ATOM     19  C   UNL     1       1.794   9.118  18.300  0.00  0.00    +0.000 A 
ATOM     20  C   UNL     1       2.391   7.945  17.832  0.00  0.00    +0.000 A 
ATOM     21  C   UNL     1       2.549   6.851  18.684  0.00  0.00    +0.000 A 
ATOM     22  C   UNL     1       2.122   6.923  20.009  0.00  0.00    +0.000 A 
ATOM     23  C   UNL     1       1.535   8.101  20.479  0.00  0.00    +0.000 A 
BRANCH  21  24
ATOM     24  N   UNL     1       3.201   5.687  18.185  0.00  0.00    +0.000 N 
ATOM     25  H   UNL     1       3.612   5.779  17.254  0.00  0.00    +0.000 HD
BRANCH  24  26
ATOM     26  S   UNL     1       2.353   4.223  18.273  0.00  0.00    +0.000 S 
ATOM     27  C   UNL     1       3.478   3.113  17.456  0.00  0.00    +0.000 C 
ATOM     28  O   UNL     1       2.201   3.821  19.653  0.00  0.00    +0.000 OA
ATOM     29  O   UNL     1       1.201   4.399  17.411  0.00  0.00    +0.000 OA
ENDBRANCH  24  26
ENDBRANCH  21  24
ENDBRANCH   3  18
BRANCH   6  30
ATOM     30  C   UNL     1       2.107  14.326  19.899  0.00  0.00    +0.000 A 
ATOM     31  C   UNL     1       1.931  14.749  18.575  0.00  0.00    +0.000 A 
ATOM     32  C   UNL     1       3.032  15.164  17.818  0.00  0.00    +0.000 A 
ATOM     33  C   UNL     1       4.310  15.159  18.379  0.00  0.00    +0.000 A 
ATOM     34  C   UNL     1       4.489  14.761  19.702  0.00  0.00    +0.000 A 
ATOM     35  C   UNL     1       3.388  14.370  20.465  0.00  0.00    +0.000 A 
ENDBRANCH   6  30
TORSDOF 7
ENDMDL
MODEL 2
REMARK VINA RESULT:      -7.3      2.108      2.781
REMARK  Name = 
REMARK  10 active torsions:
REMARK  status: ('A' for Active; 'I' for Inactive)
REMARK    1  A    between atoms: C_1  and  O_2
REMARK    2  A    between atoms: O_2  and  C_3
REMARK    3  A    between atoms: C_7  and  C_8
REMARK    4  A    between atoms: C_10  and  C_11
REMARK    5  A    between atoms: C_14  and  N_15
REMARK    6  A    between atoms: N_15  and  S_16
REMARK    7  A    between atoms: S_16  and  C_17
REMARK    8  A    between atoms: C_24  and  C_26
REMARK    9  A    between atoms: C_32  and  O_33
REMARK   10  A    between atoms: O_33  and  C_34
REMARK                            x       y       z     vdW  Elec       q    Type
REMARK                         _______ _______ _______ _____ _____    ______ ____
ROOT
ATOM      1  C   UNL     1      -1.203  10.969  19.316  0.00  0.00    +0.000 C 
ATOM      2  C   UNL     1      -0.765   9.517  19.094  0.00  0.00    +0.000 C 
ATOM      3  C   UNL     1       0.726   9.681  19.062  0.00  0.00    +0.000 C 
ATOM      4  N   UNL     1       1.142  10.906  19.029  0.00  0.00    +0.000 NA
ATOM      5  N   UNL     1       0.046  11.724  19.120  0.00  0.00    +0.000 N 
ATOM      6  C   UNL     1       0.171  13.108  19.249  0.00  0.00    +0.000 C 
ATOM      7  O   UNL     1      -0.788  13.868  19.382  0.00  0.00    +0.000 OA
ENDROOT
BRANCH   1  12
ATOM      8  C   UNL     1      -4.684  11.972  18.072  0.00  0.00    +0.000 A 
ATOM      9  C   UNL     1      -4.556  11.719  16.696  0.00  0.00    +0.000 A 
ATOM     10  C   UNL     1      -3.381  11.193  16.178  0.00  0.00    +0.000 A 
ATOM     11  C   UNL     1      -2.304  10.954  17.022  0.00  0.00    +0.000 A 
ATOM     12  C   UNL     1      -2.367  11.283  18.387  0.00  0.00    +0.000 A 
ATOM     13  C   UNL     1      -3.572  11.816  18.920  0.00  0.00    +0.000 A 
BRANCH   8  15
ATOM     14  C   UNL     1      -6.701  11.308  19.088  0.00  0.00    +0.000 C 
ATOM     15  O   UNL     1      -5.895  12.374  18.584  0.00  0.00    +0.000 OA
ENDBRANCH   8  15
BRANCH  13  16
ATOM     16  O   UNL     1      -3.518  12.062  20.272  0.00  0.00    +0.000 OA
ATOM     17  C   UNL     1      -3.858  13.349  20.767  0.00  0.00    +0.000 C 
ENDBRANCH  13  16
ENDBRANCH   1  12
BRANCH   3  18
ATOM     18  C   UNL     1       1.657   8.531  19.030  0.00  0.00    +0.000 A 
ATOM     19  C   UNL     1       1.727   7.620  20.087  0.00  0.00    +0.000 A 
ATOM     20  C   UNL     1       2.586   6.522  20.006  0.00  0.00    +0.000 A 
ATOM     21  C   UNL     1       3.392   6.343  18.881  0.00  0.00    +0.000 A 
ATOM     22  C   UNL     1       3.338   7.253  17.825  0.00  0.00    +0.000 A 
ATOM     23  C   UNL     1       2.470   8.345  17.902  0.00  0.00    +0.000 A 
BRANCH  21  24
ATOM     24  N   UNL     1       4.224   5.189  18.814  0.00  0.00    +0.000 N 
ATOM     25  H   UNL     1       5.190   5.360  18.527  0.00  0.00    +0.000 HD
BRANCH  24  26
ATOM     26  S   UNL     1       3.625   3.847  17.971  0.00  0.00    +0.000 S 
ATOM     27  C   UNL     1       3.867   2.546  19.160  0.00  0.00    +0.000 C 
ATOM     28  O   UNL     1       2.211   4.010  17.721  0.00  0.00    +0.000 OA
ATOM     29  O   UNL     1       4.560   3.633  16.885  0.00  0.00    +0.000 OA
ENDBRANCH  24  26
ENDBRANCH  21  24
ENDBRANCH   3  18
BRANCH   6  30
ATOM     30  C   UNL     1       1.538  13.708  19.176  0.00  0.00    +0.000 A 
ATOM     31  C   UNL     1       2.059  14.055  17.923  0.00  0.00    +0.000 A 
ATOM     32  C   UNL     1       3.338  14.614  17.825  0.00  0.00    +0.000 A 
ATOM     33  C   UNL     1       4.100  14.828  18.974  0.00  0.00    +0.000 A 
ATOM     34  C   UNL     1       3.579  14.507  20.225  0.00  0.00    +0.000 A 
ATOM     35  C   UNL     1       2.294  13.971  20.326  0.00  0.00    +0.000 A 
ENDBRANCH   6  30
TORSDOF 7
ENDMDL
MODEL 3
REMARK VINA RESULT:      -7.2      2.153      2.981
REMARK  Name = 
REMARK  10 active torsions:
REMARK  status: ('A' for Active; 'I' for Inactive)
REMARK    1  A    between atoms: C_1  and  O_2
REMARK    2  A    between atoms: O_2  and  C_3
REMARK    3  A    between atoms: C_7  and  C_8
REMARK    4  A    between atoms: C_10  and  C_11
REMARK    5  A    between atoms: C_14  and  N_15
REMARK    6  A    between atoms: N_15  and  S_16
REMARK    7  A    between atoms: S_16  and  C_17
REMARK    8  A    between atoms: C_24  and  C_26
REMARK    9  A    between atoms: C_32  and  O_33
REMARK   10  A    between atoms: O_33  and  C_34
REMARK                            x       y       z     vdW  Elec       q    Type
REMARK                         _______ _______ _______ _____ _____    ______ ____
ROOT
ATOM      1  C   UNL     1      -1.133  10.936  19.239  0.00  0.00    +0.000 C 
ATOM      2  C   UNL     1      -0.680   9.487  19.022  0.00  0.00    +0.000 C 
ATOM      3  C   UNL     1       0.809   9.663  19.013  0.00  0.00    +0.000 C 
ATOM      4  N   UNL     1       1.218  10.891  18.988  0.00  0.00    +0.000 NA
ATOM      5  N   UNL     1       0.115  11.700  19.063  0.00  0.00    +0.000 N 
ATOM      6  C   UNL     1       0.227  13.085  19.195  0.00  0.00    +0.000 C 
ATOM      7  O   UNL     1      -0.739  13.838  19.313  0.00  0.00    +0.000 OA
ENDROOT
BRANCH   1  12
ATOM      8  C   UNL     1      -4.599  11.922  17.940  0.00  0.00    +0.000 A 
ATOM      9  C   UNL     1      -4.450  11.665  16.567  0.00  0.00    +0.000 A 
ATOM     10  C   UNL     1      -3.265  11.141  16.068  0.00  0.00    +0.000 A 
ATOM     11  C   UNL     1      -2.199  10.909  16.929  0.00  0.00    +0.000 A 
ATOM     12  C   UNL     1      -2.283  11.242  18.292  0.00  0.00    +0.000 A 
ATOM     13  C   UNL     1      -3.498  11.774  18.804  0.00  0.00    +0.000 A 
BRANCH   8  15
ATOM     14  C   UNL     1      -6.781  12.638  17.426  0.00  0.00    +0.000 C 
ATOM     15  O   UNL     1      -5.818  12.323  18.433  0.00  0.00    +0.000 OA
ENDBRANCH   8  15
BRANCH  13  16
ATOM     16  O   UNL     1      -3.464  12.025  20.156  0.00  0.00    +0.000 OA
ATOM     17  C   UNL     1      -3.708  13.341  20.633  0.00  0.00    +0.000 C 
ENDBRANCH  13  16
ENDBRANCH   1  12
BRANCH   3  18
ATOM     18  C   UNL     1       1.750   8.519  18.996  0.00  0.00    +0.000 A 
ATOM     19  C   UNL     1       1.820   7.616  20.059  0.00  0.00    +0.000 A 
ATOM     20  C   UNL     1       2.688   6.524  19.991  0.00  0.00    +0.000 A 
ATOM     21  C   UNL     1       3.502   6.344  18.872  0.00  0.00    +0.000 A 
ATOM     22  C   UNL     1       3.449   7.246  17.810  0.00  0.00    +0.000 A 
ATOM     23  C   UNL     1       2.571   8.332  17.874  0.00  0.00    +0.000 A 
BRANCH  21  24
ATOM     24  N   UNL     1       4.344   5.195  18.819  0.00  0.00    +0.000 N 
ATOM     25  H   UNL     1       5.318   5.376  18.572  0.00  0.00    +0.000 HD
BRANCH  24  26
ATOM     26  S   UNL     1       3.785   3.865  17.930  0.00  0.00    +0.000 S 
ATOM     27  C   UNL     1       4.846   3.923  16.504  0.00  0.00    +0.000 C 
ATOM     28  O   UNL     1       4.033   2.642  18.661  0.00  0.00    +0.000 OA
ATOM     29  O   UNL     1       2.449   4.227  17.503  0.00  0.00    +0.000 OA
ENDBRANCH  24  26
ENDBRANCH  21  24
ENDBRANCH   3  18
BRANCH   6  30
ATOM     30  C   UNL     1       1.591  13.695  19.144  0.00  0.00    +0.000 A 
ATOM     31  C   UNL     1       2.290  13.892  20.342  0.00  0.00    +0.000 A 
ATOM     32  C   UNL     1       3.565  14.466  20.325  0.00  0.00    +0.000 A 
ATOM     33  C   UNL     1       4.147  14.845  19.114  0.00  0.00    +0.000 A 
ATOM     34  C   UNL     1       3.468  14.630  17.918  0.00  0.00    +0.000 A 
ATOM     35  C   UNL     1       2.205  14.037  17.932  0.00  0.00    +0.000 A 
ENDBRANCH   6  30
TORSDOF 7
ENDMDL
MODEL 4
REMARK VINA RESULT:      -7.2      1.270      1.807
REMARK  Name = 
REMARK  10 active torsions:
REMARK  status: ('A' for Active; 'I' for Inactive)
REMARK    1  A    between atoms: C_1  and  O_2
REMARK    2  A    between atoms: O_2  and  C_3
REMARK    3  A    between atoms: C_7  and  C_8
REMARK    4  A    between atoms: C_10  and  C_11
REMARK    5  A    between atoms: C_14  and  N_15
REMARK    6  A    between atoms: N_15  and  S_16
REMARK    7  A    between atoms: S_16  and  C_17
REMARK    8  A    between atoms: C_24  and  C_26
REMARK    9  A    between atoms: C_32  and  O_33
REMARK   10  A    between atoms: O_33  and  C_34
REMARK                            x       y       z     vdW  Elec       q    Type
REMARK                         _______ _______ _______ _____ _____    ______ ____
ROOT
ATOM      1  C   UNL     1      -0.583  11.791  21.260  0.00  0.00    +0.000 C 
ATOM      2  C   UNL     1      -0.469  10.330  20.808  0.00  0.00    +0.000 C 
ATOM      3  C   UNL     1       0.815  10.381  20.034  0.00  0.00    +0.000 C 
ATOM      4  N   UNL     1       1.286  11.569  19.828  0.00  0.00    +0.000 NA
ATOM      5  N   UNL     1       0.474  12.459  20.481  0.00  0.00    +0.000 N 
ATOM      6  C   UNL     1       0.791  13.816  20.566  0.00  0.00    +0.000 C 
ATOM      7  O   UNL     1       0.113  14.636  21.184  0.00  0.00    +0.000 OA
ENDROOT
BRANCH   1  12
ATOM      8  C   UNL     1      -4.143  13.007  21.980  0.00  0.00    +0.000 A 
ATOM      9  C   UNL     1      -4.694  12.991  20.687  0.00  0.00    +0.000 A 
ATOM     10  C   UNL     1      -3.946  12.555  19.602  0.00  0.00    +0.000 A 
ATOM     11  C   UNL     1      -2.624  12.171  19.789  0.00  0.00    +0.000 A 
ATOM     12  C   UNL     1      -2.014  12.264  21.052  0.00  0.00    +0.000 A 
ATOM     13  C   UNL     1      -2.781  12.705  22.164  0.00  0.00    +0.000 A 
BRANCH   8  15
ATOM     14  C   UNL     1      -5.679  14.533  22.902  0.00  0.00    +0.000 C 
ATOM     15  O   UNL     1      -4.935  13.323  23.057  0.00  0.00    +0.000 OA
ENDBRANCH   8  15
BRANCH  13  16
ATOM     16  O   UNL     1      -2.081  12.717  23.348  0.00  0.00    +0.000 OA
ATOM     17  C   UNL     1      -1.776  13.956  23.972  0.00  0.00    +0.000 C 
ENDBRANCH  13  16
ENDBRANCH   1  12
BRANCH   3  18
ATOM     18  C   UNL     1       1.480   9.167  19.507  0.00  0.00    +0.000 A 
ATOM     19  C   UNL     1       1.696   8.046  20.311  0.00  0.00    +0.000 A 
ATOM     20  C   UNL     1       2.288   6.903  19.771  0.00  0.00    +0.000 A 
ATOM     21  C   UNL     1       2.684   6.884  18.432  0.00  0.00    +0.000 A 
ATOM     22  C   UNL     1       2.483   8.001  17.623  0.00  0.00    +0.000 A 
ATOM     23  C   UNL     1       1.880   9.141  18.162  0.00  0.00    +0.000 A 
BRANCH  21  24
ATOM     24  N   UNL     1       3.244   5.685  17.904  0.00  0.00    +0.000 N 
ATOM     25  H   UNL     1       2.807   4.818  18.222  0.00  0.00    +0.000 HD
BRANCH  24  26
ATOM     26  S   UNL     1       4.928   5.516  17.980  0.00  0.00    +0.000 S 
ATOM     27  C   UNL     1       5.195   4.140  16.886  0.00  0.00    +0.000 C 
ATOM     28  O   UNL     1       5.569   6.692  17.435  0.00  0.00    +0.000 OA
ATOM     29  O   UNL     1       5.204   5.068  19.330  0.00  0.00    +0.000 OA
ENDBRANCH  24  26
ENDBRANCH  21  24
ENDBRANCH   3  18
BRANCH   6  30
ATOM     30  C   UNL     1       1.994  14.312  19.831  0.00  0.00    +0.000 A 
ATOM     31  C   UNL     1       3.213  14.413  20.515  0.00  0.00    +0.000 A 
ATOM     32  C   UNL     1       4.353  14.880  19.853  0.00  0.00    +0.000 A 
ATOM     33  C   UNL     1       4.283  15.246  18.508  0.00  0.00    +0.000 A 
ATOM     34  C   UNL     1       3.080  15.126  17.816  0.00  0.00    +0.000 A 
ATOM     35  C   UNL     1       1.948  14.639  18.469  0.00  0.00    +0.000 A 
ENDBRANCH   6  30
TORSDOF 7
ENDMDL
MODEL 5
REMARK VINA RESULT:      -7.2      1.127      1.300
REMARK  Name = 
REMARK  10 active torsions:
REMARK  status: ('A' for Active; 'I' for Inactive)
REMARK    1  A    between atoms: C_1  and  O_2
REMARK    2  A    between atoms: O_2  and  C_3
REMARK    3  A    between atoms: C_7  and  C_8
REMARK    4  A    between atoms: C_10  and  C_11
REMARK    5  A    between atoms: C_14  and  N_15
REMARK    6  A    between atoms: N_15  and  S_16
REMARK    7  A    between atoms: S_16  and  C_17
REMARK    8  A    between atoms: C_24  and  C_26
REMARK    9  A    between atoms: C_32  and  O_33
REMARK   10  A    between atoms: O_33  and  C_34
REMARK                            x       y       z     vdW  Elec       q    Type
REMARK                         _______ _______ _______ _____ _____    ______ ____
ROOT
ATOM      1  C   UNL     1      -0.880  11.540  20.650  0.00  0.00    +0.000 C 
ATOM      2  C   UNL     1      -0.660  10.085  20.221  0.00  0.00    +0.000 C 
ATOM      3  C   UNL     1       0.738  10.166  19.683  0.00  0.00    +0.000 C 
ATOM      4  N   UNL     1       1.214  11.364  19.566  0.00  0.00    +0.000 NA
ATOM      5  N   UNL     1       0.283  12.234  20.070  0.00  0.00    +0.000 N 
ATOM      6  C   UNL     1       0.552  13.596  20.214  0.00  0.00    +0.000 C 
ATOM      7  O   UNL     1      -0.240  14.399  20.706  0.00  0.00    +0.000 OA
ENDROOT
BRANCH   1  12
ATOM      8  C   UNL     1      -4.453  12.919  20.724  0.00  0.00    +0.000 A 
ATOM      9  C   UNL     1      -4.859  12.672  19.401  0.00  0.00    +0.000 A 
ATOM     10  C   UNL     1      -4.012  12.032  18.507  0.00  0.00    +0.000 A 
ATOM     11  C   UNL     1      -2.732  11.671  18.911  0.00  0.00    +0.000 A 
ATOM     12  C   UNL     1      -2.262  11.987  20.197  0.00  0.00    +0.000 A 
ATOM     13  C   UNL     1      -3.131  12.637  21.115  0.00  0.00    +0.000 A 
BRANCH   8  15
ATOM     14  C   UNL     1      -6.526  12.652  21.806  0.00  0.00    +0.000 C 
ATOM     15  O   UNL     1      -5.348  13.440  21.628  0.00  0.00    +0.000 OA
ENDBRANCH   8  15
BRANCH  13  16
ATOM     16  O   UNL     1      -2.566  12.858  22.349  0.00  0.00    +0.000 OA
ATOM     17  C   UNL     1      -3.013  12.112  23.472  0.00  0.00    +0.000 C 
ENDBRANCH  13  16
ENDBRANCH   1  12
BRANCH   3  18
ATOM     18  C   UNL     1       1.510   8.969  19.276  0.00  0.00    +0.000 A 
ATOM     19  C   UNL     1       2.075   8.863  18.003  0.00  0.00    +0.000 A 
ATOM     20  C   UNL     1       2.832   7.739  17.668  0.00  0.00    +0.000 A 
ATOM     21  C   UNL     1       3.010   6.710  18.594  0.00  0.00    +0.000 A 
ATOM     22  C   UNL     1       2.442   6.801  19.864  0.00  0.00    +0.000 A 
ATOM     23  C   UNL     1       1.693   7.931  20.203  0.00  0.00    +0.000 A 
BRANCH  21  24
ATOM     24  N   UNL     1       3.825   5.600  18.232  0.00  0.00    +0.000 N 
ATOM     25  H   UNL     1       4.544   5.792  17.532  0.00  0.00    +0.000 HD
BRANCH  24  26
ATOM     26  S   UNL     1       3.035   4.155  17.830  0.00  0.00    +0.000 S 
ATOM     27  C   UNL     1       3.184   3.239  19.348  0.00  0.00    +0.000 C 
ATOM     28  O   UNL     1       1.638   4.413  17.562  0.00  0.00    +0.000 OA
ATOM     29  O   UNL     1       3.886   3.519  16.845  0.00  0.00    +0.000 OA
ENDBRANCH  24  26
ENDBRANCH  21  24
ENDBRANCH   3  18
BRANCH   6  30
ATOM     30  C   UNL     1       1.855  14.121  19.701  0.00  0.00    +0.000 A 
ATOM     31  C   UNL     1       1.941  14.532  18.365  0.00  0.00    +0.000 A 
ATOM     32  C   UNL     1       3.149  15.022  17.857  0.00  0.00    +0.000 A 
ATOM     33  C   UNL     1       4.273  15.104  18.680  0.00  0.00    +0.000 A 
ATOM     34  C   UNL     1       4.189  14.718  20.015  0.00  0.00    +0.000 A 
ATOM     35  C   UNL     1       2.979  14.251  20.529  0.00  0.00    +0.000 A 
ENDBRANCH   6  30
TORSDOF 7
ENDMDL
MODEL 6
REMARK VINA RESULT:      -7.2      1.153      1.754
REMARK  Name = 
REMARK  10 active torsions:
REMARK  status: ('A' for Active; 'I' for Inactive)
REMARK    1  A    between atoms: C_1  and  O_2
REMARK    2  A    between atoms: O_2  and  C_3
REMARK    3  A    between atoms: C_7  and  C_8
REMARK    4  A    between atoms: C_10  and  C_11
REMARK    5  A    between atoms: C_14  and  N_15
REMARK    6  A    between atoms: N_15  and  S_16
REMARK    7  A    between atoms: S_16  and  C_17
REMARK    8  A    between atoms: C_24  and  C_26
REMARK    9  A    between atoms: C_32  and  O_33
REMARK   10  A    between atoms: O_33  and  C_34
REMARK                            x       y       z     vdW  Elec       q    Type
REMARK                         _______ _______ _______ _____ _____    ______ ____
ROOT
ATOM      1  C   UNL     1      -0.883  11.518  20.668  0.00  0.00    +0.000 C 
ATOM      2  C   UNL     1      -0.665  10.048  20.288  0.00  0.00    +0.000 C 
ATOM      3  C   UNL     1       0.735  10.108  19.752  0.00  0.00    +0.000 C 
ATOM      4  N   UNL     1       1.214  11.301  19.597  0.00  0.00    +0.000 NA
ATOM      5  N   UNL     1       0.283  12.189  20.069  0.00  0.00    +0.000 N 
ATOM      6  C   UNL     1       0.556  13.554  20.168  0.00  0.00    +0.000 C 
ATOM      7  O   UNL     1      -0.236  14.375  20.631  0.00  0.00    +0.000 OA
ENDROOT
BRANCH   1  12
ATOM      8  C   UNL     1      -4.459  12.888  20.689  0.00  0.00    +0.000 A 
ATOM      9  C   UNL     1      -4.855  12.616  19.368  0.00  0.00    +0.000 A 
ATOM     10  C   UNL     1      -3.999  11.961  18.493  0.00  0.00    +0.000 A 
ATOM     11  C   UNL     1      -2.722  11.611  18.913  0.00  0.00    +0.000 A 
ATOM     12  C   UNL     1      -2.263  11.952  20.196  0.00  0.00    +0.000 A 
ATOM     13  C   UNL     1      -3.140  12.617  21.096  0.00  0.00    +0.000 A 
BRANCH   8  15
ATOM     14  C   UNL     1      -6.568  12.671  21.711  0.00  0.00    +0.000 C 
ATOM     15  O   UNL     1      -5.362  13.424  21.576  0.00  0.00    +0.000 OA
ENDBRANCH   8  15
BRANCH  13  16
ATOM     16  O   UNL     1      -2.585  12.863  22.330  0.00  0.00    +0.000 OA
ATOM     17  C   UNL     1      -3.038  12.136  23.463  0.00  0.00    +0.000 C 
ENDBRANCH  13  16
ENDBRANCH   1  12
BRANCH   3  18
ATOM     18  C   UNL     1       1.505   8.897  19.388  0.00  0.00    +0.000 A 
ATOM     19  C   UNL     1       1.688   7.849  20.293  0.00  0.00    +0.000 A 
ATOM     20  C   UNL     1       2.383   6.703  19.903  0.00  0.00    +0.000 A 
ATOM     21  C   UNL     1       2.914   6.608  18.616  0.00  0.00    +0.000 A 
ATOM     22  C   UNL     1       2.746   7.653  17.707  0.00  0.00    +0.000 A 
ATOM     23  C   UNL     1       2.040   8.795  18.095  0.00  0.00    +0.000 A 
BRANCH  21  24
ATOM     24  N   UNL     1       3.579   5.406  18.239  0.00  0.00    +0.000 N 
ATOM     25  H   UNL     1       4.314   5.513  17.537  0.00  0.00    +0.000 HD
BRANCH  24  26
ATOM     26  S   UNL     1       2.610   4.079  17.828  0.00  0.00    +0.000 S 
ATOM     27  C   UNL     1       2.538   3.203  19.375  0.00  0.00    +0.000 C 
ATOM     28  O   UNL     1       1.283   4.526  17.469  0.00  0.00    +0.000 OA
ATOM     29  O   UNL     1       3.412   3.292  16.912  0.00  0.00    +0.000 OA
ENDBRANCH  24  26
ENDBRANCH  21  24
ENDBRANCH   3  18
BRANCH   6  30
ATOM     30  C   UNL     1       1.862  14.059  19.642  0.00  0.00    +0.000 A 
ATOM     31  C   UNL     1       2.935  14.211  20.530  0.00  0.00    +0.000 A 
ATOM     32  C   UNL     1       4.166  14.686  20.066  0.00  0.00    +0.000 A 
ATOM     33  C   UNL     1       4.331  15.009  18.718  0.00  0.00    +0.000 A 
ATOM     34  C   UNL     1       3.275  14.838  17.827  0.00  0.00    +0.000 A 
ATOM     35  C   UNL     1       2.053  14.343  18.284  0.00  0.00    +0.000 A 
ENDBRANCH   6  30
TORSDOF 7
ENDMDL
MODEL 7
REMARK VINA RESULT:      -7.1      0.860      1.256
REMARK  Name = 
REMARK  10 active torsions:
REMARK  status: ('A' for Active; 'I' for Inactive)
REMARK    1  A    between atoms: C_1  and  O_2
REMARK    2  A    between atoms: O_2  and  C_3
REMARK    3  A    between atoms: C_7  and  C_8
REMARK    4  A    between atoms: C_10  and  C_11
REMARK    5  A    between atoms: C_14  and  N_15
REMARK    6  A    between atoms: N_15  and  S_16
REMARK    7  A    between atoms: S_16  and  C_17
REMARK    8  A    between atoms: C_24  and  C_26
REMARK    9  A    between atoms: C_32  and  O_33
REMARK   10  A    between atoms: O_33  and  C_34
REMARK                            x       y       z     vdW  Elec       q    Type
REMARK                         _______ _______ _______ _____ _____    ______ ____
ROOT
ATOM      1  C   UNL     1      -0.614  11.617  21.145  0.00  0.00    +0.000 C 
ATOM      2  C   UNL     1      -0.477  10.151  20.719  0.00  0.00    +0.000 C 
ATOM      3  C   UNL     1       0.846  10.193  20.013  0.00  0.00    +0.000 C 
ATOM      4  N   UNL     1       1.328  11.378  19.818  0.00  0.00    +0.000 NA
ATOM      5  N   UNL     1       0.482  12.277  20.415  0.00  0.00    +0.000 N 
ATOM      6  C   UNL     1       0.794  13.634  20.501  0.00  0.00    +0.000 C 
ATOM      7  O   UNL     1       0.084  14.462  21.071  0.00  0.00    +0.000 OA
ENDROOT
BRANCH   1  12
ATOM      8  C   UNL     1      -4.208  12.841  21.658  0.00  0.00    +0.000 A 
ATOM      9  C   UNL     1      -4.689  12.808  20.339  0.00  0.00    +0.000 A 
ATOM     10  C   UNL     1      -3.885  12.358  19.301  0.00  0.00    +0.000 A 
ATOM     11  C   UNL     1      -2.574  11.977  19.563  0.00  0.00    +0.000 A 
ATOM     12  C   UNL     1      -2.033  12.087  20.855  0.00  0.00    +0.000 A 
ATOM     13  C   UNL     1      -2.858  12.542  21.919  0.00  0.00    +0.000 A 
BRANCH   8  15
ATOM     14  C   UNL     1      -5.612  14.483  22.592  0.00  0.00    +0.000 C 
ATOM     15  O   UNL     1      -5.056  13.171  22.688  0.00  0.00    +0.000 OA
ENDBRANCH   8  15
BRANCH  13  16
ATOM     16  O   UNL     1      -2.222  12.570  23.138  0.00  0.00    +0.000 OA
ATOM     17  C   UNL     1      -1.916  13.819  23.743  0.00  0.00    +0.000 C 
ENDBRANCH  13  16
ENDBRANCH   1  12
BRANCH   3  18
ATOM     18  C   UNL     1       1.539   8.973  19.538  0.00  0.00    +0.000 A 
ATOM     19  C   UNL     1       1.737   7.874  20.376  0.00  0.00    +0.000 A 
ATOM     20  C   UNL     1       2.356   6.723  19.883  0.00  0.00    +0.000 A 
ATOM     21  C   UNL     1       2.796   6.675  18.560  0.00  0.00    +0.000 A 
ATOM     22  C   UNL     1       2.613   7.772  17.717  0.00  0.00    +0.000 A 
ATOM     23  C   UNL     1       1.984   8.919  18.209  0.00  0.00    +0.000 A 
BRANCH  21  24
ATOM     24  N   UNL     1       3.384   5.470  18.079  0.00  0.00    +0.000 N 
ATOM     25  H   UNL     1       4.014   5.576  17.282  0.00  0.00    +0.000 HD
BRANCH  24  26
ATOM     26  S   UNL     1       2.348   4.160  17.795  0.00  0.00    +0.000 S 
ATOM     27  C   UNL     1       2.244   3.435  19.417  0.00  0.00    +0.000 C 
ATOM     28  O   UNL     1       1.042   4.639  17.401  0.00  0.00    +0.000 OA
ATOM     29  O   UNL     1       3.103   3.254  16.954  0.00  0.00    +0.000 OA
ENDBRANCH  24  26
ENDBRANCH  21  24
ENDBRANCH   3  18
BRANCH   6  30
ATOM     30  C   UNL     1       2.035  14.122  19.824  0.00  0.00    +0.000 A 
ATOM     31  C   UNL     1       1.973  14.479  18.471  0.00  0.00    +0.000 A 
ATOM     32  C   UNL     1       3.120  14.934  17.811  0.00  0.00    +0.000 A 
ATOM     33  C   UNL     1       4.330  15.034  18.498  0.00  0.00    +0.000 A 
ATOM     34  C   UNL     1       4.394  14.703  19.849  0.00  0.00    +0.000 A 
ATOM     35  C   UNL     1       3.246  14.271  20.514  0.00  0.00    +0.000 A 
ENDBRANCH   6  30
TORSDOF 7
ENDMDL
MODEL 8
REMARK VINA RESULT:      -7.1      3.834     11.024
REMARK  Name = 
REMARK  10 active torsions:
REMARK  status: ('A' for Active; 'I' for Inactive)
REMARK    1  A    between atoms: C_1  and  O_2
REMARK    2  A    between atoms: O_2  and  C_3
REMARK    3  A    between atoms: C_7  and  C_8
REMARK    4  A    between atoms: C_10  and  C_11
REMARK    5  A    between atoms: C_14  and  N_15
REMARK    6  A    between atoms: N_15  and  S_16
REMARK    7  A    between atoms: S_16  and  C_17
REMARK    8  A    between atoms: C_24  and  C_26
REMARK    9  A    between atoms: C_32  and  O_33
REMARK   10  A    between atoms: O_33  and  C_34
REMARK                            x       y       z     vdW  Elec       q    Type
REMARK                         _______ _______ _______ _____ _____    ______ ____
ROOT
ATOM      1  C   UNL     1       5.015   5.859  17.742  0.00  0.00    +0.000 C 
ATOM      2  C   UNL     1       4.378   7.232  17.497  0.00  0.00    +0.000 C 
ATOM      3  C   UNL     1       3.163   7.131  18.371  0.00  0.00    +0.000 C 
ATOM      4  N   UNL     1       2.933   5.954  18.859  0.00  0.00    +0.000 NA
ATOM      5  N   UNL     1       3.964   5.135  18.479  0.00  0.00    +0.000 N 
ATOM      6  C   UNL     1       4.082   3.831  18.961  0.00  0.00    +0.000 C 
ATOM      7  O   UNL     1       5.018   3.083  18.681  0.00  0.00    +0.000 OA
ENDROOT
BRANCH   1  12
ATOM      8  C   UNL     1       7.095   5.175  14.599  0.00  0.00    +0.000 A 
ATOM      9  C   UNL     1       6.230   4.324  13.890  0.00  0.00    +0.000 A 
ATOM     10  C   UNL     1       4.976   4.007  14.393  0.00  0.00    +0.000 A 
ATOM     11  C   UNL     1       4.588   4.500  15.633  0.00  0.00    +0.000 A 
ATOM     12  C   UNL     1       5.465   5.277  16.410  0.00  0.00    +0.000 A 
ATOM     13  C   UNL     1       6.747   5.607  15.892  0.00  0.00    +0.000 A 
BRANCH   8  15
ATOM     14  C   UNL     1       8.228   5.710  12.607  0.00  0.00    +0.000 C 
ATOM     15  O   UNL     1       8.279   5.577  14.029  0.00  0.00    +0.000 OA
ENDBRANCH   8  15
BRANCH  13  16
ATOM     16  O   UNL     1       7.495   6.400  16.732  0.00  0.00    +0.000 OA
ATOM     17  C   UNL     1       7.820   5.935  18.034  0.00  0.00    +0.000 C 
ENDBRANCH  13  16
ENDBRANCH   1  12
BRANCH   3  18
ATOM     18  C   UNL     1       2.265   8.280  18.629  0.00  0.00    +0.000 A 
ATOM     19  C   UNL     1       1.562   8.401  19.829  0.00  0.00    +0.000 A 
ATOM     20  C   UNL     1       0.757   9.519  20.057  0.00  0.00    +0.000 A 
ATOM     21  C   UNL     1       0.636  10.508  19.079  0.00  0.00    +0.000 A 
ATOM     22  C   UNL     1       1.326  10.392  17.872  0.00  0.00    +0.000 A 
ATOM     23  C   UNL     1       2.140   9.278  17.650  0.00  0.00    +0.000 A 
BRANCH  21  24
ATOM     24  N   UNL     1      -0.159  11.655  19.363  0.00  0.00    +0.000 N 
ATOM     25  H   UNL     1      -0.524  12.150  18.547  0.00  0.00    +0.000 HD
BRANCH  24  26
ATOM     26  S   UNL     1       0.471  12.784  20.459  0.00  0.00    +0.000 S 
ATOM     27  C   UNL     1      -0.493  14.228  20.070  0.00  0.00    +0.000 C 
ATOM     28  O   UNL     1       0.187  12.370  21.814  0.00  0.00    +0.000 OA
ATOM     29  O   UNL     1       1.829  13.027  20.015  0.00  0.00    +0.000 OA
ENDBRANCH  24  26
ENDBRANCH  21  24
ENDBRANCH   3  18
BRANCH   6  30
ATOM     30  C   UNL     1       2.989   3.292  19.829  0.00  0.00    +0.000 A 
ATOM     31  C   UNL     1       1.774   2.922  19.237  0.00  0.00    +0.000 A 
ATOM     32  C   UNL     1       0.734   2.421  20.025  0.00  0.00    +0.000 A 
ATOM     33  C   UNL     1       0.901   2.286  21.404  0.00  0.00    +0.000 A 
ATOM     34  C   UNL     1       2.114   2.630  21.996  0.00  0.00    +0.000 A 
ATOM     35  C   UNL     1       3.161   3.109  21.207  0.00  0.00    +0.000 A 
ENDBRANCH   6  30
TORSDOF 7
ENDMDL
MODEL 9
REMARK VINA RESULT:      -7.1      1.662      2.015
REMARK  Name = 
REMARK  10 active torsions:
REMARK  status: ('A' for Active; 'I' for Inactive)
REMARK    1  A    between atoms: C_1  and  O_2
REMARK    2  A    between atoms: O_2  and  C_3
REMARK    3  A    between atoms: C_7  and  C_8
REMARK    4  A    between atoms: C_10  and  C_11
REMARK    5  A    between atoms: C_14  and  N_15
REMARK    6  A    between atoms: N_15  and  S_16
REMARK    7  A    between atoms: S_16  and  C_17
REMARK    8  A    between atoms: C_24  and  C_26
REMARK    9  A    between atoms: C_32  and  O_33
REMARK   10  A    between atoms: O_33  and  C_34
REMARK                            x       y       z     vdW  Elec       q    Type
REMARK                         _______ _______ _______ _____ _____    ______ ____
ROOT
ATOM      1  C   UNL     1      -0.712  11.425  20.557  0.00  0.00    +0.000 C 
ATOM      2  C   UNL     1      -0.486   9.969  20.130  0.00  0.00    +0.000 C 
ATOM      3  C   UNL     1       0.911  10.054  19.593  0.00  0.00    +0.000 C 
ATOM      4  N   UNL     1       1.383  11.254  19.474  0.00  0.00    +0.000 NA
ATOM      5  N   UNL     1       0.448  12.122  19.976  0.00  0.00    +0.000 N 
ATOM      6  C   UNL     1       0.713  13.485  20.118  0.00  0.00    +0.000 C 
ATOM      7  O   UNL     1      -0.083  14.286  20.608  0.00  0.00    +0.000 OA
ENDROOT
BRANCH   1  12
ATOM      8  C   UNL     1      -4.282  12.812  20.622  0.00  0.00    +0.000 A 
ATOM      9  C   UNL     1      -4.695  12.541  19.306  0.00  0.00    +0.000 A 
ATOM     10  C   UNL     1      -3.854  11.883  18.420  0.00  0.00    +0.000 A 
ATOM     11  C   UNL     1      -2.573  11.526  18.824  0.00  0.00    +0.000 A 
ATOM     12  C   UNL     1      -2.096  11.865  20.102  0.00  0.00    +0.000 A 
ATOM     13  C   UNL     1      -2.959  12.534  21.012  0.00  0.00    +0.000 A 
BRANCH   8  15
ATOM     14  C   UNL     1      -6.368  12.591  21.688  0.00  0.00    +0.000 C 
ATOM     15  O   UNL     1      -5.171  13.352  21.520  0.00  0.00    +0.000 OA
ENDBRANCH   8  15
BRANCH  13  16
ATOM     16  O   UNL     1      -2.387  12.778  22.239  0.00  0.00    +0.000 OA
ATOM     17  C   UNL     1      -2.820  12.044  23.375  0.00  0.00    +0.000 C 
ENDBRANCH  13  16
ENDBRANCH   1  12
BRANCH   3  18
ATOM     18  C   UNL     1       1.687   8.860  19.189  0.00  0.00    +0.000 A 
ATOM     19  C   UNL     1       1.872   7.782  20.057  0.00  0.00    +0.000 A 
ATOM     20  C   UNL     1       2.573   6.653  19.629  0.00  0.00    +0.000 A 
ATOM     21  C   UNL     1       3.109   6.606  18.341  0.00  0.00    +0.000 A 
ATOM     22  C   UNL     1       2.939   7.681  17.469  0.00  0.00    +0.000 A 
ATOM     23  C   UNL     1       2.228   8.806  17.895  0.00  0.00    +0.000 A 
BRANCH  21  24
ATOM     24  N   UNL     1       3.780   5.421  17.924  0.00  0.00    +0.000 N 
ATOM     25  H   UNL     1       3.406   4.548  18.302  0.00  0.00    +0.000 HD
BRANCH  24  26
ATOM     26  S   UNL     1       5.470   5.400  18.051  0.00  0.00    +0.000 S 
ATOM     27  C   UNL     1       5.911   4.321  16.708  0.00  0.00    +0.000 C 
ATOM     28  O   UNL     1       6.002   6.720  17.799  0.00  0.00    +0.000 OA
ATOM     29  O   UNL     1       5.749   4.701  19.290  0.00  0.00    +0.000 OA
ENDBRANCH  24  26
ENDBRANCH  21  24
ENDBRANCH   3  18
BRANCH   6  30
ATOM     30  C   UNL     1       2.014  14.013  19.605  0.00  0.00    +0.000 A 
ATOM     31  C   UNL     1       2.110  14.387  18.258  0.00  0.00    +0.000 A 
ATOM     32  C   UNL     1       3.317  14.880  17.750  0.00  0.00    +0.000 A 
ATOM     33  C   UNL     1       4.430  15.002  18.583  0.00  0.00    +0.000 A 
ATOM     34  C   UNL     1       4.335  14.653  19.928  0.00  0.00    +0.000 A 
ATOM     35  C   UNL     1       3.126  14.184  20.441  0.00  0.00    +0.000 A 
ENDBRANCH   6  30
TORSDOF 7
ENDMDL
