MODEL 1
REMARK VINA RESULT:      -6.8      0.000      0.000
REMARK  Name = 
REMARK  6 active torsions:
REMARK  status: ('A' for Active; 'I' for Inactive)
REMARK    1  A    between atoms: C_1  and  C_2
REMARK    2  A    between atoms: C_2  and  N_3
REMARK    3  A    between atoms: N_3  and  C_4
REMARK    4  A    between atoms: N_3  and  S_16
REMARK    5  A    between atoms: N_7  and  C_8
REMARK    6  A    between atoms: S_16  and  C_17
REMARK                            x       y       z     vdW  Elec       q    Type
REMARK                         _______ _______ _______ _____ _____    ______ ____
ROOT
ATOM      1  C   UNL     1       4.433   5.109  17.280  0.00  0.00    +0.000 C 
ATOM      2  C   UNL     1       3.346   4.253  17.934  0.00  0.00    +0.000 C 
ATOM      3  C   UNL     1       2.188   5.213  18.142  0.00  0.00    +0.000 C 
ATOM      4  N   UNL     1       2.791   6.518  18.258  0.00  0.00    +0.000 N 
ATOM      5  C   UNL     1       4.059   6.524  17.668  0.00  0.00    +0.000 C 
ATOM      6  O   UNL     1       4.784   7.489  17.478  0.00  0.00    +0.000 OA
ENDROOT
BRANCH   4   7
ATOM      7  C   UNL     1       2.098   7.664  18.750  0.00  0.00    +0.000 A 
ATOM      8  C   UNL     1       1.770   7.813  20.109  0.00  0.00    +0.000 A 
ATOM      9  C   UNL     1       1.087   8.936  20.583  0.00  0.00    +0.000 A 
ATOM     10  C   UNL     1       0.700   9.938  19.704  0.00  0.00    +0.000 A 
ATOM     11  C   UNL     1       1.003   9.814  18.353  0.00  0.00    +0.000 A 
ATOM     12  C   UNL     1       1.702   8.693  17.881  0.00  0.00    +0.000 A 
ENDBRANCH   4   7
BRANCH   1  13
ATOM     13  N   UNL     1       5.837   4.682  17.628  0.00  0.00    +0.000 NA
BRANCH  13  14
ATOM     14  S   UNL     1       6.957   4.770  16.333  0.00  0.00    +0.000 S 
ATOM     15  C   UNL     1       6.234   3.797  15.014  0.00  0.00    +0.000 C 
ATOM     16  O   UNL     1       6.986   6.141  15.879  0.00  0.00    +0.000 OA
ATOM     17  O   UNL     1       8.189   4.131  16.758  0.00  0.00    +0.000 OA
ENDBRANCH  13  14
BRANCH  13  19
ATOM     18  C   UNL     1       7.526   5.978  19.019  0.00  0.00    +0.000 C 
ATOM     19  C   UNL     1       6.315   5.057  18.994  0.00  0.00    +0.000 C 
ENDBRANCH  13  19
ENDBRANCH   1  13
TORSDOF 4
ENDMDL
MODEL 2
REMARK VINA RESULT:      -6.7      2.326      3.685
REMARK  Name = 
REMARK  6 active torsions:
REMARK  status: ('A' for Active; 'I' for Inactive)
REMARK    1  A    between atoms: C_1  and  C_2
REMARK    2  A    between atoms: C_2  and  N_3
REMARK    3  A    between atoms: N_3  and  C_4
REMARK    4  A    between atoms: N_3  and  S_16
REMARK    5  A    between atoms: N_7  and  C_8
REMARK    6  A    between atoms: S_16  and  C_17
REMARK                            x       y       z     vdW  Elec       q    Type
REMARK                         _______ _______ _______ _____ _____    ______ ____
ROOT
ATOM      1  C   UNL     1       5.504   6.350  18.135  0.00  0.00    +0.000 C 
ATOM      2  C   UNL     1       4.374   6.994  17.330  0.00  0.00    +0.000 C 
ATOM      3  C   UNL     1       3.106   6.513  18.015  0.00  0.00    +0.000 C 
ATOM      4  N   UNL     1       3.456   5.253  18.622  0.00  0.00    +0.000 N 
ATOM      5  C   UNL     1       4.839   5.168  18.810  0.00  0.00    +0.000 C 
ATOM      6  O   UNL     1       5.455   4.299  19.409  0.00  0.00    +0.000 OA
ENDROOT
BRANCH   4   7
ATOM      7  C   UNL     1       2.493   4.322  19.115  0.00  0.00    +0.000 A 
ATOM      8  C   UNL     1       2.163   4.243  20.480  0.00  0.00    +0.000 A 
ATOM      9  C   UNL     1       1.223   3.326  20.957  0.00  0.00    +0.000 A 
ATOM     10  C   UNL     1       0.596   2.451  20.081  0.00  0.00    +0.000 A 
ATOM     11  C   UNL     1       0.910   2.500  18.728  0.00  0.00    +0.000 A 
ATOM     12  C   UNL     1       1.842   3.431  18.248  0.00  0.00    +0.000 A 
ENDBRANCH   4   7
BRANCH   1  13
ATOM     13  N   UNL     1       6.732   6.034  17.318  0.00  0.00    +0.000 NA
BRANCH  13  14
ATOM     14  S   UNL     1       6.416   5.544  15.705  0.00  0.00    +0.000 S 
ATOM     15  C   UNL     1       5.689   3.911  15.840  0.00  0.00    +0.000 C 
ATOM     16  O   UNL     1       5.393   6.419  15.180  0.00  0.00    +0.000 OA
ATOM     17  O   UNL     1       7.685   5.430  15.012  0.00  0.00    +0.000 OA
ENDBRANCH  13  14
BRANCH  13  19
ATOM     18  C   UNL     1       7.629   8.395  17.616  0.00  0.00    +0.000 C 
ATOM     19  C   UNL     1       7.923   6.902  17.565  0.00  0.00    +0.000 C 
ENDBRANCH  13  19
ENDBRANCH   1  13
TORSDOF 4
ENDMDL
MODEL 3
REMARK VINA RESULT:      -6.7      2.334      3.809
REMARK  Name = 
REMARK  6 active torsions:
REMARK  status: ('A' for Active; 'I' for Inactive)
REMARK    1  A    between atoms: C_1  and  C_2
REMARK    2  A    between atoms: C_2  and  N_3
REMARK    3  A    between atoms: N_3  and  C_4
REMARK    4  A    between atoms: N_3  and  S_16
REMARK    5  A    between atoms: N_7  and  C_8
REMARK    6  A    between atoms: S_16  and  C_17
REMARK                            x       y       z     vdW  Elec       q    Type
REMARK                         _______ _______ _______ _____ _____    ______ ____
ROOT
ATOM      1  C   UNL     1       5.520   6.327  18.135  0.00  0.00    +0.000 C 
ATOM      2  C   UNL     1       4.393   6.986  17.339  0.00  0.00    +0.000 C 
ATOM      3  C   UNL     1       3.123   6.497  18.012  0.00  0.00    +0.000 C 
ATOM      4  N   UNL     1       3.468   5.225  18.598  0.00  0.00    +0.000 N 
ATOM      5  C   UNL     1       4.851   5.134  18.787  0.00  0.00    +0.000 C 
ATOM      6  O   UNL     1       5.465   4.254  19.372  0.00  0.00    +0.000 OA
ENDROOT
BRANCH   4   7
ATOM      7  C   UNL     1       2.503   4.288  19.073  0.00  0.00    +0.000 A 
ATOM      8  C   UNL     1       1.875   3.365  18.218  0.00  0.00    +0.000 A 
ATOM      9  C   UNL     1       0.927   2.453  18.688  0.00  0.00    +0.000 A 
ATOM     10  C   UNL     1       0.569   2.450  20.029  0.00  0.00    +0.000 A 
ATOM     11  C   UNL     1       1.166   3.358  20.896  0.00  0.00    +0.000 A 
ATOM     12  C   UNL     1       2.129   4.262  20.426  0.00  0.00    +0.000 A 
ENDBRANCH   4   7
BRANCH   1  13
ATOM     13  N   UNL     1       6.749   6.022  17.314  0.00  0.00    +0.000 NA
BRANCH  13  14
ATOM     14  S   UNL     1       6.435   5.541  15.699  0.00  0.00    +0.000 S 
ATOM     15  C   UNL     1       5.707   3.908  15.824  0.00  0.00    +0.000 C 
ATOM     16  O   UNL     1       5.413   6.419  15.178  0.00  0.00    +0.000 OA
ATOM     17  O   UNL     1       7.704   5.431  15.006  0.00  0.00    +0.000 OA
ENDBRANCH  13  14
BRANCH  13  19
ATOM     18  C   UNL     1       7.640   8.387  17.596  0.00  0.00    +0.000 C 
ATOM     19  C   UNL     1       7.936   6.895  17.567  0.00  0.00    +0.000 C 
ENDBRANCH  13  19
ENDBRANCH   1  13
TORSDOF 4
ENDMDL
MODEL 4
REMARK VINA RESULT:      -6.7      0.484      1.197
REMARK  Name = 
REMARK  6 active torsions:
REMARK  status: ('A' for Active; 'I' for Inactive)
REMARK    1  A    between atoms: C_1  and  C_2
REMARK    2  A    between atoms: C_2  and  N_3
REMARK    3  A    between atoms: N_3  and  C_4
REMARK    4  A    between atoms: N_3  and  S_16
REMARK    5  A    between atoms: N_7  and  C_8
REMARK    6  A    between atoms: S_16  and  C_17
REMARK                            x       y       z     vdW  Elec       q    Type
REMARK                         _______ _______ _______ _____ _____    ______ ____
ROOT
ATOM      1  C   UNL     1       4.552   4.984  17.886  0.00  0.00    +0.000 C 
ATOM      2  C   UNL     1       3.705   4.278  18.947  0.00  0.00    +0.000 C 
ATOM      3  C   UNL     1       2.469   5.152  19.082  0.00  0.00    +0.000 C 
ATOM      4  N   UNL     1       2.897   6.477  18.706  0.00  0.00    +0.000 N 
ATOM      5  C   UNL     1       4.048   6.413  17.915  0.00  0.00    +0.000 C 
ATOM      6  O   UNL     1       4.597   7.332  17.326  0.00  0.00    +0.000 OA
ENDROOT
BRANCH   4   7
ATOM      7  C   UNL     1       2.134   7.654  18.968  0.00  0.00    +0.000 A 
ATOM      8  C   UNL     1       1.812   8.575  17.955  0.00  0.00    +0.000 A 
ATOM      9  C   UNL     1       1.070   9.729  18.218  0.00  0.00    +0.000 A 
ATOM     10  C   UNL     1       0.639  10.000  19.510  0.00  0.00    +0.000 A 
ATOM     11  C   UNL     1       0.951   9.112  20.533  0.00  0.00    +0.000 A 
ATOM     12  C   UNL     1       1.683   7.947  20.264  0.00  0.00    +0.000 A 
ENDBRANCH   4   7
BRANCH   1  13
ATOM     13  N   UNL     1       6.038   4.808  18.076  0.00  0.00    +0.000 NA
BRANCH  13  14
ATOM     14  S   UNL     1       6.949   4.773  16.624  0.00  0.00    +0.000 S 
ATOM     15  C   UNL     1       5.986   3.779  15.484  0.00  0.00    +0.000 C 
ATOM     16  O   UNL     1       6.972   6.117  16.095  0.00  0.00    +0.000 OA
ATOM     17  O   UNL     1       8.199   4.088  16.893  0.00  0.00    +0.000 OA
ENDBRANCH  13  14
BRANCH  13  19
ATOM     18  C   UNL     1       7.912   6.273  18.973  0.00  0.00    +0.000 C 
ATOM     19  C   UNL     1       6.633   5.501  19.259  0.00  0.00    +0.000 C 
ENDBRANCH  13  19
ENDBRANCH   1  13
TORSDOF 4
ENDMDL
MODEL 5
REMARK VINA RESULT:      -6.7      2.437      3.799
REMARK  Name = 
REMARK  6 active torsions:
REMARK  status: ('A' for Active; 'I' for Inactive)
REMARK    1  A    between atoms: C_1  and  C_2
REMARK    2  A    between atoms: C_2  and  N_3
REMARK    3  A    between atoms: N_3  and  C_4
REMARK    4  A    between atoms: N_3  and  S_16
REMARK    5  A    between atoms: N_7  and  C_8
REMARK    6  A    between atoms: S_16  and  C_17
REMARK                            x       y       z     vdW  Elec       q    Type
REMARK                         _______ _______ _______ _____ _____    ______ ____
ROOT
ATOM      1  C   UNL     1       5.449   6.351  17.990  0.00  0.00    +0.000 C 
ATOM      2  C   UNL     1       4.192   7.052  17.470  0.00  0.00    +0.000 C 
ATOM      3  C   UNL     1       3.098   6.621  18.432  0.00  0.00    +0.000 C 
ATOM      4  N   UNL     1       3.523   5.341  18.942  0.00  0.00    +0.000 N 
ATOM      5  C   UNL     1       4.907   5.193  18.802  0.00  0.00    +0.000 C 
ATOM      6  O   UNL     1       5.606   4.293  19.241  0.00  0.00    +0.000 OA
ENDROOT
BRANCH   4   7
ATOM      7  C   UNL     1       2.661   4.449  19.648  0.00  0.00    +0.000 A 
ATOM      8  C   UNL     1       2.759   4.260  21.038  0.00  0.00    +0.000 A 
ATOM      9  C   UNL     1       1.915   3.381  21.722  0.00  0.00    +0.000 A 
ATOM     10  C   UNL     1       0.957   2.654  21.029  0.00  0.00    +0.000 A 
ATOM     11  C   UNL     1       0.844   2.814  19.653  0.00  0.00    +0.000 A 
ATOM     12  C   UNL     1       1.681   3.707  18.970  0.00  0.00    +0.000 A 
ENDBRANCH   4   7
BRANCH   1  13
ATOM     13  N   UNL     1       6.437   5.990  16.908  0.00  0.00    +0.000 NA
BRANCH  13  14
ATOM     14  S   UNL     1       5.732   5.429  15.449  0.00  0.00    +0.000 S 
ATOM     15  C   UNL     1       7.093   4.764  14.491  0.00  0.00    +0.000 C 
ATOM     16  O   UNL     1       4.870   4.319  15.784  0.00  0.00    +0.000 OA
ATOM     17  O   UNL     1       5.186   6.573  14.744  0.00  0.00    +0.000 OA
ENDBRANCH  13  14
BRANCH  13  19
ATOM     18  C   UNL     1       7.771   7.911  17.906  0.00  0.00    +0.000 C 
ATOM     19  C   UNL     1       7.648   6.859  16.812  0.00  0.00    +0.000 C 
ENDBRANCH  13  19
ENDBRANCH   1  13
TORSDOF 4
ENDMDL
MODEL 6
REMARK VINA RESULT:      -6.7      2.435      3.938
REMARK  Name = 
REMARK  6 active torsions:
REMARK  status: ('A' for Active; 'I' for Inactive)
REMARK    1  A    between atoms: C_1  and  C_2
REMARK    2  A    between atoms: C_2  and  N_3
REMARK    3  A    between atoms: N_3  and  C_4
REMARK    4  A    between atoms: N_3  and  S_16
REMARK    5  A    between atoms: N_7  and  C_8
REMARK    6  A    between atoms: S_16  and  C_17
REMARK                            x       y       z     vdW  Elec       q    Type
REMARK                         _______ _______ _______ _____ _____    ______ ____
ROOT
ATOM      1  C   UNL     1       5.458   6.359  18.006  0.00  0.00    +0.000 C 
ATOM      2  C   UNL     1       4.194   7.067  17.513  0.00  0.00    +0.000 C 
ATOM      3  C   UNL     1       3.108   6.601  18.467  0.00  0.00    +0.000 C 
ATOM      4  N   UNL     1       3.543   5.309  18.937  0.00  0.00    +0.000 N 
ATOM      5  C   UNL     1       4.927   5.174  18.786  0.00  0.00    +0.000 C 
ATOM      6  O   UNL     1       5.633   4.265  19.195  0.00  0.00    +0.000 OA
ENDROOT
BRANCH   4   7
ATOM      7  C   UNL     1       2.690   4.391  19.619  0.00  0.00    +0.000 A 
ATOM      8  C   UNL     1       1.797   3.550  18.932  0.00  0.00    +0.000 A 
ATOM      9  C   UNL     1       0.960   2.657  19.606  0.00  0.00    +0.000 A 
ATOM     10  C   UNL     1       0.985   2.591  20.993  0.00  0.00    +0.000 A 
ATOM     11  C   UNL     1       1.850   3.417  21.699  0.00  0.00    +0.000 A 
ATOM     12  C   UNL     1       2.700   4.302  21.020  0.00  0.00    +0.000 A 
ENDBRANCH   4   7
BRANCH   1  13
ATOM     13  N   UNL     1       6.442   6.036  16.910  0.00  0.00    +0.000 NA
BRANCH  13  14
ATOM     14  S   UNL     1       5.737   5.461  15.456  0.00  0.00    +0.000 S 
ATOM     15  C   UNL     1       7.102   4.815  14.490  0.00  0.00    +0.000 C 
ATOM     16  O   UNL     1       4.895   4.339  15.799  0.00  0.00    +0.000 OA
ATOM     17  O   UNL     1       5.168   6.595  14.752  0.00  0.00    +0.000 OA
ENDBRANCH  13  14
BRANCH  13  19
ATOM     18  C   UNL     1       7.859   7.835  18.015  0.00  0.00    +0.000 C 
ATOM     19  C   UNL     1       7.624   6.945  16.803  0.00  0.00    +0.000 C 
ENDBRANCH  13  19
ENDBRANCH   1  13
TORSDOF 4
ENDMDL
MODEL 7
REMARK VINA RESULT:      -6.5      1.113      1.216
REMARK  Name = 
REMARK  6 active torsions:
REMARK  status: ('A' for Active; 'I' for Inactive)
REMARK    1  A    between atoms: C_1  and  C_2
REMARK    2  A    between atoms: C_2  and  N_3
REMARK    3  A    between atoms: N_3  and  C_4
REMARK    4  A    between atoms: N_3  and  S_16
REMARK    5  A    between atoms: N_7  and  C_8
REMARK    6  A    between atoms: S_16  and  C_17
REMARK                            x       y       z     vdW  Elec       q    Type
REMARK                         _______ _______ _______ _____ _____    ______ ____
ROOT
ATOM      1  C   UNL     1       4.905   5.718  17.794  0.00  0.00    +0.000 C 
ATOM      2  C   UNL     1       4.649   5.241  19.225  0.00  0.00    +0.000 C 
ATOM      3  C   UNL     1       3.283   5.807  19.569  0.00  0.00    +0.000 C 
ATOM      4  N   UNL     1       3.143   6.987  18.753  0.00  0.00    +0.000 N 
ATOM      5  C   UNL     1       3.995   6.920  17.646  0.00  0.00    +0.000 C 
ATOM      6  O   UNL     1       4.038   7.684  16.694  0.00  0.00    +0.000 OA
ENDROOT
BRANCH   4   7
ATOM      7  C   UNL     1       2.141   7.981  18.969  0.00  0.00    +0.000 A 
ATOM      8  C   UNL     1       1.630   8.258  20.249  0.00  0.00    +0.000 A 
ATOM      9  C   UNL     1       0.645   9.229  20.454  0.00  0.00    +0.000 A 
ATOM     10  C   UNL     1       0.135   9.940  19.377  0.00  0.00    +0.000 A 
ATOM     11  C   UNL     1       0.615   9.681  18.099  0.00  0.00    +0.000 A 
ATOM     12  C   UNL     1       1.613   8.717  17.897  0.00  0.00    +0.000 A 
ENDBRANCH   4   7
BRANCH   1  13
ATOM     13  N   UNL     1       6.362   5.954  17.481  0.00  0.00    +0.000 NA
BRANCH  13  14
ATOM     14  S   UNL     1       7.035   4.876  16.331  0.00  0.00    +0.000 S 
ATOM     15  C   UNL     1       5.709   3.748  15.905  0.00  0.00    +0.000 C 
ATOM     16  O   UNL     1       7.334   5.642  15.143  0.00  0.00    +0.000 OA
ATOM     17  O   UNL     1       8.091   4.124  16.981  0.00  0.00    +0.000 OA
ENDBRANCH  13  14
BRANCH  13  19
ATOM     18  C   UNL     1       8.102   7.677  18.167  0.00  0.00    +0.000 C 
ATOM     19  C   UNL     1       6.798   7.383  17.440  0.00  0.00    +0.000 C 
ENDBRANCH  13  19
ENDBRANCH   1  13
TORSDOF 4
ENDMDL
MODEL 8
REMARK VINA RESULT:      -6.5      2.313      4.052
REMARK  Name = 
REMARK  6 active torsions:
REMARK  status: ('A' for Active; 'I' for Inactive)
REMARK    1  A    between atoms: C_1  and  C_2
REMARK    2  A    between atoms: C_2  and  N_3
REMARK    3  A    between atoms: N_3  and  C_4
REMARK    4  A    between atoms: N_3  and  S_16
REMARK    5  A    between atoms: N_7  and  C_8
REMARK    6  A    between atoms: S_16  and  C_17
REMARK                            x       y       z     vdW  Elec       q    Type
REMARK                         _______ _______ _______ _____ _____    ______ ____
ROOT
ATOM      1  C   UNL     1       4.933   5.992  17.516  0.00  0.00    +0.000 C 
ATOM      2  C   UNL     1       3.628   6.742  17.244  0.00  0.00    +0.000 C 
ATOM      3  C   UNL     1       2.740   6.387  18.424  0.00  0.00    +0.000 C 
ATOM      4  N   UNL     1       3.205   5.099  18.877  0.00  0.00    +0.000 N 
ATOM      5  C   UNL     1       4.521   4.881  18.459  0.00  0.00    +0.000 C 
ATOM      6  O   UNL     1       5.257   3.956  18.773  0.00  0.00    +0.000 OA
ENDROOT
BRANCH   4   7
ATOM      7  C   UNL     1       2.470   4.267  19.773  0.00  0.00    +0.000 A 
ATOM      8  C   UNL     1       2.842   4.110  21.120  0.00  0.00    +0.000 A 
ATOM      9  C   UNL     1       2.121   3.288  21.991  0.00  0.00    +0.000 A 
ATOM     10  C   UNL     1       1.012   2.590  21.533  0.00  0.00    +0.000 A 
ATOM     11  C   UNL     1       0.628   2.719  20.203  0.00  0.00    +0.000 A 
ATOM     12  C   UNL     1       1.343   3.555  19.334  0.00  0.00    +0.000 A 
ENDBRANCH   4   7
BRANCH   1  13
ATOM     13  N   UNL     1       5.658   5.558  16.266  0.00  0.00    +0.000 NA
BRANCH  13  14
ATOM     14  S   UNL     1       7.368   5.651  16.357  0.00  0.00    +0.000 S 
ATOM     15  C   UNL     1       7.710   6.925  17.571  0.00  0.00    +0.000 C 
ATOM     16  O   UNL     1       7.839   4.403  16.911  0.00  0.00    +0.000 OA
ATOM     17  O   UNL     1       7.865   6.095  15.068  0.00  0.00    +0.000 OA
ENDBRANCH  13  14
BRANCH  13  19
ATOM     18  C   UNL     1       5.638   4.157  14.144  0.00  0.00    +0.000 C 
ATOM     19  C   UNL     1       5.058   4.405  15.529  0.00  0.00    +0.000 C 
ENDBRANCH  13  19
ENDBRANCH   1  13
TORSDOF 4
ENDMDL
MODEL 9
REMARK VINA RESULT:      -6.4      2.585      3.933
REMARK  Name = 
REMARK  6 active torsions:
REMARK  status: ('A' for Active; 'I' for Inactive)
REMARK    1  A    between atoms: C_1  and  C_2
REMARK    2  A    between atoms: C_2  and  N_3
REMARK    3  A    between atoms: N_3  and  C_4
REMARK    4  A    between atoms: N_3  and  S_16
REMARK    5  A    between atoms: N_7  and  C_8
REMARK    6  A    between atoms: S_16  and  C_17
REMARK                            x       y       z     vdW  Elec       q    Type
REMARK                         _______ _______ _______ _____ _____    ______ ____
ROOT
ATOM      1  C   UNL     1       5.577   6.493  18.094  0.00  0.00    +0.000 C 
ATOM      2  C   UNL     1       4.403   6.695  17.134  0.00  0.00    +0.000 C 
ATOM      3  C   UNL     1       3.199   6.174  17.901  0.00  0.00    +0.000 C 
ATOM      4  N   UNL     1       3.727   5.192  18.816  0.00  0.00    +0.000 N 
ATOM      5  C   UNL     1       5.090   5.415  19.039  0.00  0.00    +0.000 C 
ATOM      6  O   UNL     1       5.811   4.853  19.849  0.00  0.00    +0.000 OA
ENDROOT
BRANCH   4   7
ATOM      7  C   UNL     1       2.914   4.252  19.518  0.00  0.00    +0.000 A 
ATOM      8  C   UNL     1       2.443   3.074  18.911  0.00  0.00    +0.000 A 
ATOM      9  C   UNL     1       1.642   2.160  19.602  0.00  0.00    +0.000 A 
ATOM     10  C   UNL     1       1.280   2.408  20.919  0.00  0.00    +0.000 A 
ATOM     11  C   UNL     1       1.724   3.569  21.541  0.00  0.00    +0.000 A 
ATOM     12  C   UNL     1       2.540   4.477  20.851  0.00  0.00    +0.000 A 
ENDBRANCH   4   7
BRANCH   1  13
ATOM     13  N   UNL     1       6.889   6.217  17.402  0.00  0.00    +0.000 NA
BRANCH  13  14
ATOM     14  S   UNL     1       6.951   4.733  16.545  0.00  0.00    +0.000 S 
ATOM     15  C   UNL     1       7.157   5.187  14.824  0.00  0.00    +0.000 C 
ATOM     16  O   UNL     1       8.160   4.052  16.949  0.00  0.00    +0.000 OA
ATOM     17  O   UNL     1       5.670   4.069  16.699  0.00  0.00    +0.000 OA
ENDBRANCH  13  14
BRANCH  13  19
ATOM     18  C   UNL     1       7.925   8.507  17.787  0.00  0.00    +0.000 C 
ATOM     19  C   UNL     1       7.574   7.401  16.801  0.00  0.00    +0.000 C 
ENDBRANCH  13  19
ENDBRANCH   1  13
TORSDOF 4
ENDMDL
