MODEL 1
REMARK VINA RESULT:      -7.8      0.000      0.000
REMARK  Name = 
REMARK  2 active torsions:
REMARK  status: ('A' for Active; 'I' for Inactive)
REMARK    1  A    between atoms: C_1  and  C_2
REMARK    2  A    between atoms: C_2  and  C_3
REMARK                            x       y       z     vdW  Elec       q    Type
REMARK                         _______ _______ _______ _____ _____    ______ ____
ROOT
ATOM      1  C   UNL     1       2.559   7.202  18.145  0.00  0.00    +0.000 C 
ATOM      2  C   UNL     1       2.716   5.763  18.695  0.00  0.00    +0.000 C 
ATOM      3  C   UNL     1       2.129   5.793  20.131  0.00  0.00    +0.000 C 
ATOM      4  C   UNL     1       2.081   4.473  20.897  0.00  0.00    +0.000 C 
ATOM      5  C   UNL     1       1.087   3.465  20.341  0.00  0.00    +0.000 C 
ATOM      6  C   UNL     1       1.613   2.619  19.193  0.00  0.00    +0.000 C 
ATOM      7  C   UNL     1       2.105   3.315  17.928  0.00  0.00    +0.000 C 
ATOM      8  C   UNL     1       1.891   4.821  17.776  0.00  0.00    +0.000 C 
ENDROOT
BRANCH   2   9
ATOM      9  C   UNL     1       4.229   5.403  18.744  0.00  0.00    +0.000 C 
ATOM     10  O   UNL     1       4.859   5.319  19.799  0.00  0.00    +0.000 OA
ATOM     11  N   UNL     1       4.821   5.109  17.545  0.00  0.00    +0.000 N 
ATOM     12  C   UNL     1       6.180   4.566  17.375  0.00  0.00    +0.000 C 
ATOM     13  C   UNL     1       5.989   4.949  15.958  0.00  0.00    +0.000 C 
ATOM     14  C   UNL     1       5.683   3.968  14.859  0.00  0.00    +0.000 C 
ATOM     15  C   UNL     1       6.878   4.886  14.772  0.00  0.00    +0.000 C 
ATOM     16  C   UNL     1       5.055   6.007  16.408  0.00  0.00    +0.000 C 
ENDBRANCH   2   9
TORSDOF 1
ENDMDL
MODEL 2
REMARK VINA RESULT:      -6.9      1.673      2.148
REMARK  Name = 
REMARK  2 active torsions:
REMARK  status: ('A' for Active; 'I' for Inactive)
REMARK    1  A    between atoms: C_1  and  C_2
REMARK    2  A    between atoms: C_2  and  C_3
REMARK                            x       y       z     vdW  Elec       q    Type
REMARK                         _______ _______ _______ _____ _____    ______ ____
ROOT
ATOM      1  C   UNL     1       2.529   6.263  17.916  0.00  0.00    +0.000 C 
ATOM      2  C   UNL     1       2.588   4.867  18.586  0.00  0.00    +0.000 C 
ATOM      3  C   UNL     1       2.526   5.130  20.114  0.00  0.00    +0.000 C 
ATOM      4  C   UNL     1       2.490   3.911  21.034  0.00  0.00    +0.000 C 
ATOM      5  C   UNL     1       1.199   3.110  20.958  0.00  0.00    +0.000 C 
ATOM      6  C   UNL     1       1.149   2.089  19.834  0.00  0.00    +0.000 C 
ATOM      7  C   UNL     1       1.314   2.566  18.394  0.00  0.00    +0.000 C 
ATOM      8  C   UNL     1       1.346   4.068  18.108  0.00  0.00    +0.000 C 
ENDROOT
BRANCH   2   9
ATOM      9  C   UNL     1       3.937   4.186  18.216  0.00  0.00    +0.000 C 
ATOM     10  O   UNL     1       4.019   3.000  17.896  0.00  0.00    +0.000 OA
ATOM     11  N   UNL     1       5.039   4.999  18.193  0.00  0.00    +0.000 N 
ATOM     12  C   UNL     1       6.371   4.616  17.693  0.00  0.00    +0.000 C 
ATOM     13  C   UNL     1       6.815   5.849  18.382  0.00  0.00    +0.000 C 
ATOM     14  C   UNL     1       7.145   7.133  17.670  0.00  0.00    +0.000 C 
ATOM     15  C   UNL     1       8.149   6.465  18.578  0.00  0.00    +0.000 C 
ATOM     16  C   UNL     1       5.679   5.689  19.319  0.00  0.00    +0.000 C 
ENDBRANCH   2   9
TORSDOF 1
ENDMDL
MODEL 3
REMARK VINA RESULT:      -6.7      1.630      2.401
REMARK  Name = 
REMARK  2 active torsions:
REMARK  status: ('A' for Active; 'I' for Inactive)
REMARK    1  A    between atoms: C_1  and  C_2
REMARK    2  A    between atoms: C_2  and  C_3
REMARK                            x       y       z     vdW  Elec       q    Type
REMARK                         _______ _______ _______ _____ _____    ______ ____
ROOT
ATOM      1  C   UNL     1       3.233   3.274  16.796  0.00  0.00    +0.000 C 
ATOM      2  C   UNL     1       3.127   3.512  18.323  0.00  0.00    +0.000 C 
ATOM      3  C   UNL     1       2.341   4.839  18.490  0.00  0.00    +0.000 C 
ATOM      4  C   UNL     1       2.018   5.288  19.914  0.00  0.00    +0.000 C 
ATOM      5  C   UNL     1       1.002   4.411  20.629  0.00  0.00    +0.000 C 
ATOM      6  C   UNL     1       1.586   3.178  21.299  0.00  0.00    +0.000 C 
ATOM      7  C   UNL     1       2.342   2.162  20.448  0.00  0.00    +0.000 C 
ATOM      8  C   UNL     1       2.340   2.319  18.927  0.00  0.00    +0.000 C 
ENDROOT
BRANCH   2   9
ATOM      9  C   UNL     1       4.561   3.663  18.910  0.00  0.00    +0.000 C 
ATOM     10  O   UNL     1       4.980   2.962  19.832  0.00  0.00    +0.000 OA
ATOM     11  N   UNL     1       5.373   4.579  18.296  0.00  0.00    +0.000 N 
ATOM     12  C   UNL     1       6.812   4.754  18.560  0.00  0.00    +0.000 C 
ATOM     13  C   UNL     1       6.637   6.023  17.818  0.00  0.00    +0.000 C 
ATOM     14  C   UNL     1       7.083   6.229  16.396  0.00  0.00    +0.000 C 
ATOM     15  C   UNL     1       7.562   7.138  17.502  0.00  0.00    +0.000 C 
ATOM     16  C   UNL     1       5.221   6.038  18.253  0.00  0.00    +0.000 C 
ENDBRANCH   2   9
TORSDOF 1
ENDMDL
MODEL 4
REMARK VINA RESULT:      -6.7      1.127      2.055
REMARK  Name = 
REMARK  2 active torsions:
REMARK  status: ('A' for Active; 'I' for Inactive)
REMARK    1  A    between atoms: C_1  and  C_2
REMARK    2  A    between atoms: C_2  and  C_3
REMARK                            x       y       z     vdW  Elec       q    Type
REMARK                         _______ _______ _______ _____ _____    ______ ____
ROOT
ATOM      1  C   UNL     1       2.585   3.054  16.848  0.00  0.00    +0.000 C 
ATOM      2  C   UNL     1       2.942   3.649  18.233  0.00  0.00    +0.000 C 
ATOM      3  C   UNL     1       2.206   5.013  18.308  0.00  0.00    +0.000 C 
ATOM      4  C   UNL     1       2.319   5.799  19.613  0.00  0.00    +0.000 C 
ATOM      5  C   UNL     1       1.593   5.163  20.789  0.00  0.00    +0.000 C 
ATOM      6  C   UNL     1       2.388   4.096  21.525  0.00  0.00    +0.000 C 
ATOM      7  C   UNL     1       2.878   2.875  20.753  0.00  0.00    +0.000 C 
ATOM      8  C   UNL     1       2.410   2.669  19.313  0.00  0.00    +0.000 C 
ENDROOT
BRANCH   2   9
ATOM      9  C   UNL     1       4.481   3.868  18.306  0.00  0.00    +0.000 C 
ATOM     10  O   UNL     1       5.113   3.800  19.361  0.00  0.00    +0.000 OA
ATOM     11  N   UNL     1       5.121   4.073  17.113  0.00  0.00    +0.000 N 
ATOM     12  C   UNL     1       6.582   4.115  16.926  0.00  0.00    +0.000 C 
ATOM     13  C   UNL     1       6.241   4.692  15.606  0.00  0.00    +0.000 C 
ATOM     14  C   UNL     1       6.305   3.923  14.314  0.00  0.00    +0.000 C 
ATOM     15  C   UNL     1       7.071   5.211  14.492  0.00  0.00    +0.000 C 
ATOM     16  C   UNL     1       4.987   5.213  16.199  0.00  0.00    +0.000 C 
ENDBRANCH   2   9
TORSDOF 1
ENDMDL
MODEL 5
REMARK VINA RESULT:      -6.7      1.605      5.246
REMARK  Name = 
REMARK  2 active torsions:
REMARK  status: ('A' for Active; 'I' for Inactive)
REMARK    1  A    between atoms: C_1  and  C_2
REMARK    2  A    between atoms: C_2  and  C_3
REMARK                            x       y       z     vdW  Elec       q    Type
REMARK                         _______ _______ _______ _____ _____    ______ ____
ROOT
ATOM      1  C   UNL     1       3.216   6.986  18.008  0.00  0.00    +0.000 C 
ATOM      2  C   UNL     1       4.259   5.898  17.649  0.00  0.00    +0.000 C 
ATOM      3  C   UNL     1       4.801   6.280  16.246  0.00  0.00    +0.000 C 
ATOM      4  C   UNL     1       5.915   5.411  15.665  0.00  0.00    +0.000 C 
ATOM      5  C   UNL     1       7.247   5.538  16.389  0.00  0.00    +0.000 C 
ATOM      6  C   UNL     1       7.390   4.655  17.618  0.00  0.00    +0.000 C 
ATOM      7  C   UNL     1       6.389   4.809  18.759  0.00  0.00    +0.000 C 
ATOM      8  C   UNL     1       5.384   5.961  18.717  0.00  0.00    +0.000 C 
ENDROOT
BRANCH   2   9
ATOM      9  C   UNL     1       3.546   4.516  17.588  0.00  0.00    +0.000 C 
ATOM     10  O   UNL     1       3.465   3.854  16.553  0.00  0.00    +0.000 OA
ATOM     11  N   UNL     1       3.067   4.030  18.775  0.00  0.00    +0.000 N 
ATOM     12  C   UNL     1       2.530   2.674  18.986  0.00  0.00    +0.000 C 
ATOM     13  C   UNL     1       2.019   3.240  20.255  0.00  0.00    +0.000 C 
ATOM     14  C   UNL     1       2.641   2.979  21.599  0.00  0.00    +0.000 C 
ATOM     15  C   UNL     1       1.185   2.675  21.344  0.00  0.00    +0.000 C 
ATOM     16  C   UNL     1       1.982   4.570  19.603  0.00  0.00    +0.000 C 
ENDBRANCH   2   9
TORSDOF 1
ENDMDL
MODEL 6
REMARK VINA RESULT:      -6.5      1.527      2.066
REMARK  Name = 
REMARK  2 active torsions:
REMARK  status: ('A' for Active; 'I' for Inactive)
REMARK    1  A    between atoms: C_1  and  C_2
REMARK    2  A    between atoms: C_2  and  C_3
REMARK                            x       y       z     vdW  Elec       q    Type
REMARK                         _______ _______ _______ _____ _____    ______ ____
ROOT
ATOM      1  C   UNL     1       1.243   4.159  17.448  0.00  0.00    +0.000 C 
ATOM      2  C   UNL     1       2.191   4.068  18.670  0.00  0.00    +0.000 C 
ATOM      3  C   UNL     1       1.270   4.071  19.919  0.00  0.00    +0.000 C 
ATOM      4  C   UNL     1       1.940   3.912  21.284  0.00  0.00    +0.000 C 
ATOM      5  C   UNL     1       2.535   2.534  21.529  0.00  0.00    +0.000 C 
ATOM      6  C   UNL     1       3.937   2.339  20.974  0.00  0.00    +0.000 C 
ATOM      7  C   UNL     1       4.173   2.528  19.478  0.00  0.00    +0.000 C 
ATOM      8  C   UNL     1       2.971   2.731  18.556  0.00  0.00    +0.000 C 
ENDROOT
BRANCH   2   9
ATOM      9  C   UNL     1       3.116   5.320  18.686  0.00  0.00    +0.000 C 
ATOM     10  O   UNL     1       2.823   6.356  19.283  0.00  0.00    +0.000 OA
ATOM     11  N   UNL     1       4.322   5.188  18.053  0.00  0.00    +0.000 N 
ATOM     12  C   UNL     1       5.422   6.168  18.102  0.00  0.00    +0.000 C 
ATOM     13  C   UNL     1       5.964   5.385  16.968  0.00  0.00    +0.000 C 
ATOM     14  C   UNL     1       7.103   4.410  17.092  0.00  0.00    +0.000 C 
ATOM     15  C   UNL     1       7.163   5.555  16.111  0.00  0.00    +0.000 C 
ATOM     16  C   UNL     1       4.577   4.999  16.620  0.00  0.00    +0.000 C 
ENDBRANCH   2   9
TORSDOF 1
ENDMDL
MODEL 7
REMARK VINA RESULT:      -6.4      1.740      2.897
REMARK  Name = 
REMARK  2 active torsions:
REMARK  status: ('A' for Active; 'I' for Inactive)
REMARK    1  A    between atoms: C_1  and  C_2
REMARK    2  A    between atoms: C_2  and  C_3
REMARK                            x       y       z     vdW  Elec       q    Type
REMARK                         _______ _______ _______ _____ _____    ______ ____
ROOT
ATOM      1  C   UNL     1       4.952   2.075  20.363  0.00  0.00    +0.000 C 
ATOM      2  C   UNL     1       3.662   2.803  19.909  0.00  0.00    +0.000 C 
ATOM      3  C   UNL     1       3.163   2.036  18.656  0.00  0.00    +0.000 C 
ATOM      4  C   UNL     1       1.847   2.494  18.031  0.00  0.00    +0.000 C 
ATOM      5  C   UNL     1       0.620   2.213  18.886  0.00  0.00    +0.000 C 
ATOM      6  C   UNL     1       0.325   3.268  19.941  0.00  0.00    +0.000 C 
ATOM      7  C   UNL     1       1.386   3.576  20.994  0.00  0.00    +0.000 C 
ATOM      8  C   UNL     1       2.636   2.700  21.069  0.00  0.00    +0.000 C 
ENDROOT
BRANCH   2   9
ATOM      9  C   UNL     1       4.016   4.270  19.531  0.00  0.00    +0.000 C 
ATOM     10  O   UNL     1       3.477   5.243  20.060  0.00  0.00    +0.000 OA
ATOM     11  N   UNL     1       5.023   4.434  18.618  0.00  0.00    +0.000 N 
ATOM     12  C   UNL     1       5.646   5.720  18.257  0.00  0.00    +0.000 C 
ATOM     13  C   UNL     1       6.202   4.954  17.118  0.00  0.00    +0.000 C 
ATOM     14  C   UNL     1       7.628   4.479  17.045  0.00  0.00    +0.000 C 
ATOM     15  C   UNL     1       7.040   5.345  15.958  0.00  0.00    +0.000 C 
ATOM     16  C   UNL     1       5.031   4.051  17.201  0.00  0.00    +0.000 C 
ENDBRANCH   2   9
TORSDOF 1
ENDMDL
MODEL 8
REMARK VINA RESULT:      -6.4      1.818      2.948
REMARK  Name = 
REMARK  2 active torsions:
REMARK  status: ('A' for Active; 'I' for Inactive)
REMARK    1  A    between atoms: C_1  and  C_2
REMARK    2  A    between atoms: C_2  and  C_3
REMARK                            x       y       z     vdW  Elec       q    Type
REMARK                         _______ _______ _______ _____ _____    ______ ____
ROOT
ATOM      1  C   UNL     1       2.915   2.147  17.019  0.00  0.00    +0.000 C 
ATOM      2  C   UNL     1       2.653   2.981  18.299  0.00  0.00    +0.000 C 
ATOM      3  C   UNL     1       1.163   2.746  18.658  0.00  0.00    +0.000 C 
ATOM      4  C   UNL     1       0.639   3.395  19.938  0.00  0.00    +0.000 C 
ATOM      5  C   UNL     1       1.206   2.798  21.217  0.00  0.00    +0.000 C 
ATOM      6  C   UNL     1       2.550   3.366  21.644  0.00  0.00    +0.000 C 
ATOM      7  C   UNL     1       3.734   3.259  20.688  0.00  0.00    +0.000 C 
ATOM      8  C   UNL     1       3.587   2.432  19.411  0.00  0.00    +0.000 C 
ENDROOT
BRANCH   2   9
ATOM      9  C   UNL     1       2.896   4.485  17.980  0.00  0.00    +0.000 C 
ATOM     10  O   UNL     1       1.977   5.276  17.765  0.00  0.00    +0.000 OA
ATOM     11  N   UNL     1       4.197   4.910  18.019  0.00  0.00    +0.000 N 
ATOM     12  C   UNL     1       4.638   6.313  17.937  0.00  0.00    +0.000 C 
ATOM     13  C   UNL     1       5.973   5.719  17.702  0.00  0.00    +0.000 C 
ATOM     14  C   UNL     1       7.057   5.655  18.744  0.00  0.00    +0.000 C 
ATOM     15  C   UNL     1       7.300   6.312  17.407  0.00  0.00    +0.000 C 
ATOM     16  C   UNL     1       5.301   4.528  17.132  0.00  0.00    +0.000 C 
ENDBRANCH   2   9
TORSDOF 1
ENDMDL
MODEL 9
REMARK VINA RESULT:      -6.4      1.866      5.276
REMARK  Name = 
REMARK  2 active torsions:
REMARK  status: ('A' for Active; 'I' for Inactive)
REMARK    1  A    between atoms: C_1  and  C_2
REMARK    2  A    between atoms: C_2  and  C_3
REMARK                            x       y       z     vdW  Elec       q    Type
REMARK                         _______ _______ _______ _____ _____    ______ ____
ROOT
ATOM      1  C   UNL     1       5.460   3.836  16.100  0.00  0.00    +0.000 C 
ATOM      2  C   UNL     1       5.781   5.031  17.032  0.00  0.00    +0.000 C 
ATOM      3  C   UNL     1       6.381   4.412  18.321  0.00  0.00    +0.000 C 
ATOM      4  C   UNL     1       6.866   5.377  19.403  0.00  0.00    +0.000 C 
ATOM      5  C   UNL     1       8.104   6.173  19.018  0.00  0.00    +0.000 C 
ATOM      6  C   UNL     1       7.826   7.433  18.215  0.00  0.00    +0.000 C 
ATOM      7  C   UNL     1       7.096   7.312  16.880  0.00  0.00    +0.000 C 
ATOM      8  C   UNL     1       6.823   5.922  16.305  0.00  0.00    +0.000 C 
ENDROOT
BRANCH   2   9
ATOM      9  C   UNL     1       4.458   5.781  17.365  0.00  0.00    +0.000 C 
ATOM     10  O   UNL     1       4.279   6.968  17.093  0.00  0.00    +0.000 OA
ATOM     11  N   UNL     1       3.459   5.027  17.921  0.00  0.00    +0.000 N 
ATOM     12  C   UNL     1       2.073   5.478  18.142  0.00  0.00    +0.000 C 
ATOM     13  C   UNL     1       1.981   4.273  18.998  0.00  0.00    +0.000 C 
ATOM     14  C   UNL     1       1.284   3.005  18.586  0.00  0.00    +0.000 C 
ATOM     15  C   UNL     1       0.900   3.729  19.853  0.00  0.00    +0.000 C 
ATOM     16  C   UNL     1       3.440   4.377  19.236  0.00  0.00    +0.000 C 
ENDBRANCH   2   9
TORSDOF 1
ENDMDL
