MODEL 1
REMARK VINA RESULT:      -8.9      0.000      0.000
REMARK  Name = 
REMARK  5 active torsions:
REMARK  status: ('A' for Active; 'I' for Inactive)
REMARK    1  A    between atoms: C_7  and  C_8
REMARK    2  A    between atoms: C_14  and  O_15
REMARK    3  A    between atoms: O_15  and  C_16
REMARK    4  A    between atoms: C_16  and  C_17
REMARK    5  A    between atoms: C_22  and  C_23
REMARK                            x       y       z     vdW  Elec       q    Type
REMARK                         _______ _______ _______ _____ _____    ______ ____
ROOT
ATOM      1  C   UNL     1       2.660   5.507  18.596  0.00  0.00    +0.000 A 
ATOM      2  C   UNL     1       2.363   4.155  18.367  0.00  0.00    +0.000 A 
ATOM      3  C   UNL     1       1.531   3.461  19.244  0.00  0.00    +0.000 A 
ATOM      4 BR   UNL     1       1.127   1.644  18.919  0.00  0.00    +0.000 Br
ATOM      5  C   UNL     1       0.977   4.098  20.347  0.00  0.00    +0.000 A 
ATOM      6  C   UNL     1       1.250   5.443  20.577  0.00  0.00    +0.000 A 
ATOM      7  C   UNL     1       2.104   6.158  19.719  0.00  0.00    +0.000 A 
ENDROOT
BRANCH   1  14
ATOM      8  O   UNL     1       8.193   4.245  17.150  0.00  0.00    +0.000 OA
ATOM      9  C   UNL     1       7.137   4.839  17.065  0.00  0.00    +0.000 C 
ATOM     10  N   UNL     1       6.814   5.771  16.131  0.00  0.00    +0.000 N 
ATOM     11  C   UNL     1       5.547   6.277  16.141  0.00  0.00    +0.000 C 
ATOM     12  O   UNL     1       5.081   6.991  15.267  0.00  0.00    +0.000 OA
ATOM     13  C   UNL     1       4.804   5.759  17.323  0.00  0.00    +0.000 C 
ATOM     14  C   UNL     1       3.552   6.143  17.605  0.00  0.00    +0.000 C 
ATOM     15  S   UNL     1       5.772   4.593  18.145  0.00  0.00    +0.000 S 
ATOM     16  H   UNL     1       7.453   5.985  15.383  0.00  0.00    +0.000 HD
ENDBRANCH   1  14
BRANCH   7  17
ATOM     17  O   UNL     1       2.399   7.485  19.928  0.00  0.00    +0.000 OA
BRANCH  17  18
ATOM     18  C   UNL     1       1.640   8.130  20.973  0.00  0.00    +0.000 C 
BRANCH  18  19
ATOM     19  C   UNL     1       0.853   9.318  20.450  0.00  0.00    +0.000 A 
ATOM     20  C   UNL     1       1.086   9.764  19.135  0.00  0.00    +0.000 A 
ATOM     21  C   UNL     1       0.442  10.887  18.625  0.00  0.00    +0.000 A 
ATOM     22  C   UNL     1      -0.473  11.574  19.409  0.00  0.00    +0.000 A 
ATOM     23  C   UNL     1      -0.744  11.137  20.704  0.00  0.00    +0.000 A 
ATOM     24  C   UNL     1      -0.091  10.010  21.249  0.00  0.00    +0.000 A 
BRANCH  24  25
ATOM     25  C   UNL     1      -0.441   9.657  22.681  0.00  0.00    +0.000 C 
ATOM     26  F   UNL     1       0.618   9.601  23.535  0.00  0.00    +0.000 F 
ATOM     27  F   UNL     1      -1.311  10.551  23.232  0.00  0.00    +0.000 F 
ATOM     28  F   UNL     1      -1.053   8.442  22.784  0.00  0.00    +0.000 F 
ENDBRANCH  24  25
ENDBRANCH  18  19
ENDBRANCH  17  18
ENDBRANCH   7  17
TORSDOF 5
ENDMDL
MODEL 2
REMARK VINA RESULT:      -8.9      4.195      7.048
REMARK  Name = 
REMARK  5 active torsions:
REMARK  status: ('A' for Active; 'I' for Inactive)
REMARK    1  A    between atoms: C_7  and  C_8
REMARK    2  A    between atoms: C_14  and  O_15
REMARK    3  A    between atoms: O_15  and  C_16
REMARK    4  A    between atoms: C_16  and  C_17
REMARK    5  A    between atoms: C_22  and  C_23
REMARK                            x       y       z     vdW  Elec       q    Type
REMARK                         _______ _______ _______ _____ _____    ______ ____
ROOT
ATOM      1  C   UNL     1       2.692   6.993  19.418  0.00  0.00    +0.000 A 
ATOM      2  C   UNL     1       1.899   7.440  20.486  0.00  0.00    +0.000 A 
ATOM      3  C   UNL     1       1.165   8.620  20.369  0.00  0.00    +0.000 A 
ATOM      4 BR   UNL     1       0.091   9.205  21.809  0.00  0.00    +0.000 Br
ATOM      5  C   UNL     1       1.198   9.360  19.194  0.00  0.00    +0.000 A 
ATOM      6  C   UNL     1       1.966   8.919  18.121  0.00  0.00    +0.000 A 
ATOM      7  C   UNL     1       2.733   7.745  18.223  0.00  0.00    +0.000 A 
ENDROOT
BRANCH   1  14
ATOM      8  O   UNL     1       1.007   1.441  18.625  0.00  0.00    +0.000 OA
ATOM      9  C   UNL     1       1.785   2.330  18.908  0.00  0.00    +0.000 C 
ATOM     10  N   UNL     1       3.101   2.177  19.206  0.00  0.00    +0.000 N 
ATOM     11  C   UNL     1       3.845   3.302  19.422  0.00  0.00    +0.000 C 
ATOM     12  O   UNL     1       5.059   3.315  19.536  0.00  0.00    +0.000 OA
ATOM     13  C   UNL     1       2.962   4.501  19.408  0.00  0.00    +0.000 C 
ATOM     14  C   UNL     1       3.428   5.734  19.651  0.00  0.00    +0.000 C 
ATOM     15  S   UNL     1       1.361   4.034  18.969  0.00  0.00    +0.000 S 
ATOM     16  H   UNL     1       3.536   1.271  19.148  0.00  0.00    +0.000 HD
ENDBRANCH   1  14
BRANCH   7  17
ATOM     17  O   UNL     1       3.509   7.292  17.182  0.00  0.00    +0.000 OA
BRANCH  17  18
ATOM     18  C   UNL     1       4.933   7.314  17.415  0.00  0.00    +0.000 C 
BRANCH  18  19
ATOM     19  C   UNL     1       5.646   6.199  16.672  0.00  0.00    +0.000 A 
ATOM     20  C   UNL     1       5.146   5.784  15.424  0.00  0.00    +0.000 A 
ATOM     21  C   UNL     1       5.720   4.724  14.729  0.00  0.00    +0.000 A 
ATOM     22  C   UNL     1       6.827   4.073  15.253  0.00  0.00    +0.000 A 
ATOM     23  C   UNL     1       7.361   4.483  16.473  0.00  0.00    +0.000 A 
ATOM     24  C   UNL     1       6.786   5.545  17.204  0.00  0.00    +0.000 A 
BRANCH  24  25
ATOM     25  C   UNL     1       7.432   5.872  18.536  0.00  0.00    +0.000 C 
ATOM     26  F   UNL     1       6.587   5.864  19.604  0.00  0.00    +0.000 F 
ATOM     27  F   UNL     1       8.430   4.997  18.851  0.00  0.00    +0.000 F 
ATOM     28  F   UNL     1       8.013   7.106  18.545  0.00  0.00    +0.000 F 
ENDBRANCH  24  25
ENDBRANCH  18  19
ENDBRANCH  17  18
ENDBRANCH   7  17
TORSDOF 5
ENDMDL
MODEL 3
REMARK VINA RESULT:      -8.9      1.724      2.310
REMARK  Name = 
REMARK  5 active torsions:
REMARK  status: ('A' for Active; 'I' for Inactive)
REMARK    1  A    between atoms: C_7  and  C_8
REMARK    2  A    between atoms: C_14  and  O_15
REMARK    3  A    between atoms: O_15  and  C_16
REMARK    4  A    between atoms: C_16  and  C_17
REMARK    5  A    between atoms: C_22  and  C_23
REMARK                            x       y       z     vdW  Elec       q    Type
REMARK                         _______ _______ _______ _____ _____    ______ ____
ROOT
ATOM      1  C   UNL     1       2.695   5.597  18.621  0.00  0.00    +0.000 A 
ATOM      2  C   UNL     1       2.342   4.262  18.375  0.00  0.00    +0.000 A 
ATOM      3  C   UNL     1       1.490   3.588  19.250  0.00  0.00    +0.000 A 
ATOM      4 BR   UNL     1       1.011   1.794  18.901  0.00  0.00    +0.000 Br
ATOM      5  C   UNL     1       0.972   4.231  20.367  0.00  0.00    +0.000 A 
ATOM      6  C   UNL     1       1.300   5.560  20.613  0.00  0.00    +0.000 A 
ATOM      7  C   UNL     1       2.176   6.253  19.758  0.00  0.00    +0.000 A 
ENDROOT
BRANCH   1  14
ATOM      8  O   UNL     1       8.217   4.237  17.222  0.00  0.00    +0.000 OA
ATOM      9  C   UNL     1       7.171   4.847  17.126  0.00  0.00    +0.000 C 
ATOM     10  N   UNL     1       6.870   5.776  16.182  0.00  0.00    +0.000 N 
ATOM     11  C   UNL     1       5.610   6.303  16.180  0.00  0.00    +0.000 C 
ATOM     12  O   UNL     1       5.162   7.017  15.298  0.00  0.00    +0.000 OA
ATOM     13  C   UNL     1       4.852   5.805  17.361  0.00  0.00    +0.000 C 
ATOM     14  C   UNL     1       3.604   6.211  17.632  0.00  0.00    +0.000 C 
ATOM     15  S   UNL     1       5.796   4.630  18.198  0.00  0.00    +0.000 S 
ATOM     16  H   UNL     1       7.517   5.975  15.437  0.00  0.00    +0.000 HD
ENDBRANCH   1  14
BRANCH   7  17
ATOM     17  O   UNL     1       2.525   7.564  19.984  0.00  0.00    +0.000 OA
BRANCH  17  18
ATOM     18  C   UNL     1       1.598   8.547  19.476  0.00  0.00    +0.000 C 
BRANCH  18  19
ATOM     19  C   UNL     1       0.859   9.259  20.595  0.00  0.00    +0.000 A 
ATOM     20  C   UNL     1       1.085   8.857  21.925  0.00  0.00    +0.000 A 
ATOM     21  C   UNL     1       0.388   9.430  22.984  0.00  0.00    +0.000 A 
ATOM     22  C   UNL     1      -0.532  10.439  22.740  0.00  0.00    +0.000 A 
ATOM     23  C   UNL     1      -0.753  10.877  21.436  0.00  0.00    +0.000 A 
ATOM     24  C   UNL     1      -0.070  10.300  20.344  0.00  0.00    +0.000 A 
BRANCH  24  25
ATOM     25  C   UNL     1      -0.426  10.834  18.970  0.00  0.00    +0.000 C 
ATOM     26  F   UNL     1      -0.865   9.897  18.085  0.00  0.00    +0.000 F 
ATOM     27  F   UNL     1      -1.409  11.778  19.025  0.00  0.00    +0.000 F 
ATOM     28  F   UNL     1       0.630  11.443  18.358  0.00  0.00    +0.000 F 
ENDBRANCH  24  25
ENDBRANCH  18  19
ENDBRANCH  17  18
ENDBRANCH   7  17
TORSDOF 5
ENDMDL
MODEL 4
REMARK VINA RESULT:      -8.5      4.230      7.136
REMARK  Name = 
REMARK  5 active torsions:
REMARK  status: ('A' for Active; 'I' for Inactive)
REMARK    1  A    between atoms: C_7  and  C_8
REMARK    2  A    between atoms: C_14  and  O_15
REMARK    3  A    between atoms: O_15  and  C_16
REMARK    4  A    between atoms: C_16  and  C_17
REMARK    5  A    between atoms: C_22  and  C_23
REMARK                            x       y       z     vdW  Elec       q    Type
REMARK                         _______ _______ _______ _____ _____    ______ ____
ROOT
ATOM      1  C   UNL     1       2.768   7.071  19.116  0.00  0.00    +0.000 A 
ATOM      2  C   UNL     1       1.954   7.454  20.193  0.00  0.00    +0.000 A 
ATOM      3  C   UNL     1       1.206   8.628  20.124  0.00  0.00    +0.000 A 
ATOM      4 BR   UNL     1       0.104   9.127  21.575  0.00  0.00    +0.000 Br
ATOM      5  C   UNL     1       1.246   9.427  18.989  0.00  0.00    +0.000 A 
ATOM      6  C   UNL     1       2.035   9.051  17.907  0.00  0.00    +0.000 A 
ATOM      7  C   UNL     1       2.816   7.883  17.961  0.00  0.00    +0.000 A 
ENDROOT
BRANCH   1  14
ATOM      8  O   UNL     1       1.386   2.268  22.168  0.00  0.00    +0.000 OA
ATOM      9  C   UNL     1       2.067   2.949  21.428  0.00  0.00    +0.000 C 
ATOM     10  N   UNL     1       3.191   2.548  20.779  0.00  0.00    +0.000 N 
ATOM     11  C   UNL     1       3.785   3.428  19.921  0.00  0.00    +0.000 C 
ATOM     12  O   UNL     1       4.695   3.144  19.160  0.00  0.00    +0.000 OA
ATOM     13  C   UNL     1       3.099   4.748  19.996  0.00  0.00    +0.000 C 
ATOM     14  C   UNL     1       3.517   5.811  19.296  0.00  0.00    +0.000 C 
ATOM     15  S   UNL     1       1.718   4.622  21.020  0.00  0.00    +0.000 S 
ATOM     16  H   UNL     1       3.501   1.592  20.838  0.00  0.00    +0.000 HD
ENDBRANCH   1  14
BRANCH   7  17
ATOM     17  O   UNL     1       3.613   7.493  16.911  0.00  0.00    +0.000 OA
BRANCH  17  18
ATOM     18  C   UNL     1       5.027   7.430  17.195  0.00  0.00    +0.000 C 
BRANCH  18  19
ATOM     19  C   UNL     1       5.685   6.234  16.533  0.00  0.00    +0.000 A 
ATOM     20  C   UNL     1       5.197   5.788  15.290  0.00  0.00    +0.000 A 
ATOM     21  C   UNL     1       5.719   4.658  14.669  0.00  0.00    +0.000 A 
ATOM     22  C   UNL     1       6.762   3.963  15.263  0.00  0.00    +0.000 A 
ATOM     23  C   UNL     1       7.284   4.399  16.479  0.00  0.00    +0.000 A 
ATOM     24  C   UNL     1       6.760   5.533  17.136  0.00  0.00    +0.000 A 
BRANCH  24  25
ATOM     25  C   UNL     1       7.385   5.886  18.472  0.00  0.00    +0.000 C 
ATOM     26  F   UNL     1       7.895   7.145  18.554  0.00  0.00    +0.000 F 
ATOM     27  F   UNL     1       6.493   5.782  19.499  0.00  0.00    +0.000 F 
ATOM     28  F   UNL     1       8.416   5.055  18.800  0.00  0.00    +0.000 F 
ENDBRANCH  24  25
ENDBRANCH  18  19
ENDBRANCH  17  18
ENDBRANCH   7  17
TORSDOF 5
ENDMDL
MODEL 5
REMARK VINA RESULT:      -8.4      4.618      7.240
REMARK  Name = 
REMARK  5 active torsions:
REMARK  status: ('A' for Active; 'I' for Inactive)
REMARK    1  A    between atoms: C_7  and  C_8
REMARK    2  A    between atoms: C_14  and  O_15
REMARK    3  A    between atoms: O_15  and  C_16
REMARK    4  A    between atoms: C_16  and  C_17
REMARK    5  A    between atoms: C_22  and  C_23
REMARK                            x       y       z     vdW  Elec       q    Type
REMARK                         _______ _______ _______ _____ _____    ______ ____
ROOT
ATOM      1  C   UNL     1       2.831   6.812  19.236  0.00  0.00    +0.000 A 
ATOM      2  C   UNL     1       2.150   7.468  20.273  0.00  0.00    +0.000 A 
ATOM      3  C   UNL     1       1.492   8.674  20.028  0.00  0.00    +0.000 A 
ATOM      4 BR   UNL     1       0.568   9.542  21.428  0.00  0.00    +0.000 Br
ATOM      5  C   UNL     1       1.492   9.234  18.757  0.00  0.00    +0.000 A 
ATOM      6  C   UNL     1       2.148   8.585  17.716  0.00  0.00    +0.000 A 
ATOM      7  C   UNL     1       2.838   7.380  17.944  0.00  0.00    +0.000 A 
ENDROOT
BRANCH   1  14
ATOM      8  O   UNL     1       1.006   1.283  18.609  0.00  0.00    +0.000 OA
ATOM      9  C   UNL     1       1.790   2.161  18.911  0.00  0.00    +0.000 C 
ATOM     10  N   UNL     1       3.067   1.981  19.338  0.00  0.00    +0.000 N 
ATOM     11  C   UNL     1       3.832   3.091  19.556  0.00  0.00    +0.000 C 
ATOM     12  O   UNL     1       5.031   3.070  19.781  0.00  0.00    +0.000 OA
ATOM     13  C   UNL     1       3.002   4.317  19.393  0.00  0.00    +0.000 C 
ATOM     14  C   UNL     1       3.493   5.545  19.607  0.00  0.00    +0.000 C 
ATOM     15  S   UNL     1       1.430   3.879  18.836  0.00  0.00    +0.000 S 
ATOM     16  H   UNL     1       3.469   1.059  19.371  0.00  0.00    +0.000 HD
ENDBRANCH   1  14
BRANCH   7  17
ATOM     17  O   UNL     1       3.504   6.723  16.935  0.00  0.00    +0.000 OA
BRANCH  17  18
ATOM     18  C   UNL     1       4.808   7.249  16.609  0.00  0.00    +0.000 C 
BRANCH  18  19
ATOM     19  C   UNL     1       5.922   6.418  17.217  0.00  0.00    +0.000 A 
ATOM     20  C   UNL     1       6.748   6.998  18.198  0.00  0.00    +0.000 A 
ATOM     21  C   UNL     1       7.824   6.306  18.743  0.00  0.00    +0.000 A 
ATOM     22  C   UNL     1       8.083   5.004  18.340  0.00  0.00    +0.000 A 
ATOM     23  C   UNL     1       7.264   4.394  17.392  0.00  0.00    +0.000 A 
ATOM     24  C   UNL     1       6.176   5.083  16.813  0.00  0.00    +0.000 A 
BRANCH  24  25
ATOM     25  C   UNL     1       5.382   4.328  15.764  0.00  0.00    +0.000 C 
ATOM     26  F   UNL     1       5.155   5.014  14.610  0.00  0.00    +0.000 F 
ATOM     27  F   UNL     1       5.999   3.171  15.389  0.00  0.00    +0.000 F 
ATOM     28  F   UNL     1       4.150   3.954  16.212  0.00  0.00    +0.000 F 
ENDBRANCH  24  25
ENDBRANCH  18  19
ENDBRANCH  17  18
ENDBRANCH   7  17
TORSDOF 5
ENDMDL
MODEL 6
REMARK VINA RESULT:      -8.3      1.903      2.458
REMARK  Name = 
REMARK  5 active torsions:
REMARK  status: ('A' for Active; 'I' for Inactive)
REMARK    1  A    between atoms: C_7  and  C_8
REMARK    2  A    between atoms: C_14  and  O_15
REMARK    3  A    between atoms: O_15  and  C_16
REMARK    4  A    between atoms: C_16  and  C_17
REMARK    5  A    between atoms: C_22  and  C_23
REMARK                            x       y       z     vdW  Elec       q    Type
REMARK                         _______ _______ _______ _____ _____    ______ ____
ROOT
ATOM      1  C   UNL     1       3.105   6.119  18.565  0.00  0.00    +0.000 A 
ATOM      2  C   UNL     1       2.910   4.900  19.231  0.00  0.00    +0.000 A 
ATOM      3  C   UNL     1       2.124   4.846  20.382  0.00  0.00    +0.000 A 
ATOM      4 BR   UNL     1       1.859   3.196  21.263  0.00  0.00    +0.000 Br
ATOM      5  C   UNL     1       1.515   5.992  20.876  0.00  0.00    +0.000 A 
ATOM      6  C   UNL     1       1.684   7.205  20.215  0.00  0.00    +0.000 A 
ATOM      7  C   UNL     1       2.492   7.288  19.067  0.00  0.00    +0.000 A 
ENDROOT
BRANCH   1  14
ATOM      8  O   UNL     1       8.566   4.112  17.903  0.00  0.00    +0.000 OA
ATOM      9  C   UNL     1       7.509   4.584  17.532  0.00  0.00    +0.000 C 
ATOM     10  N   UNL     1       7.152   4.834  16.246  0.00  0.00    +0.000 N 
ATOM     11  C   UNL     1       5.887   5.293  16.010  0.00  0.00    +0.000 C 
ATOM     12  O   UNL     1       5.388   5.402  14.903  0.00  0.00    +0.000 OA
ATOM     13  C   UNL     1       5.194   5.551  17.302  0.00  0.00    +0.000 C 
ATOM     14  C   UNL     1       3.956   6.062  17.360  0.00  0.00    +0.000 C 
ATOM     15  S   UNL     1       6.191   5.026  18.607  0.00  0.00    +0.000 S 
ATOM     16  H   UNL     1       7.759   4.573  15.487  0.00  0.00    +0.000 HD
ENDBRANCH   1  14
BRANCH   7  17
ATOM     17  O   UNL     1       2.685   8.476  18.401  0.00  0.00    +0.000 OA
BRANCH  17  18
ATOM     18  C   UNL     1       1.492   9.086  17.864  0.00  0.00    +0.000 C 
BRANCH  18  19
ATOM     19  C   UNL     1       1.423  10.568  18.180  0.00  0.00    +0.000 A 
ATOM     20  C   UNL     1       2.537  11.380  17.893  0.00  0.00    +0.000 A 
ATOM     21  C   UNL     1       2.554  12.731  18.220  0.00  0.00    +0.000 A 
ATOM     22  C   UNL     1       1.444  13.311  18.818  0.00  0.00    +0.000 A 
ATOM     23  C   UNL     1       0.317  12.538  19.087  0.00  0.00    +0.000 A 
ATOM     24  C   UNL     1       0.282  11.161  18.778  0.00  0.00    +0.000 A 
BRANCH  24  25
ATOM     25  C   UNL     1      -0.985  10.418  19.155  0.00  0.00    +0.000 C 
ATOM     26  F   UNL     1      -1.591   9.758  18.130  0.00  0.00    +0.000 F 
ATOM     27  F   UNL     1      -0.762   9.478  20.118  0.00  0.00    +0.000 F 
ATOM     28  F   UNL     1      -1.941  11.245  19.668  0.00  0.00    +0.000 F 
ENDBRANCH  24  25
ENDBRANCH  18  19
ENDBRANCH  17  18
ENDBRANCH   7  17
TORSDOF 5
ENDMDL
MODEL 7
REMARK VINA RESULT:      -8.2      3.001      4.464
REMARK  Name = 
REMARK  5 active torsions:
REMARK  status: ('A' for Active; 'I' for Inactive)
REMARK    1  A    between atoms: C_7  and  C_8
REMARK    2  A    between atoms: C_14  and  O_15
REMARK    3  A    between atoms: O_15  and  C_16
REMARK    4  A    between atoms: C_16  and  C_17
REMARK    5  A    between atoms: C_22  and  C_23
REMARK                            x       y       z     vdW  Elec       q    Type
REMARK                         _______ _______ _______ _____ _____    ______ ____
ROOT
ATOM      1  C   UNL     1       3.458   4.931  17.230  0.00  0.00    +0.000 A 
ATOM      2  C   UNL     1       4.547   4.456  16.484  0.00  0.00    +0.000 A 
ATOM      3  C   UNL     1       5.548   5.332  16.066  0.00  0.00    +0.000 A 
ATOM      4 BR   UNL     1       7.016   4.678  15.073  0.00  0.00    +0.000 Br
ATOM      5  C   UNL     1       5.488   6.681  16.391  0.00  0.00    +0.000 A 
ATOM      6  C   UNL     1       4.423   7.163  17.145  0.00  0.00    +0.000 A 
ATOM      7  C   UNL     1       3.389   6.303  17.558  0.00  0.00    +0.000 A 
ENDROOT
BRANCH   1  14
ATOM      8  O   UNL     1       1.912   3.002  22.538  0.00  0.00    +0.000 OA
ATOM      9  C   UNL     1       1.849   3.075  21.327  0.00  0.00    +0.000 C 
ATOM     10  N   UNL     1       0.925   2.470  20.536  0.00  0.00    +0.000 N 
ATOM     11  C   UNL     1       0.960   2.730  19.196  0.00  0.00    +0.000 C 
ATOM     12  O   UNL     1       0.099   2.386  18.403  0.00  0.00    +0.000 OA
ATOM     13  C   UNL     1       2.151   3.564  18.873  0.00  0.00    +0.000 C 
ATOM     14  C   UNL     1       2.456   3.918  17.618  0.00  0.00    +0.000 C 
ATOM     15  S   UNL     1       2.950   4.016  20.333  0.00  0.00    +0.000 S 
ATOM     16  H   UNL     1       0.168   1.946  20.943  0.00  0.00    +0.000 HD
ENDBRANCH   1  14
BRANCH   7  17
ATOM     17  O   UNL     1       2.320   6.755  18.295  0.00  0.00    +0.000 OA
BRANCH  17  18
ATOM     18  C   UNL     1       2.545   7.979  19.025  0.00  0.00    +0.000 C 
BRANCH  18  19
ATOM     19  C   UNL     1       1.303   8.852  19.064  0.00  0.00    +0.000 A 
ATOM     20  C   UNL     1       0.872   9.477  17.878  0.00  0.00    +0.000 A 
ATOM     21  C   UNL     1      -0.220  10.338  17.868  0.00  0.00    +0.000 A 
ATOM     22  C   UNL     1      -0.926  10.573  19.039  0.00  0.00    +0.000 A 
ATOM     23  C   UNL     1      -0.539   9.944  20.221  0.00  0.00    +0.000 A 
ATOM     24  C   UNL     1       0.576   9.079  20.260  0.00  0.00    +0.000 A 
BRANCH  24  25
ATOM     25  C   UNL     1       0.921   8.486  21.612  0.00  0.00    +0.000 C 
ATOM     26  F   UNL     1       1.232   7.160  21.596  0.00  0.00    +0.000 F 
ATOM     27  F   UNL     1       1.990   9.108  22.186  0.00  0.00    +0.000 F 
ATOM     28  F   UNL     1      -0.098   8.608  22.510  0.00  0.00    +0.000 F 
ENDBRANCH  24  25
ENDBRANCH  18  19
ENDBRANCH  17  18
ENDBRANCH   7  17
TORSDOF 5
ENDMDL
MODEL 8
REMARK VINA RESULT:      -8.2      0.704      1.013
REMARK  Name = 
REMARK  5 active torsions:
REMARK  status: ('A' for Active; 'I' for Inactive)
REMARK    1  A    between atoms: C_7  and  C_8
REMARK    2  A    between atoms: C_14  and  O_15
REMARK    3  A    between atoms: O_15  and  C_16
REMARK    4  A    between atoms: C_16  and  C_17
REMARK    5  A    between atoms: C_22  and  C_23
REMARK                            x       y       z     vdW  Elec       q    Type
REMARK                         _______ _______ _______ _____ _____    ______ ____
ROOT
ATOM      1  C   UNL     1       2.601   5.395  18.634  0.00  0.00    +0.000 A 
ATOM      2  C   UNL     1       2.296   4.054  18.354  0.00  0.00    +0.000 A 
ATOM      3  C   UNL     1       1.445   3.338  19.194  0.00  0.00    +0.000 A 
ATOM      4 BR   UNL     1       1.032   1.537  18.800  0.00  0.00    +0.000 Br
ATOM      5  C   UNL     1       0.880   3.942  20.310  0.00  0.00    +0.000 A 
ATOM      6  C   UNL     1       1.160   5.275  20.590  0.00  0.00    +0.000 A 
ATOM      7  C   UNL     1       2.034   6.012  19.770  0.00  0.00    +0.000 A 
ENDROOT
BRANCH   1  14
ATOM      8  O   UNL     1       8.430   5.945  18.757  0.00  0.00    +0.000 OA
ATOM      9  C   UNL     1       7.318   6.071  18.285  0.00  0.00    +0.000 C 
ATOM     10  N   UNL     1       7.022   6.567  17.055  0.00  0.00    +0.000 N 
ATOM     11  C   UNL     1       5.715   6.559  16.659  0.00  0.00    +0.000 C 
ATOM     12  O   UNL     1       5.335   6.820  15.529  0.00  0.00    +0.000 OA
ATOM     13  C   UNL     1       4.849   6.103  17.781  0.00  0.00    +0.000 C 
ATOM     14  C   UNL     1       3.514   6.056  17.679  0.00  0.00    +0.000 C 
ATOM     15  S   UNL     1       5.835   5.608  19.106  0.00  0.00    +0.000 S 
ATOM     16  H   UNL     1       7.757   6.815  16.414  0.00  0.00    +0.000 HD
ENDBRANCH   1  14
BRANCH   7  17
ATOM     17  O   UNL     1       2.336   7.328  20.029  0.00  0.00    +0.000 OA
BRANCH  17  18
ATOM     18  C   UNL     1       1.512   7.968  21.027  0.00  0.00    +0.000 C 
BRANCH  18  19
ATOM     19  C   UNL     1       0.839   9.218  20.490  0.00  0.00    +0.000 A 
ATOM     20  C   UNL     1       1.126   9.635  19.176  0.00  0.00    +0.000 A 
ATOM     21  C   UNL     1       0.590  10.807  18.654  0.00  0.00    +0.000 A 
ATOM     22  C   UNL     1      -0.271  11.576  19.424  0.00  0.00    +0.000 A 
ATOM     23  C   UNL     1      -0.595  11.171  20.716  0.00  0.00    +0.000 A 
ATOM     24  C   UNL     1      -0.051   9.994  21.274  0.00  0.00    +0.000 A 
BRANCH  24  25
ATOM     25  C   UNL     1      -0.448   9.679  22.703  0.00  0.00    +0.000 C 
ATOM     26  F   UNL     1      -1.103   8.498  22.871  0.00  0.00    +0.000 F 
ATOM     27  F   UNL     1       0.631   9.623  23.535  0.00  0.00    +0.000 F 
ATOM     28  F   UNL     1      -1.270  10.628  23.236  0.00  0.00    +0.000 F 
ENDBRANCH  24  25
ENDBRANCH  18  19
ENDBRANCH  17  18
ENDBRANCH   7  17
TORSDOF 5
ENDMDL
MODEL 9
REMARK VINA RESULT:      -8.1      3.373      4.923
REMARK  Name = 
REMARK  5 active torsions:
REMARK  status: ('A' for Active; 'I' for Inactive)
REMARK    1  A    between atoms: C_7  and  C_8
REMARK    2  A    between atoms: C_14  and  O_15
REMARK    3  A    between atoms: O_15  and  C_16
REMARK    4  A    between atoms: C_16  and  C_17
REMARK    5  A    between atoms: C_22  and  C_23
REMARK                            x       y       z     vdW  Elec       q    Type
REMARK                         _______ _______ _______ _____ _____    ______ ____
ROOT
ATOM      1  C   UNL     1       3.440   5.048  17.339  0.00  0.00    +0.000 A 
ATOM      2  C   UNL     1       4.564   4.595  16.631  0.00  0.00    +0.000 A 
ATOM      3  C   UNL     1       5.573   5.486  16.271  0.00  0.00    +0.000 A 
ATOM      4 BR   UNL     1       7.088   4.862  15.330  0.00  0.00    +0.000 Br
ATOM      5  C   UNL     1       5.487   6.829  16.617  0.00  0.00    +0.000 A 
ATOM      6  C   UNL     1       4.387   7.289  17.334  0.00  0.00    +0.000 A 
ATOM      7  C   UNL     1       3.345   6.413  17.687  0.00  0.00    +0.000 A 
ENDROOT
BRANCH   1  14
ATOM      8  O   UNL     1       1.793   2.906  22.534  0.00  0.00    +0.000 OA
ATOM      9  C   UNL     1       1.753   3.028  21.326  0.00  0.00    +0.000 C 
ATOM     10  N   UNL     1       0.846   2.455  20.493  0.00  0.00    +0.000 N 
ATOM     11  C   UNL     1       0.906   2.769  19.166  0.00  0.00    +0.000 C 
ATOM     12  O   UNL     1       0.061   2.457  18.343  0.00  0.00    +0.000 OA
ATOM     13  C   UNL     1       2.103   3.615  18.900  0.00  0.00    +0.000 C 
ATOM     14  C   UNL     1       2.432   4.019  17.666  0.00  0.00    +0.000 C 
ATOM     15  S   UNL     1       2.873   4.009  20.392  0.00  0.00    +0.000 S 
ATOM     16  H   UNL     1       0.082   1.915  20.865  0.00  0.00    +0.000 HD
ENDBRANCH   1  14
BRANCH   7  17
ATOM     17  O   UNL     1       2.242   6.843  18.386  0.00  0.00    +0.000 OA
BRANCH  17  18
ATOM     18  C   UNL     1       2.053   8.273  18.428  0.00  0.00    +0.000 C 
BRANCH  18  19
ATOM     19  C   UNL     1       1.354   8.716  19.700  0.00  0.00    +0.000 A 
ATOM     20  C   UNL     1       1.693   8.093  20.916  0.00  0.00    +0.000 A 
ATOM     21  C   UNL     1       1.039   8.412  22.102  0.00  0.00    +0.000 A 
ATOM     22  C   UNL     1       0.049   9.384  22.105  0.00  0.00    +0.000 A 
ATOM     23  C   UNL     1      -0.286  10.037  20.921  0.00  0.00    +0.000 A 
ATOM     24  C   UNL     1       0.352   9.719  19.702  0.00  0.00    +0.000 A 
BRANCH  24  25
ATOM     25  C   UNL     1      -0.127  10.470  18.475  0.00  0.00    +0.000 C 
ATOM     26  F   UNL     1      -0.372   9.693  17.384  0.00  0.00    +0.000 F 
ATOM     27  F   UNL     1      -1.285  11.151  18.710  0.00  0.00    +0.000 F 
ATOM     28  F   UNL     1       0.769  11.409  18.056  0.00  0.00    +0.000 F 
ENDBRANCH  24  25
ENDBRANCH  18  19
ENDBRANCH  17  18
ENDBRANCH   7  17
TORSDOF 5
ENDMDL
