MODEL 1
REMARK VINA RESULT:      -7.7      0.000      0.000
REMARK  Name = 
REMARK  3 active torsions:
REMARK  status: ('A' for Active; 'I' for Inactive)
REMARK    1  A    between atoms: C_1  and  C_2
REMARK    2  A    between atoms: N_4  and  C_5
REMARK    3  A    between atoms: C_13  and  C_14
REMARK                            x       y       z     vdW  Elec       q    Type
REMARK                         _______ _______ _______ _____ _____    ______ ____
ROOT
ATOM      1  C   UNL     1       7.256   5.590  19.310  0.00  0.00    +0.000 C 
ATOM      2  C   UNL     1       6.656   5.038  18.060  0.00  0.00    +0.000 A 
ATOM      3  N   UNL     1       7.304   5.150  16.831  0.00  0.00    +0.000 N 
ATOM      4  N   UNL     1       6.386   4.703  15.862  0.00  0.00    +0.000 N 
ATOM      5  C   UNL     1       5.241   4.216  16.502  0.00  0.00    +0.000 A 
ATOM      6  O   UNL     1       4.238   3.699  16.042  0.00  0.00    +0.000 OA
ATOM      7  C   UNL     1       5.458   4.435  17.958  0.00  0.00    +0.000 A 
ATOM      8  H   UNL     1       7.650   6.094  16.657  0.00  0.00    +0.000 HD
ENDROOT
BRANCH   7   9
ATOM      9  C   UNL     1       4.497   4.086  18.990  0.00  0.00    +0.000 A 
ATOM     10  C   UNL     1       3.573   5.033  19.444  0.00  0.00    +0.000 A 
ATOM     11  C   UNL     1       2.628   4.680  20.410  0.00  0.00    +0.000 A 
ATOM     12  C   UNL     1       2.607   3.382  20.918  0.00  0.00    +0.000 A 
ATOM     13 CL   UNL     1       1.442   2.950  22.108  0.00  0.00    +0.000 Cl
ATOM     14  C   UNL     1       3.521   2.431  20.468  0.00  0.00    +0.000 A 
ATOM     15  C   UNL     1       4.468   2.784  19.504  0.00  0.00    +0.000 A 
ENDBRANCH   7   9
BRANCH   4  16
ATOM     16  C   UNL     1       6.729   4.590  14.501  0.00  0.00    +0.000 A 
ATOM     17  C   UNL     1       7.677   5.455  13.935  0.00  0.00    +0.000 A 
ATOM     18  C   UNL     1       7.979   5.411  12.574  0.00  0.00    +0.000 A 
ATOM     19  C   UNL     1       7.335   4.493  11.752  0.00  0.00    +0.000 A 
ATOM     20  C   UNL     1       6.412   3.603  12.299  0.00  0.00    +0.000 A 
ATOM     21  C   UNL     1       6.119   3.642  13.668  0.00  0.00    +0.000 A 
ENDBRANCH   4  16
TORSDOF 2
ENDMDL
MODEL 2
REMARK VINA RESULT:      -7.7      0.075      1.079
REMARK  Name = 
REMARK  3 active torsions:
REMARK  status: ('A' for Active; 'I' for Inactive)
REMARK    1  A    between atoms: C_1  and  C_2
REMARK    2  A    between atoms: N_4  and  C_5
REMARK    3  A    between atoms: C_13  and  C_14
REMARK                            x       y       z     vdW  Elec       q    Type
REMARK                         _______ _______ _______ _____ _____    ______ ____
ROOT
ATOM      1  C   UNL     1       7.275   5.503  19.311  0.00  0.00    +0.000 C 
ATOM      2  C   UNL     1       6.642   4.999  18.058  0.00  0.00    +0.000 A 
ATOM      3  N   UNL     1       7.270   5.129  16.821  0.00  0.00    +0.000 N 
ATOM      4  N   UNL     1       6.326   4.728  15.857  0.00  0.00    +0.000 N 
ATOM      5  C   UNL     1       5.182   4.249  16.504  0.00  0.00    +0.000 A 
ATOM      6  O   UNL     1       4.160   3.767  16.049  0.00  0.00    +0.000 OA
ATOM      7  C   UNL     1       5.429   4.424  17.962  0.00  0.00    +0.000 A 
ATOM      8  H   UNL     1       7.634   6.071  16.666  0.00  0.00    +0.000 HD
ENDROOT
BRANCH   7   9
ATOM      9  C   UNL     1       4.479   4.068  19.001  0.00  0.00    +0.000 A 
ATOM     10  C   UNL     1       3.550   5.007  19.461  0.00  0.00    +0.000 A 
ATOM     11  C   UNL     1       2.615   4.647  20.434  0.00  0.00    +0.000 A 
ATOM     12  C   UNL     1       2.610   3.350  20.944  0.00  0.00    +0.000 A 
ATOM     13 CL   UNL     1       1.457   2.910  22.143  0.00  0.00    +0.000 Cl
ATOM     14  C   UNL     1       3.528   2.406  20.488  0.00  0.00    +0.000 A 
ATOM     15  C   UNL     1       4.465   2.766  19.517  0.00  0.00    +0.000 A 
ENDBRANCH   7   9
BRANCH   4  16
ATOM     16  C   UNL     1       6.643   4.645  14.488  0.00  0.00    +0.000 A 
ATOM     17  C   UNL     1       6.002   3.706  13.667  0.00  0.00    +0.000 A 
ATOM     18  C   UNL     1       6.352   3.555  12.325  0.00  0.00    +0.000 A 
ATOM     19  C   UNL     1       7.353   4.349  11.778  0.00  0.00    +0.000 A 
ATOM     20  C   UNL     1       7.981   5.311  12.567  0.00  0.00    +0.000 A 
ATOM     21  C   UNL     1       7.621   5.468  13.911  0.00  0.00    +0.000 A 
ENDBRANCH   4  16
TORSDOF 2
ENDMDL
MODEL 3
REMARK VINA RESULT:      -7.4      0.078      1.085
REMARK  Name = 
REMARK  3 active torsions:
REMARK  status: ('A' for Active; 'I' for Inactive)
REMARK    1  A    between atoms: C_1  and  C_2
REMARK    2  A    between atoms: N_4  and  C_5
REMARK    3  A    between atoms: C_13  and  C_14
REMARK                            x       y       z     vdW  Elec       q    Type
REMARK                         _______ _______ _______ _____ _____    ______ ____
ROOT
ATOM      1  C   UNL     1       7.245   5.424  19.316  0.00  0.00    +0.000 C 
ATOM      2  C   UNL     1       6.642   4.931  18.043  0.00  0.00    +0.000 A 
ATOM      3  N   UNL     1       7.307   5.058  16.825  0.00  0.00    +0.000 N 
ATOM      4  N   UNL     1       6.386   4.672  15.834  0.00  0.00    +0.000 N 
ATOM      5  C   UNL     1       5.218   4.205  16.446  0.00  0.00    +0.000 A 
ATOM      6  O   UNL     1       4.203   3.737  15.960  0.00  0.00    +0.000 OA
ATOM      7  C   UNL     1       5.425   4.373  17.911  0.00  0.00    +0.000 A 
ATOM      8  H   UNL     1       7.686   5.995  16.684  0.00  0.00    +0.000 HD
ENDROOT
BRANCH   7   9
ATOM      9  C   UNL     1       4.441   4.025  18.921  0.00  0.00    +0.000 A 
ATOM     10  C   UNL     1       4.433   2.747  19.489  0.00  0.00    +0.000 A 
ATOM     11  C   UNL     1       3.508   2.431  20.486  0.00  0.00    +0.000 A 
ATOM     12  C   UNL     1       2.595   3.394  20.915  0.00  0.00    +0.000 A 
ATOM     13 CL   UNL     1       1.456   3.001  22.144  0.00  0.00    +0.000 Cl
ATOM     14  C   UNL     1       2.599   4.671  20.359  0.00  0.00    +0.000 A 
ATOM     15  C   UNL     1       3.522   4.987  19.360  0.00  0.00    +0.000 A 
ENDBRANCH   7   9
BRANCH   4  16
ATOM     16  C   UNL     1       6.741   4.589  14.474  0.00  0.00    +0.000 A 
ATOM     17  C   UNL     1       7.689   5.470  13.933  0.00  0.00    +0.000 A 
ATOM     18  C   UNL     1       8.002   5.455  12.574  0.00  0.00    +0.000 A 
ATOM     19  C   UNL     1       7.370   4.551  11.728  0.00  0.00    +0.000 A 
ATOM     20  C   UNL     1       6.447   3.646  12.249  0.00  0.00    +0.000 A 
ATOM     21  C   UNL     1       6.142   3.656  13.616  0.00  0.00    +0.000 A 
ENDBRANCH   4  16
TORSDOF 2
ENDMDL
MODEL 4
REMARK VINA RESULT:      -7.4      0.130      1.530
REMARK  Name = 
REMARK  3 active torsions:
REMARK  status: ('A' for Active; 'I' for Inactive)
REMARK    1  A    between atoms: C_1  and  C_2
REMARK    2  A    between atoms: N_4  and  C_5
REMARK    3  A    between atoms: C_13  and  C_14
REMARK                            x       y       z     vdW  Elec       q    Type
REMARK                         _______ _______ _______ _____ _____    ______ ____
ROOT
ATOM      1  C   UNL     1       7.128   5.502  19.307  0.00  0.00    +0.000 C 
ATOM      2  C   UNL     1       6.534   4.995  18.036  0.00  0.00    +0.000 A 
ATOM      3  N   UNL     1       7.189   5.144  16.816  0.00  0.00    +0.000 N 
ATOM      4  N   UNL     1       6.276   4.734  15.827  0.00  0.00    +0.000 N 
ATOM      5  C   UNL     1       5.124   4.232  16.443  0.00  0.00    +0.000 A 
ATOM      6  O   UNL     1       4.122   3.736  15.960  0.00  0.00    +0.000 OA
ATOM      7  C   UNL     1       5.333   4.401  17.907  0.00  0.00    +0.000 A 
ATOM      8  H   UNL     1       7.540   6.093  16.676  0.00  0.00    +0.000 HD
ENDROOT
BRANCH   7   9
ATOM      9  C   UNL     1       4.364   4.023  18.921  0.00  0.00    +0.000 A 
ATOM     10  C   UNL     1       4.435   2.765  19.530  0.00  0.00    +0.000 A 
ATOM     11  C   UNL     1       3.523   2.421  20.530  0.00  0.00    +0.000 A 
ATOM     12  C   UNL     1       2.545   3.335  20.920  0.00  0.00    +0.000 A 
ATOM     13 CL   UNL     1       1.422   2.908  22.152  0.00  0.00    +0.000 Cl
ATOM     14  C   UNL     1       2.470   4.591  20.323  0.00  0.00    +0.000 A 
ATOM     15  C   UNL     1       3.380   4.935  19.321  0.00  0.00    +0.000 A 
ENDBRANCH   7   9
BRANCH   4  16
ATOM     16  C   UNL     1       6.627   4.666  14.465  0.00  0.00    +0.000 A 
ATOM     17  C   UNL     1       6.012   3.730  13.620  0.00  0.00    +0.000 A 
ATOM     18  C   UNL     1       6.396   3.594  12.286  0.00  0.00    +0.000 A 
ATOM     19  C   UNL     1       7.405   4.399  11.771  0.00  0.00    +0.000 A 
ATOM     20  C   UNL     1       8.008   5.356  12.584  0.00  0.00    +0.000 A 
ATOM     21  C   UNL     1       7.614   5.499  13.920  0.00  0.00    +0.000 A 
ENDBRANCH   4  16
TORSDOF 2
ENDMDL
MODEL 5
REMARK VINA RESULT:      -7.1      6.005      7.575
REMARK  Name = 
REMARK  3 active torsions:
REMARK  status: ('A' for Active; 'I' for Inactive)
REMARK    1  A    between atoms: C_1  and  C_2
REMARK    2  A    between atoms: N_4  and  C_5
REMARK    3  A    between atoms: C_13  and  C_14
REMARK                            x       y       z     vdW  Elec       q    Type
REMARK                         _______ _______ _______ _____ _____    ______ ____
ROOT
ATOM      1  C   UNL     1       1.007   8.977  21.891  0.00  0.00    +0.000 C 
ATOM      2  C   UNL     1       1.424   8.531  20.530  0.00  0.00    +0.000 A 
ATOM      3  N   UNL     1       1.923   7.250  20.305  0.00  0.00    +0.000 N 
ATOM      4  N   UNL     1       2.387   7.238  18.976  0.00  0.00    +0.000 N 
ATOM      5  C   UNL     1       2.068   8.455  18.365  0.00  0.00    +0.000 A 
ATOM      6  O   UNL     1       2.244   8.836  17.222  0.00  0.00    +0.000 OA
ATOM      7  C   UNL     1       1.415   9.284  19.415  0.00  0.00    +0.000 A 
ATOM      8  H   UNL     1       2.636   6.984  20.986  0.00  0.00    +0.000 HD
ENDROOT
BRANCH   7   9
ATOM      9  C   UNL     1       0.938  10.641  19.208  0.00  0.00    +0.000 A 
ATOM     10  C   UNL     1      -0.411  10.880  18.927  0.00  0.00    +0.000 A 
ATOM     11  C   UNL     1      -0.870  12.189  18.764  0.00  0.00    +0.000 A 
ATOM     12  C   UNL     1       0.020  13.255  18.886  0.00  0.00    +0.000 A 
ATOM     13 CL   UNL     1      -0.549  14.867  18.685  0.00  0.00    +0.000 Cl
ATOM     14  C   UNL     1       1.364  13.027  19.171  0.00  0.00    +0.000 A 
ATOM     15  C   UNL     1       1.824  11.718  19.331  0.00  0.00    +0.000 A 
ENDBRANCH   7   9
BRANCH   4  16
ATOM     16  C   UNL     1       2.883   6.069  18.367  0.00  0.00    +0.000 A 
ATOM     17  C   UNL     1       4.205   6.019  17.901  0.00  0.00    +0.000 A 
ATOM     18  C   UNL     1       4.696   4.899  17.228  0.00  0.00    +0.000 A 
ATOM     19  C   UNL     1       3.868   3.804  17.013  0.00  0.00    +0.000 A 
ATOM     20  C   UNL     1       2.561   3.820  17.495  0.00  0.00    +0.000 A 
ATOM     21  C   UNL     1       2.073   4.940  18.179  0.00  0.00    +0.000 A 
ENDBRANCH   4  16
TORSDOF 2
ENDMDL
MODEL 6
REMARK VINA RESULT:      -7.1      4.808      8.012
REMARK  Name = 
REMARK  3 active torsions:
REMARK  status: ('A' for Active; 'I' for Inactive)
REMARK    1  A    between atoms: C_1  and  C_2
REMARK    2  A    between atoms: N_4  and  C_5
REMARK    3  A    between atoms: C_13  and  C_14
REMARK                            x       y       z     vdW  Elec       q    Type
REMARK                         _______ _______ _______ _____ _____    ______ ____
ROOT
ATOM      1  C   UNL     1       2.691   4.307  20.537  0.00  0.00    +0.000 C 
ATOM      2  C   UNL     1       2.473   5.730  20.147  0.00  0.00    +0.000 A 
ATOM      3  N   UNL     1       1.717   6.594  20.937  0.00  0.00    +0.000 N 
ATOM      4  N   UNL     1       1.562   7.775  20.188  0.00  0.00    +0.000 N 
ATOM      5  C   UNL     1       2.312   7.677  19.011  0.00  0.00    +0.000 A 
ATOM      6  O   UNL     1       2.491   8.486  18.118  0.00  0.00    +0.000 OA
ATOM      7  C   UNL     1       2.918   6.318  19.021  0.00  0.00    +0.000 A 
ATOM      8  H   UNL     1       0.831   6.179  21.228  0.00  0.00    +0.000 HD
ENDROOT
BRANCH   7   9
ATOM      9  C   UNL     1       3.766   5.792  17.965  0.00  0.00    +0.000 A 
ATOM     10  C   UNL     1       4.837   6.548  17.478  0.00  0.00    +0.000 A 
ATOM     11  C   UNL     1       5.671   6.022  16.488  0.00  0.00    +0.000 A 
ATOM     12  C   UNL     1       5.433   4.742  15.990  0.00  0.00    +0.000 A 
ATOM     13 CL   UNL     1       6.462   4.097  14.771  0.00  0.00    +0.000 Cl
ATOM     14  C   UNL     1       4.372   3.980  16.474  0.00  0.00    +0.000 A 
ATOM     15  C   UNL     1       3.536   4.506  17.461  0.00  0.00    +0.000 A 
ENDBRANCH   7   9
BRANCH   4  16
ATOM     16  C   UNL     1       0.920   8.914  20.711  0.00  0.00    +0.000 A 
ATOM     17  C   UNL     1       0.643   9.005  22.083  0.00  0.00    +0.000 A 
ATOM     18  C   UNL     1      -0.058  10.090  22.612  0.00  0.00    +0.000 A 
ATOM     19  C   UNL     1      -0.491  11.109  21.773  0.00  0.00    +0.000 A 
ATOM     20  C   UNL     1      -0.199  11.054  20.411  0.00  0.00    +0.000 A 
ATOM     21  C   UNL     1       0.513   9.970  19.884  0.00  0.00    +0.000 A 
ENDBRANCH   4  16
TORSDOF 2
ENDMDL
MODEL 7
REMARK VINA RESULT:      -7.1      4.763      8.028
REMARK  Name = 
REMARK  3 active torsions:
REMARK  status: ('A' for Active; 'I' for Inactive)
REMARK    1  A    between atoms: C_1  and  C_2
REMARK    2  A    between atoms: N_4  and  C_5
REMARK    3  A    between atoms: C_13  and  C_14
REMARK                            x       y       z     vdW  Elec       q    Type
REMARK                         _______ _______ _______ _____ _____    ______ ____
ROOT
ATOM      1  C   UNL     1       2.848   4.238  20.445  0.00  0.00    +0.000 C 
ATOM      2  C   UNL     1       2.591   5.659  20.070  0.00  0.00    +0.000 A 
ATOM      3  N   UNL     1       1.830   6.499  20.880  0.00  0.00    +0.000 N 
ATOM      4  N   UNL     1       1.635   7.683  20.144  0.00  0.00    +0.000 N 
ATOM      5  C   UNL     1       2.365   7.611  18.953  0.00  0.00    +0.000 A 
ATOM      6  O   UNL     1       2.510   8.430  18.063  0.00  0.00    +0.000 OA
ATOM      7  C   UNL     1       3.003   6.265  18.942  0.00  0.00    +0.000 A 
ATOM      8  H   UNL     1       0.959   6.062  21.184  0.00  0.00    +0.000 HD
ENDROOT
BRANCH   7   9
ATOM      9  C   UNL     1       3.843   5.767  17.867  0.00  0.00    +0.000 A 
ATOM     10  C   UNL     1       3.673   4.466  17.381  0.00  0.00    +0.000 A 
ATOM     11  C   UNL     1       4.459   4.006  16.323  0.00  0.00    +0.000 A 
ATOM     12  C   UNL     1       5.412   4.847  15.751  0.00  0.00    +0.000 A 
ATOM     13 CL   UNL     1       6.380   4.277  14.448  0.00  0.00    +0.000 Cl
ATOM     14  C   UNL     1       5.586   6.146  16.225  0.00  0.00    +0.000 A 
ATOM     15  C   UNL     1       4.801   6.606  17.285  0.00  0.00    +0.000 A 
ENDBRANCH   7   9
BRANCH   4  16
ATOM     16  C   UNL     1       0.976   8.803  20.687  0.00  0.00    +0.000 A 
ATOM     17  C   UNL     1       0.730   8.881  22.065  0.00  0.00    +0.000 A 
ATOM     18  C   UNL     1       0.015   9.945  22.616  0.00  0.00    +0.000 A 
ATOM     19  C   UNL     1      -0.465  10.956  21.792  0.00  0.00    +0.000 A 
ATOM     20  C   UNL     1      -0.204  10.914  20.423  0.00  0.00    +0.000 A 
ATOM     21  C   UNL     1       0.522   9.851  19.874  0.00  0.00    +0.000 A 
ENDBRANCH   4  16
TORSDOF 2
ENDMDL
MODEL 8
REMARK VINA RESULT:      -7.1      6.036      7.669
REMARK  Name = 
REMARK  3 active torsions:
REMARK  status: ('A' for Active; 'I' for Inactive)
REMARK    1  A    between atoms: C_1  and  C_2
REMARK    2  A    between atoms: N_4  and  C_5
REMARK    3  A    between atoms: C_13  and  C_14
REMARK                            x       y       z     vdW  Elec       q    Type
REMARK                         _______ _______ _______ _____ _____    ______ ____
ROOT
ATOM      1  C   UNL     1       1.042   8.992  21.846  0.00  0.00    +0.000 C 
ATOM      2  C   UNL     1       1.433   8.561  20.472  0.00  0.00    +0.000 A 
ATOM      3  N   UNL     1       1.925   7.281  20.223  0.00  0.00    +0.000 N 
ATOM      4  N   UNL     1       2.363   7.282  18.886  0.00  0.00    +0.000 N 
ATOM      5  C   UNL     1       2.036   8.507  18.294  0.00  0.00    +0.000 A 
ATOM      6  O   UNL     1       2.191   8.901  17.152  0.00  0.00    +0.000 OA
ATOM      7  C   UNL     1       1.404   9.326  19.366  0.00  0.00    +0.000 A 
ATOM      8  H   UNL     1       2.649   7.006  20.888  0.00  0.00    +0.000 HD
ENDROOT
BRANCH   7   9
ATOM      9  C   UNL     1       0.927  10.686  19.182  0.00  0.00    +0.000 A 
ATOM     10  C   UNL     1      -0.446  10.953  19.140  0.00  0.00    +0.000 A 
ATOM     11  C   UNL     1      -0.898  12.266  19.000  0.00  0.00    +0.000 A 
ATOM     12  C   UNL     1       0.021  13.310  18.905  0.00  0.00    +0.000 A 
ATOM     13 CL   UNL     1      -0.540  14.927  18.733  0.00  0.00    +0.000 Cl
ATOM     14  C   UNL     1       1.390  13.054  18.951  0.00  0.00    +0.000 A 
ATOM     15  C   UNL     1       1.843  11.740  19.089  0.00  0.00    +0.000 A 
ENDBRANCH   7   9
BRANCH   4  16
ATOM     16  C   UNL     1       2.845   6.120  18.254  0.00  0.00    +0.000 A 
ATOM     17  C   UNL     1       2.015   5.000  18.102  0.00  0.00    +0.000 A 
ATOM     18  C   UNL     1       2.492   3.812  17.546  0.00  0.00    +0.000 A 
ATOM     19  C   UNL     1       3.815   3.727  17.129  0.00  0.00    +0.000 A 
ATOM     20  C   UNL     1       4.649   4.838  17.242  0.00  0.00    +0.000 A 
ATOM     21  C   UNL     1       4.165   6.032  17.790  0.00  0.00    +0.000 A 
ENDBRANCH   4  16
TORSDOF 2
ENDMDL
MODEL 9
REMARK VINA RESULT:      -7.1      6.018      7.646
REMARK  Name = 
REMARK  3 active torsions:
REMARK  status: ('A' for Active; 'I' for Inactive)
REMARK    1  A    between atoms: C_1  and  C_2
REMARK    2  A    between atoms: N_4  and  C_5
REMARK    3  A    between atoms: C_13  and  C_14
REMARK                            x       y       z     vdW  Elec       q    Type
REMARK                         _______ _______ _______ _____ _____    ______ ____
ROOT
ATOM      1  C   UNL     1       1.061   8.917  21.879  0.00  0.00    +0.000 C 
ATOM      2  C   UNL     1       1.446   8.513  20.495  0.00  0.00    +0.000 A 
ATOM      3  N   UNL     1       1.933   7.238  20.218  0.00  0.00    +0.000 N 
ATOM      4  N   UNL     1       2.368   7.266  18.880  0.00  0.00    +0.000 N 
ATOM      5  C   UNL     1       2.042   8.504  18.315  0.00  0.00    +0.000 A 
ATOM      6  O   UNL     1       2.194   8.921  17.181  0.00  0.00    +0.000 OA
ATOM      7  C   UNL     1       1.415   9.302  19.406  0.00  0.00    +0.000 A 
ATOM      8  H   UNL     1       2.659   6.947  20.875  0.00  0.00    +0.000 HD
ENDROOT
BRANCH   7   9
ATOM      9  C   UNL     1       0.941  10.666  19.253  0.00  0.00    +0.000 A 
ATOM     10  C   UNL     1       1.848  11.730  19.224  0.00  0.00    +0.000 A 
ATOM     11  C   UNL     1       1.389  13.036  19.039  0.00  0.00    +0.000 A 
ATOM     12  C   UNL     1       0.024  13.275  18.882  0.00  0.00    +0.000 A 
ATOM     13 CL   UNL     1      -0.539  14.885  18.655  0.00  0.00    +0.000 Cl
ATOM     14  C   UNL     1      -0.886  12.221  18.904  0.00  0.00    +0.000 A 
ATOM     15  C   UNL     1      -0.428  10.915  19.091  0.00  0.00    +0.000 A 
ENDBRANCH   7   9
BRANCH   4  16
ATOM     16  C   UNL     1       2.844   6.116  18.223  0.00  0.00    +0.000 A 
ATOM     17  C   UNL     1       2.034   4.976  18.111  0.00  0.00    +0.000 A 
ATOM     18  C   UNL     1       2.511   3.801  17.529  0.00  0.00    +0.000 A 
ATOM     19  C   UNL     1       3.813   3.748  17.044  0.00  0.00    +0.000 A 
ATOM     20  C   UNL     1       4.625   4.878  17.117  0.00  0.00    +0.000 A 
ATOM     21  C   UNL     1       4.141   6.060  17.691  0.00  0.00    +0.000 A 
ENDBRANCH   4  16
TORSDOF 2
ENDMDL
