MODEL 1
REMARK VINA RESULT:      -7.7      0.000      0.000
REMARK  Name = 
REMARK  5 active torsions:
REMARK  status: ('A' for Active; 'I' for Inactive)
REMARK    1  A    between atoms: O_1  and  C_2
REMARK    2  A    between atoms: C_3  and  N_4
REMARK    3  A    between atoms: N_9  and  C_10
REMARK    4  A    between atoms: C_10  and  C_11
REMARK    5  A    between atoms: C_25  and  O_26
REMARK                            x       y       z     vdW  Elec       q    Type
REMARK                         _______ _______ _______ _____ _____    ______ ____
ROOT
ATOM      1  N   UNL     1       4.214   4.476  18.387  0.00  0.00    +0.000 N 
ATOM      2  C   UNL     1       4.366   5.181  19.553  0.00  0.00    +0.000 A 
ATOM      3  N   UNL     1       5.363   6.038  19.484  0.00  0.00    +0.000 NA
ATOM      4  C   UNL     1       5.864   5.906  18.205  0.00  0.00    +0.000 A 
ATOM      5  C   UNL     1       6.919   6.551  17.522  0.00  0.00    +0.000 A 
ATOM      6  N   UNL     1       7.731   7.494  18.146  0.00  0.00    +0.000 N 
ATOM      7  N   UNL     1       7.151   6.189  16.234  0.00  0.00    +0.000 NA
ATOM      8  C   UNL     1       6.378   5.232  15.692  0.00  0.00    +0.000 A 
ATOM      9 CL   UNL     1       6.740   4.819  14.070  0.00  0.00    +0.000 Cl
ATOM     10  N   UNL     1       5.369   4.532  16.247  0.00  0.00    +0.000 NA
ATOM     11  C   UNL     1       5.157   4.938  17.507  0.00  0.00    +0.000 A 
ATOM     12  H   UNL     1       7.393   7.751  19.070  0.00  0.00    +0.000 HD
ENDROOT
BRANCH   1  14
ATOM     13  C   UNL     1       1.801   3.831  18.437  0.00  0.00    +0.000 C 
ATOM     14  C   UNL     1       3.257   3.400  18.166  0.00  0.00    +0.000 C 
ATOM     15  S   UNL     1       3.589   1.924  19.182  0.00  0.00    +0.000 S 
ATOM     16  C   UNL     1       1.980   1.958  20.028  0.00  0.00    +0.000 C 
ATOM     17  C   UNL     1       1.043   2.627  19.030  0.00  0.00    +0.000 C 
BRANCH  13  18
ATOM     18  O   UNL     1       1.173   4.267  17.225  0.00  0.00    +0.000 OA
ATOM     19  H   UNL     1       1.444   5.186  17.052  0.00  0.00    +0.000 HD
ENDBRANCH  13  18
BRANCH  17  20
ATOM     20  O   UNL     1       0.614   1.681  18.046  0.00  0.00    +0.000 OA
ATOM     21  H   UNL     1       0.587   0.798  18.447  0.00  0.00    +0.000 HD
ENDBRANCH  17  20
ENDBRANCH   1  14
BRANCH   6  22
ATOM     22  C   UNL     1       8.246   8.582  17.332  0.00  0.00    +0.000 C 
BRANCH  22  23
ATOM     23  C   UNL     1       8.639   9.758  18.202  0.00  0.00    +0.000 A 
ATOM     24  C   UNL     1       9.155   9.552  19.491  0.00  0.00    +0.000 A 
ATOM     25  C   UNL     1       9.547  10.636  20.284  0.00  0.00    +0.000 A 
ATOM     26  C   UNL     1       9.426  11.936  19.798  0.00  0.00    +0.000 A 
ATOM     27  C   UNL     1       8.917  12.150  18.520  0.00  0.00    +0.000 A 
ATOM     28 BR   UNL     1       8.758  13.913  17.858  0.00  0.00    +0.000 Br
ATOM     29  C   UNL     1       8.529  11.073  17.721  0.00  0.00    +0.000 A 
ENDBRANCH  22  23
ENDBRANCH   6  22
TORSDOF 5
ENDMDL
MODEL 2
REMARK VINA RESULT:      -7.5      6.930      8.113
REMARK  Name = 
REMARK  5 active torsions:
REMARK  status: ('A' for Active; 'I' for Inactive)
REMARK    1  A    between atoms: O_1  and  C_2
REMARK    2  A    between atoms: C_3  and  N_4
REMARK    3  A    between atoms: N_9  and  C_10
REMARK    4  A    between atoms: C_10  and  C_11
REMARK    5  A    between atoms: C_25  and  O_26
REMARK                            x       y       z     vdW  Elec       q    Type
REMARK                         _______ _______ _______ _____ _____    ______ ____
ROOT
ATOM      1  N   UNL     1       2.929   6.856  18.926  0.00  0.00    +0.000 N 
ATOM      2  C   UNL     1       3.219   7.399  17.701  0.00  0.00    +0.000 A 
ATOM      3  N   UNL     1       2.563   8.522  17.492  0.00  0.00    +0.000 NA
ATOM      4  C   UNL     1       1.837   8.734  18.646  0.00  0.00    +0.000 A 
ATOM      5  C   UNL     1       0.954   9.764  19.042  0.00  0.00    +0.000 A 
ATOM      6  N   UNL     1       0.617  10.812  18.190  0.00  0.00    +0.000 N 
ATOM      7  N   UNL     1       0.400   9.678  20.279  0.00  0.00    +0.000 NA
ATOM      8  C   UNL     1       0.710   8.618  21.045  0.00  0.00    +0.000 A 
ATOM      9 CL   UNL     1      -0.037   8.573  22.585  0.00  0.00    +0.000 Cl
ATOM     10  N   UNL     1       1.511   7.570  20.769  0.00  0.00    +0.000 NA
ATOM     11  C   UNL     1       2.056   7.706  19.551  0.00  0.00    +0.000 A 
ATOM     12  H   UNL     1       1.172  10.818  17.339  0.00  0.00    +0.000 HD
ENDROOT
BRANCH   1  14
ATOM     13  C   UNL     1       4.755   5.158  18.767  0.00  0.00    +0.000 C 
ATOM     14  C   UNL     1       3.425   5.581  19.426  0.00  0.00    +0.000 C 
ATOM     15  S   UNL     1       2.243   4.212  19.200  0.00  0.00    +0.000 S 
ATOM     16  C   UNL     1       3.362   3.213  18.173  0.00  0.00    +0.000 C 
ATOM     17  C   UNL     1       4.758   3.623  18.627  0.00  0.00    +0.000 C 
BRANCH  13  18
ATOM     18  O   UNL     1       5.867   5.589  19.561  0.00  0.00    +0.000 OA
ATOM     19  H   UNL     1       5.537   6.194  20.249  0.00  0.00    +0.000 HD
ENDBRANCH  13  18
BRANCH  17  20
ATOM     20  O   UNL     1       5.102   2.940  19.837  0.00  0.00    +0.000 OA
ATOM     21  H   UNL     1       5.280   3.596  20.531  0.00  0.00    +0.000 HD
ENDBRANCH  17  20
ENDBRANCH   1  14
BRANCH   6  22
ATOM     22  C   UNL     1       0.358  12.110  18.789  0.00  0.00    +0.000 C 
BRANCH  22  23
ATOM     23  C   UNL     1      -1.104  12.241  19.164  0.00  0.00    +0.000 A 
ATOM     24  C   UNL     1      -1.483  12.897  20.345  0.00  0.00    +0.000 A 
ATOM     25  C   UNL     1      -2.833  13.045  20.677  0.00  0.00    +0.000 A 
ATOM     26  C   UNL     1      -3.819  12.538  19.833  0.00  0.00    +0.000 A 
ATOM     27  C   UNL     1      -3.453  11.888  18.657  0.00  0.00    +0.000 A 
ATOM     28 BR   UNL     1      -4.790  11.205  17.508  0.00  0.00    +0.000 Br
ATOM     29  C   UNL     1      -2.106  11.741  18.318  0.00  0.00    +0.000 A 
ENDBRANCH  22  23
ENDBRANCH   6  22
TORSDOF 5
ENDMDL
MODEL 3
REMARK VINA RESULT:      -7.3      5.528      6.354
REMARK  Name = 
REMARK  5 active torsions:
REMARK  status: ('A' for Active; 'I' for Inactive)
REMARK    1  A    between atoms: O_1  and  C_2
REMARK    2  A    between atoms: C_3  and  N_4
REMARK    3  A    between atoms: N_9  and  C_10
REMARK    4  A    between atoms: C_10  and  C_11
REMARK    5  A    between atoms: C_25  and  O_26
REMARK                            x       y       z     vdW  Elec       q    Type
REMARK                         _______ _______ _______ _____ _____    ______ ____
ROOT
ATOM      1  N   UNL     1       2.874   6.953  18.947  0.00  0.00    +0.000 N 
ATOM      2  C   UNL     1       3.211   7.547  17.758  0.00  0.00    +0.000 A 
ATOM      3  N   UNL     1       2.582   8.691  17.583  0.00  0.00    +0.000 NA
ATOM      4  C   UNL     1       1.825   8.863  18.723  0.00  0.00    +0.000 A 
ATOM      5  C   UNL     1       0.949   9.890  19.141  0.00  0.00    +0.000 A 
ATOM      6  N   UNL     1       0.657  10.983  18.329  0.00  0.00    +0.000 N 
ATOM      7  N   UNL     1       0.356   9.758  20.355  0.00  0.00    +0.000 NA
ATOM      8  C   UNL     1       0.624   8.657  21.079  0.00  0.00    +0.000 A 
ATOM      9 CL   UNL     1      -0.172   8.555  22.592  0.00  0.00    +0.000 Cl
ATOM     10  N   UNL     1       1.413   7.608  20.778  0.00  0.00    +0.000 NA
ATOM     11  C   UNL     1       1.998   7.790  19.585  0.00  0.00    +0.000 A 
ATOM     12  H   UNL     1       1.238  11.018  17.496  0.00  0.00    +0.000 HD
ENDROOT
BRANCH   1  14
ATOM     13  C   UNL     1       4.662   5.220  18.747  0.00  0.00    +0.000 C 
ATOM     14  C   UNL     1       3.331   5.646  19.401  0.00  0.00    +0.000 C 
ATOM     15  S   UNL     1       2.122   4.317  19.098  0.00  0.00    +0.000 S 
ATOM     16  C   UNL     1       3.236   3.336  18.048  0.00  0.00    +0.000 C 
ATOM     17  C   UNL     1       4.632   3.692  18.542  0.00  0.00    +0.000 C 
BRANCH  13  18
ATOM     18  O   UNL     1       5.770   5.590  19.576  0.00  0.00    +0.000 OA
ATOM     19  H   UNL     1       5.741   6.553  19.716  0.00  0.00    +0.000 HD
ENDBRANCH  13  18
BRANCH  17  20
ATOM     20  O   UNL     1       4.939   2.952  19.728  0.00  0.00    +0.000 OA
ATOM     21  H   UNL     1       5.645   2.316  19.529  0.00  0.00    +0.000 HD
ENDBRANCH  17  20
ENDBRANCH   1  14
BRANCH   6  22
ATOM     22  C   UNL     1       0.404  12.257  18.981  0.00  0.00    +0.000 C 
BRANCH  22  23
ATOM     23  C   UNL     1       1.687  13.051  19.114  0.00  0.00    +0.000 A 
ATOM     24  C   UNL     1       2.452  13.367  17.982  0.00  0.00    +0.000 A 
ATOM     25  C   UNL     1       3.621  14.126  18.100  0.00  0.00    +0.000 A 
ATOM     26  C   UNL     1       4.038  14.576  19.351  0.00  0.00    +0.000 A 
ATOM     27  C   UNL     1       3.283  14.269  20.480  0.00  0.00    +0.000 A 
ATOM     28 BR   UNL     1       3.845  14.884  22.178  0.00  0.00    +0.000 Br
ATOM     29  C   UNL     1       2.113  13.516  20.369  0.00  0.00    +0.000 A 
ENDBRANCH  22  23
ENDBRANCH   6  22
TORSDOF 5
ENDMDL
MODEL 4
REMARK VINA RESULT:      -7.3      5.835      6.643
REMARK  Name = 
REMARK  5 active torsions:
REMARK  status: ('A' for Active; 'I' for Inactive)
REMARK    1  A    between atoms: O_1  and  C_2
REMARK    2  A    between atoms: C_3  and  N_4
REMARK    3  A    between atoms: N_9  and  C_10
REMARK    4  A    between atoms: C_10  and  C_11
REMARK    5  A    between atoms: C_25  and  O_26
REMARK                            x       y       z     vdW  Elec       q    Type
REMARK                         _______ _______ _______ _____ _____    ______ ____
ROOT
ATOM      1  N   UNL     1       2.846   7.116  18.863  0.00  0.00    +0.000 N 
ATOM      2  C   UNL     1       3.110   7.716  17.659  0.00  0.00    +0.000 A 
ATOM      3  N   UNL     1       2.412   8.821  17.496  0.00  0.00    +0.000 NA
ATOM      4  C   UNL     1       1.683   8.961  18.659  0.00  0.00    +0.000 A 
ATOM      5  C   UNL     1       0.764   9.941  19.096  0.00  0.00    +0.000 A 
ATOM      6  N   UNL     1       0.385  11.008  18.286  0.00  0.00    +0.000 N 
ATOM      7  N   UNL     1       0.218   9.788  20.330  0.00  0.00    +0.000 NA
ATOM      8  C   UNL     1       0.572   8.711  21.054  0.00  0.00    +0.000 A 
ATOM      9 CL   UNL     1      -0.168   8.579  22.593  0.00  0.00    +0.000 Cl
ATOM     10  N   UNL     1       1.410   7.705  20.736  0.00  0.00    +0.000 NA
ATOM     11  C   UNL     1       1.944   7.908  19.523  0.00  0.00    +0.000 A 
ATOM     12  H   UNL     1       0.936  11.067  17.434  0.00  0.00    +0.000 HD
ENDROOT
BRANCH   1  14
ATOM     13  C   UNL     1       4.587   5.370  18.459  0.00  0.00    +0.000 C 
ATOM     14  C   UNL     1       3.391   5.842  19.312  0.00  0.00    +0.000 C 
ATOM     15  S   UNL     1       2.161   4.498  19.321  0.00  0.00    +0.000 S 
ATOM     16  C   UNL     1       3.078   3.446  18.155  0.00  0.00    +0.000 C 
ATOM     17  C   UNL     1       4.536   3.833  18.365  0.00  0.00    +0.000 C 
BRANCH  13  18
ATOM     18  O   UNL     1       5.822   5.793  19.048  0.00  0.00    +0.000 OA
ATOM     19  H   UNL     1       6.139   5.087  19.638  0.00  0.00    +0.000 HD
ENDBRANCH  13  18
BRANCH  17  20
ATOM     20  O   UNL     1       5.060   3.173  19.522  0.00  0.00    +0.000 OA
ATOM     21  H   UNL     1       5.969   2.885  19.337  0.00  0.00    +0.000 HD
ENDBRANCH  17  20
ENDBRANCH   1  14
BRANCH   6  22
ATOM     22  C   UNL     1       0.080  12.271  18.935  0.00  0.00    +0.000 C 
BRANCH  22  23
ATOM     23  C   UNL     1       1.188  13.275  18.693  0.00  0.00    +0.000 A 
ATOM     24  C   UNL     1       2.455  12.851  18.263  0.00  0.00    +0.000 A 
ATOM     25  C   UNL     1       3.469  13.779  18.009  0.00  0.00    +0.000 A 
ATOM     26  C   UNL     1       3.230  15.141  18.184  0.00  0.00    +0.000 A 
ATOM     27  C   UNL     1       1.976  15.571  18.608  0.00  0.00    +0.000 A 
ATOM     28 BR   UNL     1       1.648  17.419  18.840  0.00  0.00    +0.000 Br
ATOM     29  C   UNL     1       0.956  14.650  18.859  0.00  0.00    +0.000 A 
ENDBRANCH  22  23
ENDBRANCH   6  22
TORSDOF 5
ENDMDL
MODEL 5
REMARK VINA RESULT:      -7.3      7.018      8.346
REMARK  Name = 
REMARK  5 active torsions:
REMARK  status: ('A' for Active; 'I' for Inactive)
REMARK    1  A    between atoms: O_1  and  C_2
REMARK    2  A    between atoms: C_3  and  N_4
REMARK    3  A    between atoms: N_9  and  C_10
REMARK    4  A    between atoms: C_10  and  C_11
REMARK    5  A    between atoms: C_25  and  O_26
REMARK                            x       y       z     vdW  Elec       q    Type
REMARK                         _______ _______ _______ _____ _____    ______ ____
ROOT
ATOM      1  N   UNL     1       2.883   7.097  18.892  0.00  0.00    +0.000 N 
ATOM      2  C   UNL     1       3.062   7.632  17.642  0.00  0.00    +0.000 A 
ATOM      3  N   UNL     1       2.311   8.696  17.449  0.00  0.00    +0.000 NA
ATOM      4  C   UNL     1       1.635   8.879  18.637  0.00  0.00    +0.000 A 
ATOM      5  C   UNL     1       0.697   9.847  19.062  0.00  0.00    +0.000 A 
ATOM      6  N   UNL     1       0.233  10.845  18.210  0.00  0.00    +0.000 N 
ATOM      7  N   UNL     1       0.219   9.749  20.330  0.00  0.00    +0.000 NA
ATOM      8  C   UNL     1       0.653   8.734  21.097  0.00  0.00    +0.000 A 
ATOM      9 CL   UNL     1      -0.003   8.669  22.678  0.00  0.00    +0.000 Cl
ATOM     10  N   UNL     1       1.517   7.744  20.797  0.00  0.00    +0.000 NA
ATOM     11  C   UNL     1       1.982   7.893  19.548  0.00  0.00    +0.000 A 
ATOM     12  H   UNL     1       0.739  10.873  17.329  0.00  0.00    +0.000 HD
ENDROOT
BRANCH   1  14
ATOM     13  C   UNL     1       4.536   5.289  18.403  0.00  0.00    +0.000 C 
ATOM     14  C   UNL     1       3.504   5.876  19.388  0.00  0.00    +0.000 C 
ATOM     15  S   UNL     1       2.300   4.562  19.767  0.00  0.00    +0.000 S 
ATOM     16  C   UNL     1       3.006   3.366  18.593  0.00  0.00    +0.000 C 
ATOM     17  C   UNL     1       4.477   3.752  18.502  0.00  0.00    +0.000 C 
BRANCH  13  18
ATOM     18  O   UNL     1       5.853   5.758  18.718  0.00  0.00    +0.000 OA
ATOM     19  H   UNL     1       5.773   6.506  19.337  0.00  0.00    +0.000 HD
ENDBRANCH  13  18
BRANCH  17  20
ATOM     20  O   UNL     1       5.196   3.224  19.621  0.00  0.00    +0.000 OA
ATOM     21  H   UNL     1       5.682   3.944  20.054  0.00  0.00    +0.000 HD
ENDBRANCH  17  20
ENDBRANCH   1  14
BRANCH   6  22
ATOM     22  C   UNL     1      -0.093  12.134  18.797  0.00  0.00    +0.000 C 
BRANCH  22  23
ATOM     23  C   UNL     1      -1.580  12.235  19.067  0.00  0.00    +0.000 A 
ATOM     24  C   UNL     1      -2.507  11.661  18.183  0.00  0.00    +0.000 A 
ATOM     25  C   UNL     1      -3.878  11.727  18.446  0.00  0.00    +0.000 A 
ATOM     26  C   UNL     1      -4.339  12.368  19.594  0.00  0.00    +0.000 A 
ATOM     27  C   UNL     1      -3.427  12.939  20.478  0.00  0.00    +0.000 A 
ATOM     28 BR   UNL     1      -4.050  13.804  22.039  0.00  0.00    +0.000 Br
ATOM     29  C   UNL     1      -2.056  12.872  20.224  0.00  0.00    +0.000 A 
ENDBRANCH  22  23
ENDBRANCH   6  22
TORSDOF 5
ENDMDL
MODEL 6
REMARK VINA RESULT:      -7.3      5.681      7.314
REMARK  Name = 
REMARK  5 active torsions:
REMARK  status: ('A' for Active; 'I' for Inactive)
REMARK    1  A    between atoms: O_1  and  C_2
REMARK    2  A    between atoms: C_3  and  N_4
REMARK    3  A    between atoms: N_9  and  C_10
REMARK    4  A    between atoms: C_10  and  C_11
REMARK    5  A    between atoms: C_25  and  O_26
REMARK                            x       y       z     vdW  Elec       q    Type
REMARK                         _______ _______ _______ _____ _____    ______ ____
ROOT
ATOM      1  N   UNL     1       3.926   6.242  17.638  0.00  0.00    +0.000 N 
ATOM      2  C   UNL     1       3.765   7.548  17.252  0.00  0.00    +0.000 A 
ATOM      3  N   UNL     1       2.944   8.200  18.050  0.00  0.00    +0.000 NA
ATOM      4  C   UNL     1       2.579   7.285  19.016  0.00  0.00    +0.000 A 
ATOM      5  C   UNL     1       1.737   7.376  20.147  0.00  0.00    +0.000 A 
ATOM      6  N   UNL     1       1.033   8.539  20.448  0.00  0.00    +0.000 N 
ATOM      7  N   UNL     1       1.596   6.268  20.919  0.00  0.00    +0.000 NA
ATOM      8  C   UNL     1       2.250   5.151  20.556  0.00  0.00    +0.000 A 
ATOM      9 CL   UNL     1       2.013   3.792  21.571  0.00  0.00    +0.000 Cl
ATOM     10  N   UNL     1       3.053   4.937  19.495  0.00  0.00    +0.000 NA
ATOM     11  C   UNL     1       3.185   6.060  18.775  0.00  0.00    +0.000 A 
ATOM     12  H   UNL     1       1.301   9.322  19.858  0.00  0.00    +0.000 HD
ENDROOT
BRANCH   1  14
ATOM     13  C   UNL     1       5.976   4.815  17.685  0.00  0.00    +0.000 C 
ATOM     14  C   UNL     1       4.702   5.237  16.924  0.00  0.00    +0.000 C 
ATOM     15  S   UNL     1       5.213   5.774  15.259  0.00  0.00    +0.000 S 
ATOM     16  C   UNL     1       6.994   5.608  15.586  0.00  0.00    +0.000 C 
ATOM     17  C   UNL     1       7.082   4.524  16.652  0.00  0.00    +0.000 C 
BRANCH  13  18
ATOM     18  O   UNL     1       5.721   3.653  18.484  0.00  0.00    +0.000 OA
ATOM     19  H   UNL     1       5.178   3.919  19.247  0.00  0.00    +0.000 HD
ENDBRANCH  13  18
BRANCH  17  20
ATOM     20  O   UNL     1       6.974   3.230  16.050  0.00  0.00    +0.000 OA
ATOM     21  H   UNL     1       6.035   2.997  15.967  0.00  0.00    +0.000 HD
ENDBRANCH  17  20
ENDBRANCH   1  14
BRANCH   6  22
ATOM     22  C   UNL     1       0.810   8.846  21.850  0.00  0.00    +0.000 C 
BRANCH  22  23
ATOM     23  C   UNL     1      -0.090  10.056  21.993  0.00  0.00    +0.000 A 
ATOM     24  C   UNL     1      -0.864  10.239  23.149  0.00  0.00    +0.000 A 
ATOM     25  C   UNL     1      -1.672  11.371  23.295  0.00  0.00    +0.000 A 
ATOM     26  C   UNL     1      -1.717  12.332  22.287  0.00  0.00    +0.000 A 
ATOM     27  C   UNL     1      -0.951  12.160  21.136  0.00  0.00    +0.000 A 
ATOM     28 BR   UNL     1      -1.006  13.465  19.770  0.00  0.00    +0.000 Br
ATOM     29  C   UNL     1      -0.138  11.034  20.986  0.00  0.00    +0.000 A 
ENDBRANCH  22  23
ENDBRANCH   6  22
TORSDOF 5
ENDMDL
MODEL 7
REMARK VINA RESULT:      -7.2      7.041      9.711
REMARK  Name = 
REMARK  5 active torsions:
REMARK  status: ('A' for Active; 'I' for Inactive)
REMARK    1  A    between atoms: O_1  and  C_2
REMARK    2  A    between atoms: C_3  and  N_4
REMARK    3  A    between atoms: N_9  and  C_10
REMARK    4  A    between atoms: C_10  and  C_11
REMARK    5  A    between atoms: C_25  and  O_26
REMARK                            x       y       z     vdW  Elec       q    Type
REMARK                         _______ _______ _______ _____ _____    ______ ____
ROOT
ATOM      1  N   UNL     1       0.610  11.263  19.407  0.00  0.00    +0.000 N 
ATOM      2  C   UNL     1       1.180  10.730  18.279  0.00  0.00    +0.000 A 
ATOM      3  N   UNL     1       1.641   9.514  18.488  0.00  0.00    +0.000 NA
ATOM      4  C   UNL     1       1.330   9.232  19.802  0.00  0.00    +0.000 A 
ATOM      5  C   UNL     1       1.547   8.093  20.611  0.00  0.00    +0.000 A 
ATOM      6  N   UNL     1       2.237   6.979  20.141  0.00  0.00    +0.000 N 
ATOM      7  N   UNL     1       1.096   8.134  21.891  0.00  0.00    +0.000 NA
ATOM      8  C   UNL     1       0.487   9.254  22.317  0.00  0.00    +0.000 A 
ATOM      9 CL   UNL     1      -0.042   9.236  23.946  0.00  0.00    +0.000 Cl
ATOM     10  N   UNL     1       0.248  10.402  21.653  0.00  0.00    +0.000 NA
ATOM     11  C   UNL     1       0.685  10.310  20.389  0.00  0.00    +0.000 A 
ATOM     12  H   UNL     1       2.430   7.030  19.145  0.00  0.00    +0.000 HD
ENDROOT
BRANCH   1  14
ATOM     13  C   UNL     1       0.139  13.402  18.206  0.00  0.00    +0.000 C 
ATOM     14  C   UNL     1       0.081  12.614  19.531  0.00  0.00    +0.000 C 
ATOM     15  S   UNL     1       0.938  13.607  20.795  0.00  0.00    +0.000 S 
ATOM     16  C   UNL     1       1.477  14.898  19.634  0.00  0.00    +0.000 C 
ATOM     17  C   UNL     1       0.423  14.880  18.534  0.00  0.00    +0.000 C 
BRANCH  13  18
ATOM     18  O   UNL     1      -1.099  13.278  17.494  0.00  0.00    +0.000 OA
ATOM     19  H   UNL     1      -1.825  13.257  18.143  0.00  0.00    +0.000 HD
ENDBRANCH  13  18
BRANCH  17  20
ATOM     20  O   UNL     1      -0.738  15.605  18.952  0.00  0.00    +0.000 OA
ATOM     21  H   UNL     1      -0.481  16.249  19.632  0.00  0.00    +0.000 HD
ENDBRANCH  17  20
ENDBRANCH   1  14
BRANCH   6  22
ATOM     22  C   UNL     1       1.834   5.677  20.646  0.00  0.00    +0.000 C 
BRANCH  22  23
ATOM     23  C   UNL     1       2.072   4.605  19.602  0.00  0.00    +0.000 A 
ATOM     24  C   UNL     1       1.230   3.485  19.522  0.00  0.00    +0.000 A 
ATOM     25  C   UNL     1       1.431   2.511  18.540  0.00  0.00    +0.000 A 
ATOM     26  C   UNL     1       2.475   2.644  17.627  0.00  0.00    +0.000 A 
ATOM     27  C   UNL     1       3.314   3.753  17.697  0.00  0.00    +0.000 A 
ATOM     28 BR   UNL     1       4.728   3.937  16.455  0.00  0.00    +0.000 Br
ATOM     29  C   UNL     1       3.117   4.732  18.672  0.00  0.00    +0.000 A 
ENDBRANCH  22  23
ENDBRANCH   6  22
TORSDOF 5
ENDMDL
MODEL 8
REMARK VINA RESULT:      -7.2      5.636      7.367
REMARK  Name = 
REMARK  5 active torsions:
REMARK  status: ('A' for Active; 'I' for Inactive)
REMARK    1  A    between atoms: O_1  and  C_2
REMARK    2  A    between atoms: C_3  and  N_4
REMARK    3  A    between atoms: N_9  and  C_10
REMARK    4  A    between atoms: C_10  and  C_11
REMARK    5  A    between atoms: C_25  and  O_26
REMARK                            x       y       z     vdW  Elec       q    Type
REMARK                         _______ _______ _______ _____ _____    ______ ____
ROOT
ATOM      1  N   UNL     1       4.277   6.202  18.097  0.00  0.00    +0.000 N 
ATOM      2  C   UNL     1       3.954   7.448  17.624  0.00  0.00    +0.000 A 
ATOM      3  N   UNL     1       2.931   7.969  18.269  0.00  0.00    +0.000 NA
ATOM      4  C   UNL     1       2.592   7.033  19.223  0.00  0.00    +0.000 A 
ATOM      5  C   UNL     1       1.594   7.008  20.224  0.00  0.00    +0.000 A 
ATOM      6  N   UNL     1       0.669   8.039  20.365  0.00  0.00    +0.000 N 
ATOM      7  N   UNL     1       1.534   5.915  21.028  0.00  0.00    +0.000 NA
ATOM      8  C   UNL     1       2.412   4.920  20.816  0.00  0.00    +0.000 A 
ATOM      9 CL   UNL     1       2.265   3.570  21.860  0.00  0.00    +0.000 Cl
ATOM     10  N   UNL     1       3.382   4.819  19.886  0.00  0.00    +0.000 NA
ATOM     11  C   UNL     1       3.423   5.927  19.132  0.00  0.00    +0.000 A 
ATOM     12  H   UNL     1       0.882   8.839  19.776  0.00  0.00    +0.000 HD
ENDROOT
BRANCH   1  14
ATOM     13  C   UNL     1       6.379   6.097  16.751  0.00  0.00    +0.000 C 
ATOM     14  C   UNL     1       5.305   5.328  17.549  0.00  0.00    +0.000 C 
ATOM     15  S   UNL     1       4.637   4.032  16.456  0.00  0.00    +0.000 S 
ATOM     16  C   UNL     1       5.586   4.559  14.998  0.00  0.00    +0.000 C 
ATOM     17  C   UNL     1       6.836   5.211  15.576  0.00  0.00    +0.000 C 
BRANCH  13  18
ATOM     18  O   UNL     1       7.493   6.421  17.593  0.00  0.00    +0.000 OA
ATOM     19  H   UNL     1       8.307   6.108  17.160  0.00  0.00    +0.000 HD
ENDBRANCH  13  18
BRANCH  17  20
ATOM     20  O   UNL     1       7.785   4.208  15.952  0.00  0.00    +0.000 OA
ATOM     21  H   UNL     1       8.666   4.613  16.010  0.00  0.00    +0.000 HD
ENDBRANCH  17  20
ENDBRANCH   1  14
BRANCH   6  22
ATOM     22  C   UNL     1       0.200   8.343  21.707  0.00  0.00    +0.000 C 
BRANCH  22  23
ATOM     23  C   UNL     1      -0.369   9.746  21.766  0.00  0.00    +0.000 A 
ATOM     24  C   UNL     1      -0.797  10.292  22.986  0.00  0.00    +0.000 A 
ATOM     25  C   UNL     1      -1.294  11.598  23.047  0.00  0.00    +0.000 A 
ATOM     26  C   UNL     1      -1.370  12.371  21.890  0.00  0.00    +0.000 A 
ATOM     27  C   UNL     1      -0.945  11.838  20.676  0.00  0.00    +0.000 A 
ATOM     28 BR   UNL     1      -1.042  12.888  19.107  0.00  0.00    +0.000 Br
ATOM     29  C   UNL     1      -0.443  10.537  20.608  0.00  0.00    +0.000 A 
ENDBRANCH  22  23
ENDBRANCH   6  22
TORSDOF 5
ENDMDL
MODEL 9
REMARK VINA RESULT:      -7.2      7.105      9.574
REMARK  Name = 
REMARK  5 active torsions:
REMARK  status: ('A' for Active; 'I' for Inactive)
REMARK    1  A    between atoms: O_1  and  C_2
REMARK    2  A    between atoms: C_3  and  N_4
REMARK    3  A    between atoms: N_9  and  C_10
REMARK    4  A    between atoms: C_10  and  C_11
REMARK    5  A    between atoms: C_25  and  O_26
REMARK                            x       y       z     vdW  Elec       q    Type
REMARK                         _______ _______ _______ _____ _____    ______ ____
ROOT
ATOM      1  N   UNL     1       0.772  10.954  18.715  0.00  0.00    +0.000 N 
ATOM      2  C   UNL     1       1.574  10.342  17.787  0.00  0.00    +0.000 A 
ATOM      3  N   UNL     1       2.028   9.182  18.216  0.00  0.00    +0.000 NA
ATOM      4  C   UNL     1       1.471   9.019  19.468  0.00  0.00    +0.000 A 
ATOM      5  C   UNL     1       1.563   7.984  20.425  0.00  0.00    +0.000 A 
ATOM      6  N   UNL     1       2.372   6.869  20.227  0.00  0.00    +0.000 N 
ATOM      7  N   UNL     1       0.865   8.130  21.581  0.00  0.00    +0.000 NA
ATOM      8  C   UNL     1       0.142   9.250  21.751  0.00  0.00    +0.000 A 
ATOM      9 CL   UNL     1      -0.699   9.369  23.238  0.00  0.00    +0.000 Cl
ATOM     10  N   UNL     1      -0.000  10.309  20.930  0.00  0.00    +0.000 NA
ATOM     11  C   UNL     1       0.684  10.113  19.793  0.00  0.00    +0.000 A 
ATOM     12  H   UNL     1       2.759   6.828  19.288  0.00  0.00    +0.000 HD
ENDROOT
BRANCH   1  14
ATOM     13  C   UNL     1       0.657  13.257  19.677  0.00  0.00    +0.000 C 
ATOM     14  C   UNL     1       0.181  12.279  18.582  0.00  0.00    +0.000 C 
ATOM     15  S   UNL     1      -1.641  12.259  18.622  0.00  0.00    +0.000 S 
ATOM     16  C   UNL     1      -1.773  13.339  20.078  0.00  0.00    +0.000 C 
ATOM     17  C   UNL     1      -0.514  14.196  20.028  0.00  0.00    +0.000 C 
BRANCH  13  18
ATOM     18  O   UNL     1       1.782  14.015  19.216  0.00  0.00    +0.000 OA
ATOM     19  H   UNL     1       2.595  13.565  19.507  0.00  0.00    +0.000 HD
ENDBRANCH  13  18
BRANCH  17  20
ATOM     20  O   UNL     1      -0.685  15.269  19.097  0.00  0.00    +0.000 OA
ATOM     21  H   UNL     1      -0.024  15.956  19.281  0.00  0.00    +0.000 HD
ENDBRANCH  17  20
ENDBRANCH   1  14
BRANCH   6  22
ATOM     22  C   UNL     1       1.924   5.604  20.785  0.00  0.00    +0.000 C 
BRANCH  22  23
ATOM     23  C   UNL     1       2.076   4.490  19.770  0.00  0.00    +0.000 A 
ATOM     24  C   UNL     1       1.191   3.401  19.765  0.00  0.00    +0.000 A 
ATOM     25  C   UNL     1       1.312   2.388  18.809  0.00  0.00    +0.000 A 
ATOM     26  C   UNL     1       2.320   2.450  17.849  0.00  0.00    +0.000 A 
ATOM     27  C   UNL     1       3.202   3.528  17.845  0.00  0.00    +0.000 A 
ATOM     28 BR   UNL     1       4.567   3.617  16.539  0.00  0.00    +0.000 Br
ATOM     29  C   UNL     1       3.084   4.546  18.793  0.00  0.00    +0.000 A 
ENDBRANCH  22  23
ENDBRANCH   6  22
TORSDOF 5
ENDMDL
