MODEL 1
REMARK VINA RESULT:      -8.5      0.000      0.000
REMARK  Name = 
REMARK  5 active torsions:
REMARK  status: ('A' for Active; 'I' for Inactive)
REMARK    1  A    between atoms: C_1  and  C_2
REMARK    2  A    between atoms: C_5  and  C_7
REMARK    3  A    between atoms: C_9  and  C_10
REMARK    4  A    between atoms: C_10  and  C_11
REMARK    5  A    between atoms: C_30  and  C_31
REMARK                            x       y       z     vdW  Elec       q    Type
REMARK                         _______ _______ _______ _____ _____    ______ ____
ROOT
ATOM      1  C   UNL     1      -1.754  11.766  18.653  0.00  0.00    +0.000 A 
ATOM      2  C   UNL     1      -3.075  12.140  18.369  0.00  0.00    +0.000 A 
ATOM      3  C   UNL     1      -3.905  11.342  17.572  0.00  0.00    +0.000 A 
ATOM      4  C   UNL     1      -3.446  10.073  17.206  0.00  0.00    +0.000 A 
ATOM      5  C   UNL     1      -2.174   9.638  17.582  0.00  0.00    +0.000 A 
ATOM      6  C   UNL     1      -1.324  10.489  18.285  0.00  0.00    +0.000 A 
ATOM      7  F   UNL     1      -0.094  10.048  18.577  0.00  0.00    +0.000 F 
ENDROOT
BRANCH   1  12
ATOM      8  C   UNL     1      -3.232  12.279  23.677  0.00  0.00    +0.000 C 
ATOM      9  C   UNL     1      -2.525  13.158  22.643  0.00  0.00    +0.000 C 
ATOM     10  C   UNL     1      -1.846  12.209  21.645  0.00  0.00    +0.000 C 
ATOM     11  N   UNL     1      -0.919  12.880  20.736  0.00  0.00    +0.000 N 
ATOM     12  C   UNL     1      -0.813  12.678  19.352  0.00  0.00    +0.000 C 
ATOM     13  O   UNL     1       0.045  13.241  18.676  0.00  0.00    +0.000 OA
ATOM     14  C   UNL     1       0.162  13.629  21.386  0.00  0.00    +0.000 C 
ATOM     15  C   UNL     1      -0.338  14.340  22.594  0.00  0.00    +0.000 A 
ATOM     16  N   UNL     1       0.281  15.281  23.276  0.00  0.00    +0.000 NA
ATOM     17  N   UNL     1      -0.569  15.721  24.257  0.00  0.00    +0.000 NA
ATOM     18  C   UNL     1      -1.701  15.049  24.168  0.00  0.00    +0.000 A 
ATOM     19  N   UNL     1      -1.566  14.109  23.173  0.00  0.00    +0.000 N 
BRANCH  18  20
ATOM     20  C   UNL     1      -2.927  15.269  24.971  0.00  0.00    +0.000 C 
ATOM     21  F   UNL     1      -4.060  15.304  24.225  0.00  0.00    +0.000 F 
ATOM     22  F   UNL     1      -3.099  14.290  25.899  0.00  0.00    +0.000 F 
ATOM     23  F   UNL     1      -2.881  16.444  25.654  0.00  0.00    +0.000 F 
ENDBRANCH  18  20
ENDBRANCH   1  12
BRANCH   3  24
ATOM     24  C   UNL     1      -5.265  11.858  17.156  0.00  0.00    +0.000 C 
BRANCH  24  25
ATOM     25  C   UNL     1      -6.188  12.294  18.299  0.00  0.00    +0.000 A 
ATOM     26  N   UNL     1      -6.333  13.577  18.502  0.00  0.00    +0.000 NA
ATOM     27  N   UNL     1      -7.005  13.979  19.617  0.00  0.00    +0.000 N 
ATOM     28  C   UNL     1      -7.456  13.167  20.633  0.00  0.00    +0.000 A 
ATOM     29  O   UNL     1      -7.916  13.608  21.677  0.00  0.00    +0.000 OA
ATOM     30  C   UNL     1      -7.380  11.720  20.378  0.00  0.00    +0.000 A 
ATOM     31  C   UNL     1      -7.913  10.810  21.305  0.00  0.00    +0.000 A 
ATOM     32  C   UNL     1      -7.899   9.447  21.018  0.00  0.00    +0.000 A 
ATOM     33  C   UNL     1      -7.356   8.996  19.820  0.00  0.00    +0.000 A 
ATOM     34  C   UNL     1      -6.792   9.904  18.918  0.00  0.00    +0.000 A 
ATOM     35  C   UNL     1      -6.796  11.275  19.193  0.00  0.00    +0.000 A 
ATOM     36  H   UNL     1      -7.031  14.980  19.802  0.00  0.00    +0.000 HD
ENDBRANCH  24  25
ENDBRANCH   3  24
TORSDOF 4
ENDMDL
MODEL 2
REMARK VINA RESULT:      -8.4      6.163      9.402
REMARK  Name = 
REMARK  5 active torsions:
REMARK  status: ('A' for Active; 'I' for Inactive)
REMARK    1  A    between atoms: C_1  and  C_2
REMARK    2  A    between atoms: C_5  and  C_7
REMARK    3  A    between atoms: C_9  and  C_10
REMARK    4  A    between atoms: C_10  and  C_11
REMARK    5  A    between atoms: C_30  and  C_31
REMARK                            x       y       z     vdW  Elec       q    Type
REMARK                         _______ _______ _______ _____ _____    ______ ____
ROOT
ATOM      1  C   UNL     1       0.453  10.029  19.365  0.00  0.00    +0.000 A 
ATOM      2  C   UNL     1       1.082   9.300  18.346  0.00  0.00    +0.000 A 
ATOM      3  C   UNL     1       1.944   8.235  18.635  0.00  0.00    +0.000 A 
ATOM      4  C   UNL     1       2.030   7.796  19.960  0.00  0.00    +0.000 A 
ATOM      5  C   UNL     1       1.315   8.440  20.972  0.00  0.00    +0.000 A 
ATOM      6  C   UNL     1       0.547   9.564  20.678  0.00  0.00    +0.000 A 
ATOM      7  F   UNL     1      -0.077  10.180  21.691  0.00  0.00    +0.000 F 
ENDROOT
BRANCH   1  12
ATOM      8  C   UNL     1       3.749  14.105  18.899  0.00  0.00    +0.000 C 
ATOM      9  C   UNL     1       2.306  13.905  19.369  0.00  0.00    +0.000 C 
ATOM     10  C   UNL     1       1.777  12.656  18.651  0.00  0.00    +0.000 C 
ATOM     11  N   UNL     1       0.334  12.466  18.793  0.00  0.00    +0.000 N 
ATOM     12  C   UNL     1      -0.326  11.262  19.083  0.00  0.00    +0.000 C 
ATOM     13  O   UNL     1      -1.551  11.184  19.117  0.00  0.00    +0.000 OA
ATOM     14  C   UNL     1      -0.493  13.584  18.327  0.00  0.00    +0.000 C 
ATOM     15  C   UNL     1       0.124  14.888  18.696  0.00  0.00    +0.000 A 
ATOM     16  N   UNL     1      -0.442  16.076  18.653  0.00  0.00    +0.000 NA
ATOM     17  N   UNL     1       0.447  16.987  19.159  0.00  0.00    +0.000 NA
ATOM     18  C   UNL     1       1.549  16.352  19.509  0.00  0.00    +0.000 A 
ATOM     19  N   UNL     1       1.413  15.029  19.160  0.00  0.00    +0.000 N 
BRANCH  18  20
ATOM     20  C   UNL     1       2.731  16.936  20.187  0.00  0.00    +0.000 C 
ATOM     21  F   UNL     1       3.824  17.021  19.387  0.00  0.00    +0.000 F 
ATOM     22  F   UNL     1       2.477  18.195  20.638  0.00  0.00    +0.000 F 
ATOM     23  F   UNL     1       3.105  16.206  21.272  0.00  0.00    +0.000 F 
ENDBRANCH  18  20
ENDBRANCH   1  12
BRANCH   3  24
ATOM     24  C   UNL     1       2.728   7.581  17.518  0.00  0.00    +0.000 C 
BRANCH  24  25
ATOM     25  C   UNL     1       3.418   6.260  17.876  0.00  0.00    +0.000 A 
ATOM     26  N   UNL     1       2.658   5.263  18.245  0.00  0.00    +0.000 NA
ATOM     27  N   UNL     1       3.261   4.143  18.733  0.00  0.00    +0.000 N 
ATOM     28  C   UNL     1       4.604   3.989  18.993  0.00  0.00    +0.000 A 
ATOM     29  O   UNL     1       5.057   3.012  19.574  0.00  0.00    +0.000 OA
ATOM     30  C   UNL     1       5.479   5.064  18.502  0.00  0.00    +0.000 A 
ATOM     31  C   UNL     1       6.873   4.951  18.621  0.00  0.00    +0.000 A 
ATOM     32  C   UNL     1       7.693   5.942  18.087  0.00  0.00    +0.000 A 
ATOM     33  C   UNL     1       7.128   7.037  17.444  0.00  0.00    +0.000 A 
ATOM     34  C   UNL     1       5.738   7.164  17.364  0.00  0.00    +0.000 A 
ATOM     35  C   UNL     1       4.902   6.179  17.896  0.00  0.00    +0.000 A 
ATOM     36  H   UNL     1       2.650   3.414  19.097  0.00  0.00    +0.000 HD
ENDBRANCH  24  25
ENDBRANCH   3  24
TORSDOF 4
ENDMDL
MODEL 3
REMARK VINA RESULT:      -8.4      5.943      9.066
REMARK  Name = 
REMARK  5 active torsions:
REMARK  status: ('A' for Active; 'I' for Inactive)
REMARK    1  A    between atoms: C_1  and  C_2
REMARK    2  A    between atoms: C_5  and  C_7
REMARK    3  A    between atoms: C_9  and  C_10
REMARK    4  A    between atoms: C_10  and  C_11
REMARK    5  A    between atoms: C_30  and  C_31
REMARK                            x       y       z     vdW  Elec       q    Type
REMARK                         _______ _______ _______ _____ _____    ______ ____
ROOT
ATOM      1  C   UNL     1       0.447  10.151  19.466  0.00  0.00    +0.000 A 
ATOM      2  C   UNL     1       1.028   9.473  18.384  0.00  0.00    +0.000 A 
ATOM      3  C   UNL     1       1.889   8.386  18.581  0.00  0.00    +0.000 A 
ATOM      4  C   UNL     1       2.020   7.875  19.877  0.00  0.00    +0.000 A 
ATOM      5  C   UNL     1       1.352   8.469  20.949  0.00  0.00    +0.000 A 
ATOM      6  C   UNL     1       0.585   9.614  20.747  0.00  0.00    +0.000 A 
ATOM      7  F   UNL     1       0.007  10.179  21.814  0.00  0.00    +0.000 F 
ENDROOT
BRANCH   1  12
ATOM      8  C   UNL     1       3.758  14.120  18.479  0.00  0.00    +0.000 C 
ATOM      9  C   UNL     1       2.393  13.968  19.153  0.00  0.00    +0.000 C 
ATOM     10  C   UNL     1       1.730  12.730  18.535  0.00  0.00    +0.000 C 
ATOM     11  N   UNL     1       0.317  12.585  18.883  0.00  0.00    +0.000 N 
ATOM     12  C   UNL     1      -0.328  11.404  19.281  0.00  0.00    +0.000 C 
ATOM     13  O   UNL     1      -1.538  11.364  19.491  0.00  0.00    +0.000 OA
ATOM     14  C   UNL     1      -0.535  13.723  18.525  0.00  0.00    +0.000 C 
ATOM     15  C   UNL     1       0.166  15.011  18.785  0.00  0.00    +0.000 A 
ATOM     16  N   UNL     1      -0.367  16.215  18.807  0.00  0.00    +0.000 NA
ATOM     17  N   UNL     1       0.612  17.104  19.169  0.00  0.00    +0.000 NA
ATOM     18  C   UNL     1       1.734  16.438  19.367  0.00  0.00    +0.000 A 
ATOM     19  N   UNL     1       1.511  15.117  19.058  0.00  0.00    +0.000 N 
BRANCH  18  20
ATOM     20  C   UNL     1       3.018  16.993  19.861  0.00  0.00    +0.000 C 
ATOM     21  F   UNL     1       3.564  16.268  20.869  0.00  0.00    +0.000 F 
ATOM     22  F   UNL     1       3.949  17.053  18.871  0.00  0.00    +0.000 F 
ATOM     23  F   UNL     1       2.873  18.260  20.332  0.00  0.00    +0.000 F 
ENDBRANCH  18  20
ENDBRANCH   1  12
BRANCH   3  24
ATOM     24  C   UNL     1       2.622   7.787  17.401  0.00  0.00    +0.000 C 
BRANCH  24  25
ATOM     25  C   UNL     1       3.677   6.729  17.742  0.00  0.00    +0.000 A 
ATOM     26  N   UNL     1       4.917   7.128  17.857  0.00  0.00    +0.000 NA
ATOM     27  N   UNL     1       5.887   6.180  17.985  0.00  0.00    +0.000 N 
ATOM     28  C   UNL     1       5.712   4.818  17.888  0.00  0.00    +0.000 A 
ATOM     29  O   UNL     1       6.649   4.031  17.861  0.00  0.00    +0.000 OA
ATOM     30  C   UNL     1       4.317   4.352  17.849  0.00  0.00    +0.000 A 
ATOM     31  C   UNL     1       4.030   2.978  17.859  0.00  0.00    +0.000 A 
ATOM     32  C   UNL     1       2.705   2.551  17.894  0.00  0.00    +0.000 A 
ATOM     33  C   UNL     1       1.676   3.486  17.916  0.00  0.00    +0.000 A 
ATOM     34  C   UNL     1       1.967   4.853  17.866  0.00  0.00    +0.000 A 
ATOM     35  C   UNL     1       3.292   5.297  17.828  0.00  0.00    +0.000 A 
ATOM     36  H   UNL     1       6.851   6.506  17.984  0.00  0.00    +0.000 HD
ENDBRANCH  24  25
ENDBRANCH   3  24
TORSDOF 4
ENDMDL
MODEL 4
REMARK VINA RESULT:      -8.0      5.791      8.626
REMARK  Name = 
REMARK  5 active torsions:
REMARK  status: ('A' for Active; 'I' for Inactive)
REMARK    1  A    between atoms: C_1  and  C_2
REMARK    2  A    between atoms: C_5  and  C_7
REMARK    3  A    between atoms: C_9  and  C_10
REMARK    4  A    between atoms: C_10  and  C_11
REMARK    5  A    between atoms: C_30  and  C_31
REMARK                            x       y       z     vdW  Elec       q    Type
REMARK                         _______ _______ _______ _____ _____    ______ ____
ROOT
ATOM      1  C   UNL     1       0.608   9.769  19.334  0.00  0.00    +0.000 A 
ATOM      2  C   UNL     1       1.336   8.885  18.525  0.00  0.00    +0.000 A 
ATOM      3  C   UNL     1       2.071   7.827  19.076  0.00  0.00    +0.000 A 
ATOM      4  C   UNL     1       1.923   7.562  20.441  0.00  0.00    +0.000 A 
ATOM      5  C   UNL     1       1.106   8.365  21.240  0.00  0.00    +0.000 A 
ATOM      6  C   UNL     1       0.468   9.476  20.692  0.00  0.00    +0.000 A 
ATOM      7  F   UNL     1      -0.262  10.247  21.508  0.00  0.00    +0.000 F 
ENDROOT
BRANCH   1  12
ATOM      8  C   UNL     1       3.276  14.016  20.927  0.00  0.00    +0.000 C 
ATOM      9  C   UNL     1       1.821  13.700  20.573  0.00  0.00    +0.000 C 
ATOM     10  C   UNL     1       1.851  12.517  19.595  0.00  0.00    +0.000 C 
ATOM     11  N   UNL     1       0.562  12.247  18.961  0.00  0.00    +0.000 N 
ATOM     12  C   UNL     1      -0.034  10.989  18.782  0.00  0.00    +0.000 C 
ATOM     13  O   UNL     1      -1.094  10.853  18.176  0.00  0.00    +0.000 OA
ATOM     14  C   UNL     1      -0.018  13.372  18.220  0.00  0.00    +0.000 C 
ATOM     15  C   UNL     1       0.198  14.653  18.948  0.00  0.00    +0.000 A 
ATOM     16  N   UNL     1      -0.380  15.811  18.706  0.00  0.00    +0.000 NA
ATOM     17  N   UNL     1       0.038  16.699  19.663  0.00  0.00    +0.000 NA
ATOM     18  C   UNL     1       0.866  16.079  20.482  0.00  0.00    +0.000 A 
ATOM     19  N   UNL     1       1.053  14.799  20.016  0.00  0.00    +0.000 N 
BRANCH  18  20
ATOM     20  C   UNL     1       1.479  16.637  21.711  0.00  0.00    +0.000 C 
ATOM     21  F   UNL     1       0.948  17.828  22.084  0.00  0.00    +0.000 F 
ATOM     22  F   UNL     1       1.332  15.794  22.769  0.00  0.00    +0.000 F 
ATOM     23  F   UNL     1       2.815  16.841  21.563  0.00  0.00    +0.000 F 
ENDBRANCH  18  20
ENDBRANCH   1  12
BRANCH   3  24
ATOM     24  C   UNL     1       2.971   6.998  18.187  0.00  0.00    +0.000 C 
BRANCH  24  25
ATOM     25  C   UNL     1       3.501   5.700  18.805  0.00  0.00    +0.000 A 
ATOM     26  N   UNL     1       4.737   5.695  19.231  0.00  0.00    +0.000 NA
ATOM     27  N   UNL     1       5.277   4.506  19.620  0.00  0.00    +0.000 N 
ATOM     28  C   UNL     1       4.689   3.267  19.502  0.00  0.00    +0.000 A 
ATOM     29  O   UNL     1       5.289   2.225  19.730  0.00  0.00    +0.000 OA
ATOM     30  C   UNL     1       3.272   3.265  19.109  0.00  0.00    +0.000 A 
ATOM     31  C   UNL     1       2.551   2.061  19.064  0.00  0.00    +0.000 A 
ATOM     32  C   UNL     1       1.192   2.082  18.761  0.00  0.00    +0.000 A 
ATOM     33  C   UNL     1       0.558   3.292  18.502  0.00  0.00    +0.000 A 
ATOM     34  C   UNL     1       1.289   4.484  18.509  0.00  0.00    +0.000 A 
ATOM     35  C   UNL     1       2.654   4.479  18.809  0.00  0.00    +0.000 A 
ATOM     36  H   UNL     1       6.265   4.508  19.865  0.00  0.00    +0.000 HD
ENDBRANCH  24  25
ENDBRANCH   3  24
TORSDOF 4
ENDMDL
MODEL 5
REMARK VINA RESULT:      -8.0      6.192      9.369
REMARK  Name = 
REMARK  5 active torsions:
REMARK  status: ('A' for Active; 'I' for Inactive)
REMARK    1  A    between atoms: C_1  and  C_2
REMARK    2  A    between atoms: C_5  and  C_7
REMARK    3  A    between atoms: C_9  and  C_10
REMARK    4  A    between atoms: C_10  and  C_11
REMARK    5  A    between atoms: C_30  and  C_31
REMARK                            x       y       z     vdW  Elec       q    Type
REMARK                         _______ _______ _______ _____ _____    ______ ____
ROOT
ATOM      1  C   UNL     1       0.493   9.857  19.522  0.00  0.00    +0.000 A 
ATOM      2  C   UNL     1       1.301   9.254  18.547  0.00  0.00    +0.000 A 
ATOM      3  C   UNL     1       2.165   8.198  18.865  0.00  0.00    +0.000 A 
ATOM      4  C   UNL     1       2.077   7.637  20.143  0.00  0.00    +0.000 A 
ATOM      5  C   UNL     1       1.190   8.152  21.090  0.00  0.00    +0.000 A 
ATOM      6  C   UNL     1       0.416   9.270  20.786  0.00  0.00    +0.000 A 
ATOM      7  F   UNL     1      -0.381   9.762  21.744  0.00  0.00    +0.000 F 
ENDROOT
BRANCH   1  12
ATOM      8  C   UNL     1       3.768  13.870  18.594  0.00  0.00    +0.000 C 
ATOM      9  C   UNL     1       2.365  13.709  19.184  0.00  0.00    +0.000 C 
ATOM     10  C   UNL     1       1.773  12.431  18.574  0.00  0.00    +0.000 C 
ATOM     11  N   UNL     1       0.345  12.263  18.836  0.00  0.00    +0.000 N 
ATOM     12  C   UNL     1      -0.298  11.082  19.237  0.00  0.00    +0.000 C 
ATOM     13  O   UNL     1      -1.517  11.018  19.370  0.00  0.00    +0.000 OA
ATOM     14  C   UNL     1      -0.508  13.364  18.379  0.00  0.00    +0.000 C 
ATOM     15  C   UNL     1       0.143  14.679  18.632  0.00  0.00    +0.000 A 
ATOM     16  N   UNL     1      -0.417  15.869  18.571  0.00  0.00    +0.000 NA
ATOM     17  N   UNL     1       0.514  16.795  18.960  0.00  0.00    +0.000 NA
ATOM     18  C   UNL     1       1.637  16.167  19.256  0.00  0.00    +0.000 A 
ATOM     19  N   UNL     1       1.465  14.830  18.986  0.00  0.00    +0.000 N 
BRANCH  18  20
ATOM     20  C   UNL     1       2.871  16.773  19.810  0.00  0.00    +0.000 C 
ATOM     21  F   UNL     1       3.373  16.097  20.873  0.00  0.00    +0.000 F 
ATOM     22  F   UNL     1       3.861  16.829  18.878  0.00  0.00    +0.000 F 
ATOM     23  F   UNL     1       2.664  18.050  20.229  0.00  0.00    +0.000 F 
ENDBRANCH  18  20
ENDBRANCH   1  12
BRANCH   3  24
ATOM     24  C   UNL     1       3.137   7.686  17.825  0.00  0.00    +0.000 C 
BRANCH  24  25
ATOM     25  C   UNL     1       3.153   6.166  17.624  0.00  0.00    +0.000 A 
ATOM     26  N   UNL     1       2.209   5.471  18.201  0.00  0.00    +0.000 NA
ATOM     27  N   UNL     1       2.308   4.112  18.180  0.00  0.00    +0.000 N 
ATOM     28  C   UNL     1       3.374   3.381  17.709  0.00  0.00    +0.000 A 
ATOM     29  O   UNL     1       3.464   2.170  17.859  0.00  0.00    +0.000 OA
ATOM     30  C   UNL     1       4.400   4.141  16.979  0.00  0.00    +0.000 A 
ATOM     31  C   UNL     1       5.473   3.474  16.367  0.00  0.00    +0.000 A 
ATOM     32  C   UNL     1       6.398   4.199  15.619  0.00  0.00    +0.000 A 
ATOM     33  C   UNL     1       6.256   5.575  15.485  0.00  0.00    +0.000 A 
ATOM     34  C   UNL     1       5.208   6.239  16.130  0.00  0.00    +0.000 A 
ATOM     35  C   UNL     1       4.273   5.527  16.886  0.00  0.00    +0.000 A 
ATOM     36  H   UNL     1       1.610   3.593  18.709  0.00  0.00    +0.000 HD
ENDBRANCH  24  25
ENDBRANCH   3  24
TORSDOF 4
ENDMDL
MODEL 6
REMARK VINA RESULT:      -7.9      5.682      8.746
REMARK  Name = 
REMARK  5 active torsions:
REMARK  status: ('A' for Active; 'I' for Inactive)
REMARK    1  A    between atoms: C_1  and  C_2
REMARK    2  A    between atoms: C_5  and  C_7
REMARK    3  A    between atoms: C_9  and  C_10
REMARK    4  A    between atoms: C_10  and  C_11
REMARK    5  A    between atoms: C_30  and  C_31
REMARK                            x       y       z     vdW  Elec       q    Type
REMARK                         _______ _______ _______ _____ _____    ______ ____
ROOT
ATOM      1  C   UNL     1       0.459  10.242  19.210  0.00  0.00    +0.000 A 
ATOM      2  C   UNL     1       1.058   9.506  18.176  0.00  0.00    +0.000 A 
ATOM      3  C   UNL     1       1.878   8.403  18.445  0.00  0.00    +0.000 A 
ATOM      4  C   UNL     1       1.946   7.938  19.763  0.00  0.00    +0.000 A 
ATOM      5  C   UNL     1       1.257   8.591  20.787  0.00  0.00    +0.000 A 
ATOM      6  C   UNL     1       0.534   9.750  20.514  0.00  0.00    +0.000 A 
ATOM      7  F   UNL     1      -0.065  10.372  21.537  0.00  0.00    +0.000 F 
ENDROOT
BRANCH   1  12
ATOM      8  C   UNL     1       3.574  14.317  20.383  0.00  0.00    +0.000 C 
ATOM      9  C   UNL     1       2.069  14.042  20.401  0.00  0.00    +0.000 C 
ATOM     10  C   UNL     1       1.806  12.948  19.357  0.00  0.00    +0.000 C 
ATOM     11  N   UNL     1       0.388  12.743  19.067  0.00  0.00    +0.000 N 
ATOM     12  C   UNL     1      -0.270  11.509  18.950  0.00  0.00    +0.000 C 
ATOM     13  O   UNL     1      -1.456  11.432  18.637  0.00  0.00    +0.000 OA
ATOM     14  C   UNL     1      -0.333  13.931  18.600  0.00  0.00    +0.000 C 
ATOM     15  C   UNL     1       0.104  15.143  19.348  0.00  0.00    +0.000 A 
ATOM     16  N   UNL     1      -0.483  16.321  19.364  0.00  0.00    +0.000 NA
ATOM     17  N   UNL     1       0.197  17.120  20.245  0.00  0.00    +0.000 NA
ATOM     18  C   UNL     1       1.193  16.426  20.762  0.00  0.00    +0.000 A 
ATOM     19  N   UNL     1       1.214  15.190  20.160  0.00  0.00    +0.000 N 
BRANCH  18  20
ATOM     20  C   UNL     1       2.124  16.871  21.827  0.00  0.00    +0.000 C 
ATOM     21  F   UNL     1       3.384  17.101  21.379  0.00  0.00    +0.000 F 
ATOM     22  F   UNL     1       1.699  18.024  22.412  0.00  0.00    +0.000 F 
ATOM     23  F   UNL     1       2.231  15.951  22.822  0.00  0.00    +0.000 F 
ENDBRANCH  18  20
ENDBRANCH   1  12
BRANCH   3  24
ATOM     24  C   UNL     1       2.635   7.739  17.316  0.00  0.00    +0.000 C 
BRANCH  24  25
ATOM     25  C   UNL     1       3.687   6.708  17.739  0.00  0.00    +0.000 A 
ATOM     26  N   UNL     1       4.916   7.126  17.888  0.00  0.00    +0.000 NA
ATOM     27  N   UNL     1       5.891   6.196  18.090  0.00  0.00    +0.000 N 
ATOM     28  C   UNL     1       5.736   4.829  18.038  0.00  0.00    +0.000 A 
ATOM     29  O   UNL     1       6.682   4.054  18.077  0.00  0.00    +0.000 OA
ATOM     30  C   UNL     1       4.349   4.345  17.960  0.00  0.00    +0.000 A 
ATOM     31  C   UNL     1       4.077   2.968  18.009  0.00  0.00    +0.000 A 
ATOM     32  C   UNL     1       2.757   2.526  18.007  0.00  0.00    +0.000 A 
ATOM     33  C   UNL     1       1.717   3.448  17.953  0.00  0.00    +0.000 A 
ATOM     34  C   UNL     1       1.995   4.815  17.864  0.00  0.00    +0.000 A 
ATOM     35  C   UNL     1       3.315   5.274  17.863  0.00  0.00    +0.000 A 
ATOM     36  H   UNL     1       6.851   6.535  18.116  0.00  0.00    +0.000 HD
ENDBRANCH  24  25
ENDBRANCH   3  24
TORSDOF 4
ENDMDL
MODEL 7
REMARK VINA RESULT:      -7.8      4.454      7.298
REMARK  Name = 
REMARK  5 active torsions:
REMARK  status: ('A' for Active; 'I' for Inactive)
REMARK    1  A    between atoms: C_1  and  C_2
REMARK    2  A    between atoms: C_5  and  C_7
REMARK    3  A    between atoms: C_9  and  C_10
REMARK    4  A    between atoms: C_10  and  C_11
REMARK    5  A    between atoms: C_30  and  C_31
REMARK                            x       y       z     vdW  Elec       q    Type
REMARK                         _______ _______ _______ _____ _____    ______ ____
ROOT
ATOM      1  C   UNL     1       0.690  11.705  18.962  0.00  0.00    +0.000 A 
ATOM      2  C   UNL     1       1.730  10.792  18.736  0.00  0.00    +0.000 A 
ATOM      3  C   UNL     1       1.486   9.529  18.181  0.00  0.00    +0.000 A 
ATOM      4  C   UNL     1       0.204   9.261  17.690  0.00  0.00    +0.000 A 
ATOM      5  C   UNL     1      -0.815  10.209  17.802  0.00  0.00    +0.000 A 
ATOM      6  C   UNL     1      -0.577  11.417  18.453  0.00  0.00    +0.000 A 
ATOM      7  F   UNL     1      -1.600  12.272  18.583  0.00  0.00    +0.000 F 
ENDROOT
BRANCH   1  12
ATOM      8  C   UNL     1      -2.174  11.661  23.376  0.00  0.00    +0.000 C 
ATOM      9  C   UNL     1      -1.670  12.729  22.402  0.00  0.00    +0.000 C 
ATOM     10  C   UNL     1      -0.401  12.166  21.747  0.00  0.00    +0.000 C 
ATOM     11  N   UNL     1       0.350  13.156  20.977  0.00  0.00    +0.000 N 
ATOM     12  C   UNL     1       0.908  12.974  19.702  0.00  0.00    +0.000 C 
ATOM     13  O   UNL     1       1.582  13.845  19.157  0.00  0.00    +0.000 OA
ATOM     14  C   UNL     1       0.772  14.343  21.727  0.00  0.00    +0.000 C 
ATOM     15  C   UNL     1      -0.298  14.786  22.662  0.00  0.00    +0.000 A 
ATOM     16  N   UNL     1      -0.364  15.931  23.309  0.00  0.00    +0.000 NA
ATOM     17  N   UNL     1      -1.553  15.964  23.990  0.00  0.00    +0.000 NA
ATOM     18  C   UNL     1      -2.205  14.841  23.755  0.00  0.00    +0.000 A 
ATOM     19  N   UNL     1      -1.408  14.035  22.979  0.00  0.00    +0.000 N 
BRANCH  18  20
ATOM     20  C   UNL     1      -3.572  14.499  24.215  0.00  0.00    +0.000 C 
ATOM     21  F   UNL     1      -3.595  13.513  25.147  0.00  0.00    +0.000 F 
ATOM     22  F   UNL     1      -4.198  15.574  24.766  0.00  0.00    +0.000 F 
ATOM     23  F   UNL     1      -4.360  14.077  23.190  0.00  0.00    +0.000 F 
ENDBRANCH  18  20
ENDBRANCH   1  12
BRANCH   3  24
ATOM     24  C   UNL     1       2.606   8.515  18.105  0.00  0.00    +0.000 C 
BRANCH  24  25
ATOM     25  C   UNL     1       2.411   7.247  18.944  0.00  0.00    +0.000 A 
ATOM     26  N   UNL     1       1.727   7.356  20.052  0.00  0.00    +0.000 NA
ATOM     27  N   UNL     1       1.693   6.285  20.894  0.00  0.00    +0.000 N 
ATOM     28  C   UNL     1       2.410   5.119  20.757  0.00  0.00    +0.000 A 
ATOM     29  O   UNL     1       2.450   4.260  21.627  0.00  0.00    +0.000 OA
ATOM     30  C   UNL     1       3.112   4.946  19.476  0.00  0.00    +0.000 A 
ATOM     31  C   UNL     1       3.784   3.745  19.194  0.00  0.00    +0.000 A 
ATOM     32  C   UNL     1       4.383   3.567  17.950  0.00  0.00    +0.000 A 
ATOM     33  C   UNL     1       4.317   4.577  16.997  0.00  0.00    +0.000 A 
ATOM     34  C   UNL     1       3.681   5.786  17.297  0.00  0.00    +0.000 A 
ATOM     35  C   UNL     1       3.077   5.980  18.542  0.00  0.00    +0.000 A 
ATOM     36  H   UNL     1       1.229   6.420  21.790  0.00  0.00    +0.000 HD
ENDBRANCH  24  25
ENDBRANCH   3  24
TORSDOF 4
ENDMDL
MODEL 8
REMARK VINA RESULT:      -7.8     10.470     13.706
REMARK  Name = 
REMARK  5 active torsions:
REMARK  status: ('A' for Active; 'I' for Inactive)
REMARK    1  A    between atoms: C_1  and  C_2
REMARK    2  A    between atoms: C_5  and  C_7
REMARK    3  A    between atoms: C_9  and  C_10
REMARK    4  A    between atoms: C_10  and  C_11
REMARK    5  A    between atoms: C_30  and  C_31
REMARK                            x       y       z     vdW  Elec       q    Type
REMARK                         _______ _______ _______ _____ _____    ______ ____
ROOT
ATOM      1  C   UNL     1       7.337   6.833  17.650  0.00  0.00    +0.000 A 
ATOM      2  C   UNL     1       7.370   8.138  17.138  0.00  0.00    +0.000 A 
ATOM      3  C   UNL     1       7.975   9.185  17.844  0.00  0.00    +0.000 A 
ATOM      4  C   UNL     1       8.705   8.869  18.995  0.00  0.00    +0.000 A 
ATOM      5  C   UNL     1       8.780   7.552  19.453  0.00  0.00    +0.000 A 
ATOM      6  C   UNL     1       8.082   6.542  18.794  0.00  0.00    +0.000 A 
ATOM      7  F   UNL     1       8.141   5.304  19.301  0.00  0.00    +0.000 F 
ENDROOT
BRANCH   1  12
ATOM      8  C   UNL     1       2.557   6.574  19.835  0.00  0.00    +0.000 C 
ATOM      9  C   UNL     1       3.522   5.584  19.179  0.00  0.00    +0.000 C 
ATOM     10  C   UNL     1       4.395   6.393  18.211  0.00  0.00    +0.000 C 
ATOM     11  N   UNL     1       5.202   5.564  17.316  0.00  0.00    +0.000 N 
ATOM     12  C   UNL     1       6.555   5.753  16.996  0.00  0.00    +0.000 C 
ATOM     13  O   UNL     1       7.135   5.042  16.179  0.00  0.00    +0.000 OA
ATOM     14  C   UNL     1       4.446   4.619  16.488  0.00  0.00    +0.000 C 
ATOM     15  C   UNL     1       3.333   4.007  17.266  0.00  0.00    +0.000 A 
ATOM     16  N   UNL     1       2.609   2.960  16.928  0.00  0.00    +0.000 NA
ATOM     17  N   UNL     1       1.757   2.683  17.965  0.00  0.00    +0.000 NA
ATOM     18  C   UNL     1       1.966   3.559  18.929  0.00  0.00    +0.000 A 
ATOM     19  N   UNL     1       2.905   4.463  18.492  0.00  0.00    +0.000 N 
BRANCH  18  20
ATOM     20  C   UNL     1       1.331   3.571  20.268  0.00  0.00    +0.000 C 
ATOM     21  F   UNL     1       2.211   3.773  21.280  0.00  0.00    +0.000 F 
ATOM     22  F   UNL     1       0.390   4.549  20.366  0.00  0.00    +0.000 F 
ATOM     23  F   UNL     1       0.698   2.398  20.538  0.00  0.00    +0.000 F 
ENDBRANCH  18  20
ENDBRANCH   1  12
BRANCH   3  24
ATOM     24  C   UNL     1       7.846  10.604  17.337  0.00  0.00    +0.000 C 
BRANCH  24  25
ATOM     25  C   UNL     1       8.965  11.564  17.758  0.00  0.00    +0.000 A 
ATOM     26  N   UNL     1      10.138  11.047  18.014  0.00  0.00    +0.000 NA
ATOM     27  N   UNL     1      11.091  11.856  18.556  0.00  0.00    +0.000 N 
ATOM     28  C   UNL     1      10.914  13.154  18.979  0.00  0.00    +0.000 A 
ATOM     29  O   UNL     1      11.770  13.772  19.596  0.00  0.00    +0.000 OA
ATOM     30  C   UNL     1       9.630  13.775  18.617  0.00  0.00    +0.000 A 
ATOM     31  C   UNL     1       9.393  15.128  18.908  0.00  0.00    +0.000 A 
ATOM     32  C   UNL     1       8.202  15.723  18.496  0.00  0.00    +0.000 A 
ATOM     33  C   UNL     1       7.257  14.974  17.804  0.00  0.00    +0.000 A 
ATOM     34  C   UNL     1       7.481  13.617  17.553  0.00  0.00    +0.000 A 
ATOM     35  C   UNL     1       8.670  13.006  17.962  0.00  0.00    +0.000 A 
ATOM     36  H   UNL     1      11.967  11.415  18.828  0.00  0.00    +0.000 HD
ENDBRANCH  24  25
ENDBRANCH   3  24
TORSDOF 4
ENDMDL
MODEL 9
REMARK VINA RESULT:      -7.8      2.333      5.711
REMARK  Name = 
REMARK  5 active torsions:
REMARK  status: ('A' for Active; 'I' for Inactive)
REMARK    1  A    between atoms: C_1  and  C_2
REMARK    2  A    between atoms: C_5  and  C_7
REMARK    3  A    between atoms: C_9  and  C_10
REMARK    4  A    between atoms: C_10  and  C_11
REMARK    5  A    between atoms: C_30  and  C_31
REMARK                            x       y       z     vdW  Elec       q    Type
REMARK                         _______ _______ _______ _____ _____    ______ ____
ROOT
ATOM      1  C   UNL     1      -2.619  14.504  22.392  0.00  0.00    +0.000 A 
ATOM      2  C   UNL     1      -3.933  14.625  21.915  0.00  0.00    +0.000 A 
ATOM      3  C   UNL     1      -5.024  14.149  22.652  0.00  0.00    +0.000 A 
ATOM      4  C   UNL     1      -4.795  13.706  23.959  0.00  0.00    +0.000 A 
ATOM      5  C   UNL     1      -3.504  13.690  24.491  0.00  0.00    +0.000 A 
ATOM      6  C   UNL     1      -2.419  14.068  23.703  0.00  0.00    +0.000 A 
ATOM      7  F   UNL     1      -1.195  13.986  24.239  0.00  0.00    +0.000 F 
ENDROOT
BRANCH   1  12
ATOM      8  C   UNL     1      -1.696  10.589  18.998  0.00  0.00    +0.000 C 
ATOM      9  C   UNL     1      -0.850  11.638  19.725  0.00  0.00    +0.000 C 
ATOM     10  C   UNL     1      -1.776  12.827  20.017  0.00  0.00    +0.000 C 
ATOM     11  N   UNL     1      -1.069  14.019  20.483  0.00  0.00    +0.000 N 
ATOM     12  C   UNL     1      -1.444  14.848  21.551  0.00  0.00    +0.000 C 
ATOM     13  O   UNL     1      -0.823  15.871  21.829  0.00  0.00    +0.000 OA
ATOM     14  C   UNL     1      -0.032  14.525  19.578  0.00  0.00    +0.000 C 
ATOM     15  C   UNL     1       0.731  13.401  18.967  0.00  0.00    +0.000 A 
ATOM     16  N   UNL     1       1.865  13.479  18.304  0.00  0.00    +0.000 NA
ATOM     17  N   UNL     1       2.262  12.205  17.993  0.00  0.00    +0.000 NA
ATOM     18  C   UNL     1       1.368  11.357  18.468  0.00  0.00    +0.000 A 
ATOM     19  N   UNL     1       0.342  12.082  19.026  0.00  0.00    +0.000 N 
BRANCH  18  20
ATOM     20  C   UNL     1       1.450   9.877  18.441  0.00  0.00    +0.000 C 
ATOM     21  F   UNL     1       0.517   9.301  17.641  0.00  0.00    +0.000 F 
ATOM     22  F   UNL     1       2.663   9.452  17.997  0.00  0.00    +0.000 F 
ATOM     23  F   UNL     1       1.280   9.338  19.678  0.00  0.00    +0.000 F 
ENDBRANCH  18  20
ENDBRANCH   1  12
BRANCH   3  24
ATOM     24  C   UNL     1      -6.404  14.150  22.032  0.00  0.00    +0.000 C 
BRANCH  24  25
ATOM     25  C   UNL     1      -6.926  12.785  21.569  0.00  0.00    +0.000 A 
ATOM     26  N   UNL     1      -7.598  12.072  22.434  0.00  0.00    +0.000 NA
ATOM     27  N   UNL     1      -7.916  10.790  22.099  0.00  0.00    +0.000 N 
ATOM     28  C   UNL     1      -7.497  10.114  20.976  0.00  0.00    +0.000 A 
ATOM     29  O   UNL     1      -7.693   8.917  20.812  0.00  0.00    +0.000 OA
ATOM     30  C   UNL     1      -6.817  10.927  19.955  0.00  0.00    +0.000 A 
ATOM     31  C   UNL     1      -6.446  10.355  18.728  0.00  0.00    +0.000 A 
ATOM     32  C   UNL     1      -5.869  11.153  17.743  0.00  0.00    +0.000 A 
ATOM     33  C   UNL     1      -5.660  12.507  17.982  0.00  0.00    +0.000 A 
ATOM     34  C   UNL     1      -5.994  13.062  19.221  0.00  0.00    +0.000 A 
ATOM     35  C   UNL     1      -6.573  12.274  20.220  0.00  0.00    +0.000 A 
ATOM     36  H   UNL     1      -8.362  10.224  22.818  0.00  0.00    +0.000 HD
ENDBRANCH  24  25
ENDBRANCH   3  24
TORSDOF 4
ENDMDL
