MODEL 1
REMARK VINA RESULT:      -7.1      0.000      0.000
REMARK  Name = 
REMARK  4 active torsions:
REMARK  status: ('A' for Active; 'I' for Inactive)
REMARK    1  A    between atoms: C_1  and  O_2
REMARK    2  A    between atoms: O_2  and  C_3
REMARK    3  A    between atoms: C_6  and  S_7
REMARK    4  A    between atoms: S_7  and  N_10
REMARK                            x       y       z     vdW  Elec       q    Type
REMARK                         _______ _______ _______ _____ _____    ______ ____
ROOT
ATOM      1  S   UNL     1       5.357   4.677  18.996  0.00  0.00    +0.000 S 
ATOM      2  O   UNL     1       6.520   5.033  19.781  0.00  0.00    +0.000 OA
ATOM      3  O   UNL     1       4.150   5.473  19.033  0.00  0.00    +0.000 OA
ENDROOT
BRANCH   1   4
ATOM      4  N   UNL     1       5.037   3.056  19.361  0.00  0.00    +0.000 N 
ATOM      5  C   UNL     1       3.651   2.827  19.546  0.00  0.00    +0.000 A 
ATOM      6  N   UNL     1       3.149   2.744  20.755  0.00  0.00    +0.000 NA
ATOM      7  N   UNL     1       1.799   2.450  20.727  0.00  0.00    +0.000 NA
ATOM      8  C   UNL     1       1.370   2.253  19.499  0.00  0.00    +0.000 A 
ATOM      9  S   UNL     1       2.566   2.444  18.283  0.00  0.00    +0.000 S 
ATOM     10  H   UNL     1       5.511   2.886  20.250  0.00  0.00    +0.000 HD
ENDBRANCH   1   4
BRANCH   1  14
ATOM     11  C   UNL     1       6.616   4.502  14.607  0.00  0.00    +0.000 A 
ATOM     12  C   UNL     1       5.322   4.141  14.991  0.00  0.00    +0.000 A 
ATOM     13  C   UNL     1       4.940   4.183  16.331  0.00  0.00    +0.000 A 
ATOM     14  C   UNL     1       5.873   4.566  17.298  0.00  0.00    +0.000 A 
ATOM     15  C   UNL     1       7.172   4.929  16.928  0.00  0.00    +0.000 A 
ATOM     16  C   UNL     1       7.541   4.889  15.580  0.00  0.00    +0.000 A 
BRANCH  11  18
ATOM     17  C   UNL     1       6.036   3.502  12.539  0.00  0.00    +0.000 C 
ATOM     18  O   UNL     1       6.865   4.401  13.266  0.00  0.00    +0.000 OA
ENDBRANCH  11  18
ENDBRANCH   1  14
TORSDOF 3
ENDMDL
MODEL 2
REMARK VINA RESULT:      -7.1      0.135      1.182
REMARK  Name = 
REMARK  4 active torsions:
REMARK  status: ('A' for Active; 'I' for Inactive)
REMARK    1  A    between atoms: C_1  and  O_2
REMARK    2  A    between atoms: O_2  and  C_3
REMARK    3  A    between atoms: C_6  and  S_7
REMARK    4  A    between atoms: S_7  and  N_10
REMARK                            x       y       z     vdW  Elec       q    Type
REMARK                         _______ _______ _______ _____ _____    ______ ____
ROOT
ATOM      1  S   UNL     1       5.354   4.752  19.053  0.00  0.00    +0.000 S 
ATOM      2  O   UNL     1       6.558   5.096  19.777  0.00  0.00    +0.000 OA
ATOM      3  O   UNL     1       4.146   5.536  19.182  0.00  0.00    +0.000 OA
ENDROOT
BRANCH   1   4
ATOM      4  N   UNL     1       5.068   3.118  19.390  0.00  0.00    +0.000 N 
ATOM      5  C   UNL     1       3.690   2.864  19.603  0.00  0.00    +0.000 A 
ATOM      6  N   UNL     1       3.219   2.747  20.822  0.00  0.00    +0.000 NA
ATOM      7  N   UNL     1       1.872   2.433  20.819  0.00  0.00    +0.000 NA
ATOM      8  C   UNL     1       1.417   2.255  19.597  0.00  0.00    +0.000 A 
ATOM      9  S   UNL     1       2.581   2.490  18.358  0.00  0.00    +0.000 S 
ATOM     10  H   UNL     1       5.565   2.937  20.263  0.00  0.00    +0.000 HD
ENDBRANCH   1   4
BRANCH   1  14
ATOM     11  C   UNL     1       6.489   4.484  14.635  0.00  0.00    +0.000 A 
ATOM     12  C   UNL     1       7.435   4.862  15.590  0.00  0.00    +0.000 A 
ATOM     13  C   UNL     1       7.087   4.954  16.937  0.00  0.00    +0.000 A 
ATOM     14  C   UNL     1       5.771   4.692  17.325  0.00  0.00    +0.000 A 
ATOM     15  C   UNL     1       4.813   4.313  16.379  0.00  0.00    +0.000 A 
ATOM     16  C   UNL     1       5.176   4.216  15.032  0.00  0.00    +0.000 A 
BRANCH  11  18
ATOM     17  C   UNL     1       6.285   3.558  12.464  0.00  0.00    +0.000 C 
ATOM     18  O   UNL     1       6.955   4.446  13.350  0.00  0.00    +0.000 OA
ENDBRANCH  11  18
ENDBRANCH   1  14
TORSDOF 3
ENDMDL
MODEL 3
REMARK VINA RESULT:      -6.8      1.597      1.700
REMARK  Name = 
REMARK  4 active torsions:
REMARK  status: ('A' for Active; 'I' for Inactive)
REMARK    1  A    between atoms: C_1  and  O_2
REMARK    2  A    between atoms: O_2  and  C_3
REMARK    3  A    between atoms: C_6  and  S_7
REMARK    4  A    between atoms: S_7  and  N_10
REMARK                            x       y       z     vdW  Elec       q    Type
REMARK                         _______ _______ _______ _____ _____    ______ ____
ROOT
ATOM      1  S   UNL     1       5.405   4.563  19.064  0.00  0.00    +0.000 S 
ATOM      2  O   UNL     1       5.033   3.223  19.462  0.00  0.00    +0.000 OA
ATOM      3  O   UNL     1       6.416   5.310  19.779  0.00  0.00    +0.000 OA
ENDROOT
BRANCH   1   4
ATOM      4  N   UNL     1       3.955   5.430  18.962  0.00  0.00    +0.000 N 
ATOM      5  C   UNL     1       2.848   4.643  19.365  0.00  0.00    +0.000 A 
ATOM      6  N   UNL     1       2.070   4.086  18.468  0.00  0.00    +0.000 NA
ATOM      7  N   UNL     1       1.011   3.420  19.057  0.00  0.00    +0.000 NA
ATOM      8  C   UNL     1       1.006   3.574  20.364  0.00  0.00    +0.000 A 
ATOM      9  S   UNL     1       2.306   4.511  20.980  0.00  0.00    +0.000 S 
ATOM     10  H   UNL     1       3.847   5.650  17.970  0.00  0.00    +0.000 HD
ENDBRANCH   1   4
BRANCH   1  14
ATOM     11  C   UNL     1       6.599   4.488  14.653  0.00  0.00    +0.000 A 
ATOM     12  C   UNL     1       5.348   4.016  15.060  0.00  0.00    +0.000 A 
ATOM     13  C   UNL     1       4.987   4.028  16.407  0.00  0.00    +0.000 A 
ATOM     14  C   UNL     1       5.900   4.494  17.357  0.00  0.00    +0.000 A 
ATOM     15  C   UNL     1       7.155   4.970  16.964  0.00  0.00    +0.000 A 
ATOM     16  C   UNL     1       7.503   4.959  15.610  0.00  0.00    +0.000 A 
BRANCH  11  18
ATOM     17  C   UNL     1       6.039   3.471  12.589  0.00  0.00    +0.000 C 
ATOM     18  O   UNL     1       6.832   4.407  13.309  0.00  0.00    +0.000 OA
ENDBRANCH  11  18
ENDBRANCH   1  14
TORSDOF 3
ENDMDL
MODEL 4
REMARK VINA RESULT:      -6.8      1.593      2.062
REMARK  Name = 
REMARK  4 active torsions:
REMARK  status: ('A' for Active; 'I' for Inactive)
REMARK    1  A    between atoms: C_1  and  O_2
REMARK    2  A    between atoms: O_2  and  C_3
REMARK    3  A    between atoms: C_6  and  S_7
REMARK    4  A    between atoms: S_7  and  N_10
REMARK                            x       y       z     vdW  Elec       q    Type
REMARK                         _______ _______ _______ _____ _____    ______ ____
ROOT
ATOM      1  S   UNL     1       5.390   4.579  19.097  0.00  0.00    +0.000 S 
ATOM      2  O   UNL     1       5.037   3.221  19.452  0.00  0.00    +0.000 OA
ATOM      3  O   UNL     1       6.442   5.291  19.790  0.00  0.00    +0.000 OA
ENDROOT
BRANCH   1   4
ATOM      4  N   UNL     1       3.939   5.450  19.117  0.00  0.00    +0.000 N 
ATOM      5  C   UNL     1       2.843   4.627  19.475  0.00  0.00    +0.000 A 
ATOM      6  N   UNL     1       2.040   4.156  18.551  0.00  0.00    +0.000 NA
ATOM      7  N   UNL     1       0.996   3.436  19.103  0.00  0.00    +0.000 NA
ATOM      8  C   UNL     1       1.027   3.466  20.418  0.00  0.00    +0.000 A 
ATOM      9  S   UNL     1       2.344   4.342  21.084  0.00  0.00    +0.000 S 
ATOM     10  H   UNL     1       3.805   5.762  18.154  0.00  0.00    +0.000 HD
ENDBRANCH   1   4
BRANCH   1  14
ATOM     11  C   UNL     1       6.479   4.493  14.660  0.00  0.00    +0.000 A 
ATOM     12  C   UNL     1       7.435   4.835  15.620  0.00  0.00    +0.000 A 
ATOM     13  C   UNL     1       7.101   4.873  16.974  0.00  0.00    +0.000 A 
ATOM     14  C   UNL     1       5.789   4.590  17.364  0.00  0.00    +0.000 A 
ATOM     15  C   UNL     1       4.823   4.246  16.414  0.00  0.00    +0.000 A 
ATOM     16  C   UNL     1       5.171   4.206  15.060  0.00  0.00    +0.000 A 
BRANCH  11  18
ATOM     17  C   UNL     1       6.359   3.548  12.492  0.00  0.00    +0.000 C 
ATOM     18  O   UNL     1       6.932   4.509  13.370  0.00  0.00    +0.000 OA
ENDBRANCH  11  18
ENDBRANCH   1  14
TORSDOF 3
ENDMDL
MODEL 5
REMARK VINA RESULT:      -6.5      1.499      1.670
REMARK  Name = 
REMARK  4 active torsions:
REMARK  status: ('A' for Active; 'I' for Inactive)
REMARK    1  A    between atoms: C_1  and  O_2
REMARK    2  A    between atoms: O_2  and  C_3
REMARK    3  A    between atoms: C_6  and  S_7
REMARK    4  A    between atoms: S_7  and  N_10
REMARK                            x       y       z     vdW  Elec       q    Type
REMARK                         _______ _______ _______ _____ _____    ______ ____
ROOT
ATOM      1  S   UNL     1       3.593   5.168  18.472  0.00  0.00    +0.000 S 
ATOM      2  O   UNL     1       4.141   5.579  19.747  0.00  0.00    +0.000 OA
ATOM      3  O   UNL     1       2.477   5.863  17.871  0.00  0.00    +0.000 OA
ENDROOT
BRANCH   1   4
ATOM      4  N   UNL     1       3.280   3.511  18.621  0.00  0.00    +0.000 N 
ATOM      5  C   UNL     1       2.668   3.207  19.862  0.00  0.00    +0.000 A 
ATOM      6  N   UNL     1       3.379   2.716  20.849  0.00  0.00    +0.000 NA
ATOM      7  N   UNL     1       2.592   2.421  21.947  0.00  0.00    +0.000 NA
ATOM      8  C   UNL     1       1.317   2.636  21.702  0.00  0.00    +0.000 A 
ATOM      9  S   UNL     1       0.981   3.244  20.132  0.00  0.00    +0.000 S 
ATOM     10  H   UNL     1       4.199   3.065  18.599  0.00  0.00    +0.000 HD
ENDBRANCH   1   4
BRANCH   1  14
ATOM     11  C   UNL     1       6.950   5.276  15.373  0.00  0.00    +0.000 A 
ATOM     12  C   UNL     1       5.741   4.635  15.090  0.00  0.00    +0.000 A 
ATOM     13  C   UNL     1       4.721   4.592  16.039  0.00  0.00    +0.000 A 
ATOM     14  C   UNL     1       4.925   5.174  17.293  0.00  0.00    +0.000 A 
ATOM     15  C   UNL     1       6.129   5.819  17.590  0.00  0.00    +0.000 A 
ATOM     16  C   UNL     1       7.143   5.862  16.628  0.00  0.00    +0.000 A 
BRANCH  11  18
ATOM     17  C   UNL     1       7.377   4.885  13.077  0.00  0.00    +0.000 C 
ATOM     18  O   UNL     1       7.871   5.234  14.364  0.00  0.00    +0.000 OA
ENDBRANCH  11  18
ENDBRANCH   1  14
TORSDOF 3
ENDMDL
MODEL 6
REMARK VINA RESULT:      -6.4      3.221      5.923
REMARK  Name = 
REMARK  4 active torsions:
REMARK  status: ('A' for Active; 'I' for Inactive)
REMARK    1  A    between atoms: C_1  and  O_2
REMARK    2  A    between atoms: O_2  and  C_3
REMARK    3  A    between atoms: C_6  and  S_7
REMARK    4  A    between atoms: S_7  and  N_10
REMARK                            x       y       z     vdW  Elec       q    Type
REMARK                         _______ _______ _______ _____ _____    ______ ____
ROOT
ATOM      1  S   UNL     1       6.826   5.242  18.684  0.00  0.00    +0.000 S 
ATOM      2  O   UNL     1       7.207   6.153  19.742  0.00  0.00    +0.000 OA
ATOM      3  O   UNL     1       7.698   4.168  18.263  0.00  0.00    +0.000 OA
ENDROOT
BRANCH   1   4
ATOM      4  N   UNL     1       6.377   6.219  17.377  0.00  0.00    +0.000 N 
ATOM      5  C   UNL     1       6.541   5.545  16.142  0.00  0.00    +0.000 A 
ATOM      6  N   UNL     1       7.592   5.781  15.394  0.00  0.00    +0.000 NA
ATOM      7  N   UNL     1       7.536   5.082  14.202  0.00  0.00    +0.000 NA
ATOM      8  C   UNL     1       6.410   4.413  14.084  0.00  0.00    +0.000 A 
ATOM      9  S   UNL     1       5.347   4.555  15.424  0.00  0.00    +0.000 S 
ATOM     10  H   UNL     1       7.026   7.007  17.401  0.00  0.00    +0.000 HD
ENDBRANCH   1   4
BRANCH   1  14
ATOM     11  C   UNL     1       2.766   3.434  19.748  0.00  0.00    +0.000 A 
ATOM     12  C   UNL     1       3.015   4.794  19.953  0.00  0.00    +0.000 A 
ATOM     13  C   UNL     1       4.257   5.344  19.638  0.00  0.00    +0.000 A 
ATOM     14  C   UNL     1       5.267   4.517  19.140  0.00  0.00    +0.000 A 
ATOM     15  C   UNL     1       5.032   3.155  18.931  0.00  0.00    +0.000 A 
ATOM     16  C   UNL     1       3.781   2.616  19.244  0.00  0.00    +0.000 A 
BRANCH  11  18
ATOM     17  C   UNL     1       1.316   2.761  21.496  0.00  0.00    +0.000 C 
ATOM     18  O   UNL     1       1.515   3.020  20.111  0.00  0.00    +0.000 OA
ENDBRANCH  11  18
ENDBRANCH   1  14
TORSDOF 3
ENDMDL
MODEL 7
REMARK VINA RESULT:      -6.4      2.207      2.540
REMARK  Name = 
REMARK  4 active torsions:
REMARK  status: ('A' for Active; 'I' for Inactive)
REMARK    1  A    between atoms: C_1  and  O_2
REMARK    2  A    between atoms: O_2  and  C_3
REMARK    3  A    between atoms: C_6  and  S_7
REMARK    4  A    between atoms: S_7  and  N_10
REMARK                            x       y       z     vdW  Elec       q    Type
REMARK                         _______ _______ _______ _____ _____    ______ ____
ROOT
ATOM      1  S   UNL     1       2.773   5.884  18.435  0.00  0.00    +0.000 S 
ATOM      2  O   UNL     1       2.462   7.297  18.446  0.00  0.00    +0.000 OA
ATOM      3  O   UNL     1       1.775   4.894  18.096  0.00  0.00    +0.000 OA
ENDROOT
BRANCH   1   4
ATOM      4  N   UNL     1       3.479   5.558  19.938  0.00  0.00    +0.000 N 
ATOM      5  C   UNL     1       2.973   4.360  20.502  0.00  0.00    +0.000 A 
ATOM      6  N   UNL     1       2.051   4.404  21.434  0.00  0.00    +0.000 NA
ATOM      7  N   UNL     1       1.741   3.141  21.903  0.00  0.00    +0.000 NA
ATOM      8  C   UNL     1       2.500   2.218  21.352  0.00  0.00    +0.000 A 
ATOM      9  S   UNL     1       3.625   2.810  20.197  0.00  0.00    +0.000 S 
ATOM     10  H   UNL     1       3.197   6.337  20.537  0.00  0.00    +0.000 HD
ENDBRANCH   1   4
BRANCH   1  14
ATOM     11  C   UNL     1       6.396   5.282  15.715  0.00  0.00    +0.000 A 
ATOM     12  C   UNL     1       6.150   6.524  16.308  0.00  0.00    +0.000 A 
ATOM     13  C   UNL     1       5.038   6.711  17.129  0.00  0.00    +0.000 A 
ATOM     14  C   UNL     1       4.152   5.651  17.335  0.00  0.00    +0.000 A 
ATOM     15  C   UNL     1       4.385   4.404  16.749  0.00  0.00    +0.000 A 
ATOM     16  C   UNL     1       5.507   4.226  15.933  0.00  0.00    +0.000 A 
BRANCH  11  18
ATOM     17  C   UNL     1       7.297   4.876  13.563  0.00  0.00    +0.000 C 
ATOM     18  O   UNL     1       7.509   5.237  14.923  0.00  0.00    +0.000 OA
ENDBRANCH  11  18
ENDBRANCH   1  14
TORSDOF 3
ENDMDL
MODEL 8
REMARK VINA RESULT:      -6.4      3.503      5.866
REMARK  Name = 
REMARK  4 active torsions:
REMARK  status: ('A' for Active; 'I' for Inactive)
REMARK    1  A    between atoms: C_1  and  O_2
REMARK    2  A    between atoms: O_2  and  C_3
REMARK    3  A    between atoms: C_6  and  S_7
REMARK    4  A    between atoms: S_7  and  N_10
REMARK                            x       y       z     vdW  Elec       q    Type
REMARK                         _______ _______ _______ _____ _____    ______ ____
ROOT
ATOM      1  S   UNL     1       7.082   5.640  17.673  0.00  0.00    +0.000 S 
ATOM      2  O   UNL     1       7.660   6.704  18.467  0.00  0.00    +0.000 OA
ATOM      3  O   UNL     1       7.793   4.403  17.438  0.00  0.00    +0.000 OA
ENDROOT
BRANCH   1   4
ATOM      4  N   UNL     1       6.604   6.362  16.218  0.00  0.00    +0.000 N 
ATOM      5  C   UNL     1       6.603   5.430  15.151  0.00  0.00    +0.000 A 
ATOM      6  N   UNL     1       7.600   5.396  14.300  0.00  0.00    +0.000 NA
ATOM      7  N   UNL     1       7.381   4.472  13.295  0.00  0.00    +0.000 NA
ATOM      8  C   UNL     1       6.195   3.911  13.401  0.00  0.00    +0.000 A 
ATOM      9  S   UNL     1       5.270   4.438  14.747  0.00  0.00    +0.000 S 
ATOM     10  H   UNL     1       7.317   7.067  16.026  0.00  0.00    +0.000 HD
ENDBRANCH   1   4
BRANCH   1  14
ATOM     11  C   UNL     1       3.002   4.549  19.416  0.00  0.00    +0.000 A 
ATOM     12  C   UNL     1       3.192   5.767  18.759  0.00  0.00    +0.000 A 
ATOM     13  C   UNL     1       4.439   6.106  18.236  0.00  0.00    +0.000 A 
ATOM     14  C   UNL     1       5.512   5.226  18.399  0.00  0.00    +0.000 A 
ATOM     15  C   UNL     1       5.337   4.004  19.054  0.00  0.00    +0.000 A 
ATOM     16  C   UNL     1       4.080   3.672  19.568  0.00  0.00    +0.000 A 
BRANCH  11  18
ATOM     17  C   UNL     1       1.283   2.999  19.918  0.00  0.00    +0.000 C 
ATOM     18  O   UNL     1       1.737   4.346  19.894  0.00  0.00    +0.000 OA
ENDBRANCH  11  18
ENDBRANCH   1  14
TORSDOF 3
ENDMDL
MODEL 9
REMARK VINA RESULT:      -6.3      2.230      2.412
REMARK  Name = 
REMARK  4 active torsions:
REMARK  status: ('A' for Active; 'I' for Inactive)
REMARK    1  A    between atoms: C_1  and  O_2
REMARK    2  A    between atoms: O_2  and  C_3
REMARK    3  A    between atoms: C_6  and  S_7
REMARK    4  A    between atoms: S_7  and  N_10
REMARK                            x       y       z     vdW  Elec       q    Type
REMARK                         _______ _______ _______ _____ _____    ______ ____
ROOT
ATOM      1  S   UNL     1       2.726   5.805  18.371  0.00  0.00    +0.000 S 
ATOM      2  O   UNL     1       2.307   7.188  18.293  0.00  0.00    +0.000 OA
ATOM      3  O   UNL     1       1.839   4.726  17.995  0.00  0.00    +0.000 OA
ENDROOT
BRANCH   1   4
ATOM      4  N   UNL     1       3.321   5.595  19.941  0.00  0.00    +0.000 N 
ATOM      5  C   UNL     1       2.896   4.363  20.498  0.00  0.00    +0.000 A 
ATOM      6  N   UNL     1       1.893   4.329  21.343  0.00  0.00    +0.000 NA
ATOM      7  N   UNL     1       1.677   3.052  21.826  0.00  0.00    +0.000 NA
ATOM      8  C   UNL     1       2.577   2.204  21.376  0.00  0.00    +0.000 A 
ATOM      9  S   UNL     1       3.733   2.885  20.306  0.00  0.00    +0.000 S 
ATOM     10  H   UNL     1       2.905   6.353  20.485  0.00  0.00    +0.000 HD
ENDBRANCH   1   4
BRANCH   1  14
ATOM     11  C   UNL     1       6.463   5.404  15.772  0.00  0.00    +0.000 A 
ATOM     12  C   UNL     1       5.542   4.357  15.860  0.00  0.00    +0.000 A 
ATOM     13  C   UNL     1       4.407   4.474  16.661  0.00  0.00    +0.000 A 
ATOM     14  C   UNL     1       4.208   5.642  17.402  0.00  0.00    +0.000 A 
ATOM     15  C   UNL     1       5.121   6.698  17.324  0.00  0.00    +0.000 A 
ATOM     16  C   UNL     1       6.252   6.571  16.512  0.00  0.00    +0.000 A 
BRANCH  11  18
ATOM     17  C   UNL     1       7.243   4.768  13.629  0.00  0.00    +0.000 C 
ATOM     18  O   UNL     1       7.538   5.155  14.965  0.00  0.00    +0.000 OA
ENDBRANCH  11  18
ENDBRANCH   1  14
TORSDOF 3
ENDMDL
