MODEL 1
REMARK VINA RESULT:      -7.4      0.000      0.000
REMARK  Name = 
REMARK  4 active torsions:
REMARK  status: ('A' for Active; 'I' for Inactive)
REMARK    1  A    between atoms: C_1  and  C_2
REMARK    2  A    between atoms: N_9  and  C_10
REMARK    3  A    between atoms: C_13  and  C_14
REMARK    4  A    between atoms: C_14  and  O_15
REMARK                            x       y       z     vdW  Elec       q    Type
REMARK                         _______ _______ _______ _____ _____    ______ ____
ROOT
ATOM      1  C   UNL     1       7.900   5.087  12.523  0.00  0.00    +0.000 C 
ATOM      2  C   UNL     1       6.783   4.706  13.453  0.00  0.00    +0.000 C 
ATOM      3  O   UNL     1       6.062   3.742  13.221  0.00  0.00    +0.000 OA
ATOM      4  N   UNL     1       6.622   5.597  14.503  0.00  0.00    +0.000 N 
ATOM      5  C   UNL     1       5.737   5.479  15.540  0.00  0.00    +0.000 A 
ATOM      6  N   UNL     1       5.306   6.585  16.055  0.00  0.00    +0.000 NA
ATOM      7  C   UNL     1       4.347   6.529  17.052  0.00  0.00    +0.000 A 
ATOM      8  O   UNL     1       3.931   7.564  17.565  0.00  0.00    +0.000 OA
ATOM      9  N   UNL     1       3.849   5.271  17.429  0.00  0.00    +0.000 N 
ATOM     10  C   UNL     1       4.401   4.106  16.922  0.00  0.00    +0.000 A 
ATOM     11  C   UNL     1       5.351   4.143  16.000  0.00  0.00    +0.000 A 
ATOM     12  F   UNL     1       6.034   3.054  15.621  0.00  0.00    +0.000 F 
ATOM     13  H   UNL     1       6.942   6.545  14.351  0.00  0.00    +0.000 HD
ENDROOT
BRANCH   9  14
ATOM     14  C   UNL     1       2.910   5.223  18.538  0.00  0.00    +0.000 C 
ATOM     15  C   UNL     1       1.766   4.309  18.260  0.00  0.00    +0.000 C 
ATOM     16  C   UNL     1       1.750   3.311  19.145  0.00  0.00    +0.000 C 
ATOM     17  C   UNL     1       2.834   3.513  20.147  0.00  0.00    +0.000 C 
ATOM     18  O   UNL     1       3.595   4.645  19.670  0.00  0.00    +0.000 OA
BRANCH  17  19
ATOM     19  C   UNL     1       3.780   2.323  20.366  0.00  0.00    +0.000 C 
BRANCH  19  20
ATOM     20  O   UNL     1       5.083   2.550  19.830  0.00  0.00    +0.000 OA
ATOM     21  H   UNL     1       5.648   2.756  20.597  0.00  0.00    +0.000 HD
ENDBRANCH  19  20
ENDBRANCH  17  19
ENDBRANCH   9  14
TORSDOF 3
ENDMDL
MODEL 2
REMARK VINA RESULT:      -6.7      1.805      2.070
REMARK  Name = 
REMARK  4 active torsions:
REMARK  status: ('A' for Active; 'I' for Inactive)
REMARK    1  A    between atoms: C_1  and  C_2
REMARK    2  A    between atoms: N_9  and  C_10
REMARK    3  A    between atoms: C_13  and  C_14
REMARK    4  A    between atoms: C_14  and  O_15
REMARK                            x       y       z     vdW  Elec       q    Type
REMARK                         _______ _______ _______ _____ _____    ______ ____
ROOT
ATOM      1  C   UNL     1       8.203   5.178  13.171  0.00  0.00    +0.000 C 
ATOM      2  C   UNL     1       7.066   5.195  14.152  0.00  0.00    +0.000 C 
ATOM      3  O   UNL     1       5.938   5.542  13.816  0.00  0.00    +0.000 OA
ATOM      4  N   UNL     1       7.457   4.875  15.444  0.00  0.00    +0.000 N 
ATOM      5  C   UNL     1       6.637   4.744  16.532  0.00  0.00    +0.000 A 
ATOM      6  N   UNL     1       7.159   5.031  17.680  0.00  0.00    +0.000 NA
ATOM      7  C   UNL     1       6.355   4.996  18.808  0.00  0.00    +0.000 A 
ATOM      8  O   UNL     1       6.830   5.252  19.911  0.00  0.00    +0.000 OA
ATOM      9  N   UNL     1       4.993   4.694  18.646  0.00  0.00    +0.000 N 
ATOM     10  C   UNL     1       4.492   4.301  17.416  0.00  0.00    +0.000 A 
ATOM     11  C   UNL     1       5.259   4.286  16.337  0.00  0.00    +0.000 A 
ATOM     12  F   UNL     1       4.866   3.743  15.176  0.00  0.00    +0.000 F 
ATOM     13  H   UNL     1       8.424   5.052  15.685  0.00  0.00    +0.000 HD
ENDROOT
BRANCH   9  14
ATOM     14  C   UNL     1       4.183   4.572  19.847  0.00  0.00    +0.000 C 
ATOM     15  C   UNL     1       2.964   5.428  19.786  0.00  0.00    +0.000 C 
ATOM     16  C   UNL     1       1.868   4.670  19.839  0.00  0.00    +0.000 C 
ATOM     17  C   UNL     1       2.254   3.243  20.026  0.00  0.00    +0.000 C 
ATOM     18  O   UNL     1       3.694   3.215  19.914  0.00  0.00    +0.000 OA
BRANCH  17  19
ATOM     19  C   UNL     1       1.650   2.245  19.027  0.00  0.00    +0.000 C 
BRANCH  19  20
ATOM     20  O   UNL     1       2.638   1.435  18.393  0.00  0.00    +0.000 OA
ATOM     21  H   UNL     1       3.341   1.312  19.058  0.00  0.00    +0.000 HD
ENDBRANCH  19  20
ENDBRANCH  17  19
ENDBRANCH   9  14
TORSDOF 3
ENDMDL
MODEL 3
REMARK VINA RESULT:      -6.7      1.885      5.947
REMARK  Name = 
REMARK  4 active torsions:
REMARK  status: ('A' for Active; 'I' for Inactive)
REMARK    1  A    between atoms: C_1  and  C_2
REMARK    2  A    between atoms: N_9  and  C_10
REMARK    3  A    between atoms: C_13  and  C_14
REMARK    4  A    between atoms: C_14  and  O_15
REMARK                            x       y       z     vdW  Elec       q    Type
REMARK                         _______ _______ _______ _____ _____    ______ ____
ROOT
ATOM      1  C   UNL     1       1.348   2.549  21.911  0.00  0.00    +0.000 C 
ATOM      2  C   UNL     1       2.510   2.926  21.036  0.00  0.00    +0.000 C 
ATOM      3  O   UNL     1       3.615   2.416  21.189  0.00  0.00    +0.000 OA
ATOM      4  N   UNL     1       2.209   3.942  20.142  0.00  0.00    +0.000 N 
ATOM      5  C   UNL     1       3.040   4.447  19.177  0.00  0.00    +0.000 A 
ATOM      6  N   UNL     1       2.865   5.689  18.865  0.00  0.00    +0.000 NA
ATOM      7  C   UNL     1       3.728   6.279  17.956  0.00  0.00    +0.000 A 
ATOM      8  O   UNL     1       3.576   7.453  17.633  0.00  0.00    +0.000 OA
ATOM      9  N   UNL     1       4.787   5.508  17.447  0.00  0.00    +0.000 N 
ATOM     10  C   UNL     1       4.887   4.157  17.733  0.00  0.00    +0.000 A 
ATOM     11  C   UNL     1       4.041   3.569  18.567  0.00  0.00    +0.000 A 
ATOM     12  F   UNL     1       3.989   2.239  18.726  0.00  0.00    +0.000 F 
ATOM     13  H   UNL     1       1.460   4.571  20.399  0.00  0.00    +0.000 HD
ENDROOT
BRANCH   9  14
ATOM     14  C   UNL     1       5.630   6.112  16.427  0.00  0.00    +0.000 C 
ATOM     15  C   UNL     1       7.056   5.703  16.569  0.00  0.00    +0.000 C 
ATOM     16  C   UNL     1       7.454   5.041  15.482  0.00  0.00    +0.000 C 
ATOM     17  C   UNL     1       6.354   5.019  14.478  0.00  0.00    +0.000 C 
ATOM     18  O   UNL     1       5.210   5.595  15.146  0.00  0.00    +0.000 OA
BRANCH  17  19
ATOM     19  C   UNL     1       5.974   3.638  13.924  0.00  0.00    +0.000 C 
BRANCH  19  20
ATOM     20  O   UNL     1       6.552   3.380  12.645  0.00  0.00    +0.000 OA
ATOM     21  H   UNL     1       6.153   2.543  12.343  0.00  0.00    +0.000 HD
ENDBRANCH  19  20
ENDBRANCH  17  19
ENDBRANCH   9  14
TORSDOF 3
ENDMDL
MODEL 4
REMARK VINA RESULT:      -6.6      0.978      1.009
REMARK  Name = 
REMARK  4 active torsions:
REMARK  status: ('A' for Active; 'I' for Inactive)
REMARK    1  A    between atoms: C_1  and  C_2
REMARK    2  A    between atoms: N_9  and  C_10
REMARK    3  A    between atoms: C_13  and  C_14
REMARK    4  A    between atoms: C_14  and  O_15
REMARK                            x       y       z     vdW  Elec       q    Type
REMARK                         _______ _______ _______ _____ _____    ______ ____
ROOT
ATOM      1  C   UNL     1       7.814   5.366  13.643  0.00  0.00    +0.000 C 
ATOM      2  C   UNL     1       6.545   4.895  14.295  0.00  0.00    +0.000 C 
ATOM      3  O   UNL     1       5.845   4.031  13.779  0.00  0.00    +0.000 OA
ATOM      4  N   UNL     1       6.235   5.597  15.451  0.00  0.00    +0.000 N 
ATOM      5  C   UNL     1       5.184   5.351  16.293  0.00  0.00    +0.000 A 
ATOM      6  N   UNL     1       4.705   6.373  16.924  0.00  0.00    +0.000 NA
ATOM      7  C   UNL     1       3.590   6.201  17.727  0.00  0.00    +0.000 A 
ATOM      8  O   UNL     1       3.124   7.153  18.347  0.00  0.00    +0.000 OA
ATOM      9  N   UNL     1       2.999   4.928  17.783  0.00  0.00    +0.000 N 
ATOM     10  C   UNL     1       3.594   3.840  17.168  0.00  0.00    +0.000 A 
ATOM     11  C   UNL     1       4.687   3.981  16.433  0.00  0.00    +0.000 A 
ATOM     12  F   UNL     1       5.392   2.936  15.977  0.00  0.00    +0.000 F 
ATOM     13  H   UNL     1       6.604   6.536  15.528  0.00  0.00    +0.000 HD
ENDROOT
BRANCH   9  14
ATOM     14  C   UNL     1       1.885   4.743  18.699  0.00  0.00    +0.000 C 
ATOM     15  C   UNL     1       1.154   3.470  18.437  0.00  0.00    +0.000 C 
ATOM     16  C   UNL     1       1.227   2.672  19.503  0.00  0.00    +0.000 C 
ATOM     17  C   UNL     1       1.941   3.373  20.606  0.00  0.00    +0.000 C 
ATOM     18  O   UNL     1       2.427   4.605  20.030  0.00  0.00    +0.000 OA
BRANCH  17  19
ATOM     19  C   UNL     1       3.116   2.612  21.239  0.00  0.00    +0.000 C 
BRANCH  19  20
ATOM     20  O   UNL     1       4.181   2.381  20.318  0.00  0.00    +0.000 OA
ATOM     21  H   UNL     1       4.959   2.169  20.867  0.00  0.00    +0.000 HD
ENDBRANCH  19  20
ENDBRANCH  17  19
ENDBRANCH   9  14
TORSDOF 3
ENDMDL
MODEL 5
REMARK VINA RESULT:      -6.6      1.583      1.705
REMARK  Name = 
REMARK  4 active torsions:
REMARK  status: ('A' for Active; 'I' for Inactive)
REMARK    1  A    between atoms: C_1  and  C_2
REMARK    2  A    between atoms: N_9  and  C_10
REMARK    3  A    between atoms: C_13  and  C_14
REMARK    4  A    between atoms: C_14  and  O_15
REMARK                            x       y       z     vdW  Elec       q    Type
REMARK                         _______ _______ _______ _____ _____    ______ ____
ROOT
ATOM      1  C   UNL     1       7.396   4.224  11.554  0.00  0.00    +0.000 C 
ATOM      2  C   UNL     1       6.600   4.220  12.827  0.00  0.00    +0.000 C 
ATOM      3  O   UNL     1       5.472   3.739  12.872  0.00  0.00    +0.000 OA
ATOM      4  N   UNL     1       7.235   4.881  13.868  0.00  0.00    +0.000 N 
ATOM      5  C   UNL     1       6.788   4.983  15.158  0.00  0.00    +0.000 A 
ATOM      6  N   UNL     1       7.134   6.050  15.801  0.00  0.00    +0.000 NA
ATOM      7  C   UNL     1       6.645   6.248  17.082  0.00  0.00    +0.000 A 
ATOM      8  O   UNL     1       6.969   7.246  17.718  0.00  0.00    +0.000 OA
ATOM      9  N   UNL     1       5.753   5.299  17.608  0.00  0.00    +0.000 N 
ATOM     10  C   UNL     1       5.479   4.125  16.927  0.00  0.00    +0.000 A 
ATOM     11  C   UNL     1       5.976   3.901  15.720  0.00  0.00    +0.000 A 
ATOM     12  F   UNL     1       5.886   2.711  15.110  0.00  0.00    +0.000 F 
ATOM     13  H   UNL     1       7.904   5.596  13.614  0.00  0.00    +0.000 HD
ENDROOT
BRANCH   9  14
ATOM     14  C   UNL     1       5.319   5.474  18.985  0.00  0.00    +0.000 C 
ATOM     15  C   UNL     1       3.865   5.790  19.075  0.00  0.00    +0.000 C 
ATOM     16  C   UNL     1       3.229   4.835  19.754  0.00  0.00    +0.000 C 
ATOM     17  C   UNL     1       4.213   3.834  20.252  0.00  0.00    +0.000 C 
ATOM     18  O   UNL     1       5.477   4.207  19.660  0.00  0.00    +0.000 OA
BRANCH  17  19
ATOM     19  C   UNL     1       3.911   2.366  19.916  0.00  0.00    +0.000 C 
BRANCH  19  20
ATOM     20  O   UNL     1       5.074   1.541  19.959  0.00  0.00    +0.000 OA
ATOM     21  H   UNL     1       4.794   0.718  20.400  0.00  0.00    +0.000 HD
ENDBRANCH  19  20
ENDBRANCH  17  19
ENDBRANCH   9  14
TORSDOF 3
ENDMDL
MODEL 6
REMARK VINA RESULT:      -6.5      3.472      6.175
REMARK  Name = 
REMARK  4 active torsions:
REMARK  status: ('A' for Active; 'I' for Inactive)
REMARK    1  A    between atoms: C_1  and  C_2
REMARK    2  A    between atoms: N_9  and  C_10
REMARK    3  A    between atoms: C_13  and  C_14
REMARK    4  A    between atoms: C_14  and  O_15
REMARK                            x       y       z     vdW  Elec       q    Type
REMARK                         _______ _______ _______ _____ _____    ______ ____
ROOT
ATOM      1  C   UNL     1      -0.163  10.895  20.005  0.00  0.00    +0.000 C 
ATOM      2  C   UNL     1       0.510   9.791  19.242  0.00  0.00    +0.000 C 
ATOM      3  O   UNL     1       0.404   9.702  18.023  0.00  0.00    +0.000 OA
ATOM      4  N   UNL     1       1.155   8.878  20.062  0.00  0.00    +0.000 N 
ATOM      5  C   UNL     1       1.908   7.810  19.654  0.00  0.00    +0.000 A 
ATOM      6  N   UNL     1       1.926   6.787  20.445  0.00  0.00    +0.000 NA
ATOM      7  C   UNL     1       2.603   5.646  20.048  0.00  0.00    +0.000 A 
ATOM      8  O   UNL     1       2.647   4.666  20.787  0.00  0.00    +0.000 OA
ATOM      9  N   UNL     1       3.203   5.635  18.778  0.00  0.00    +0.000 N 
ATOM     10  C   UNL     1       3.242   6.780  17.999  0.00  0.00    +0.000 A 
ATOM     11  C   UNL     1       2.637   7.892  18.386  0.00  0.00    +0.000 A 
ATOM     12  F   UNL     1       2.804   9.064  17.756  0.00  0.00    +0.000 F 
ATOM     13  H   UNL     1       0.810   8.791  21.009  0.00  0.00    +0.000 HD
ENDROOT
BRANCH   9  14
ATOM     14  C   UNL     1       3.986   4.466  18.413  0.00  0.00    +0.000 C 
ATOM     15  C   UNL     1       3.771   4.074  16.990  0.00  0.00    +0.000 C 
ATOM     16  C   UNL     1       4.917   4.159  16.313  0.00  0.00    +0.000 C 
ATOM     17  C   UNL     1       6.020   4.536  17.240  0.00  0.00    +0.000 C 
ATOM     18  O   UNL     1       5.382   4.823  18.503  0.00  0.00    +0.000 OA
BRANCH  17  19
ATOM     19  C   UNL     1       6.873   5.741  16.818  0.00  0.00    +0.000 C 
BRANCH  19  20
ATOM     20  O   UNL     1       7.449   5.581  15.523  0.00  0.00    +0.000 OA
ATOM     21  H   UNL     1       7.496   4.618  15.375  0.00  0.00    +0.000 HD
ENDBRANCH  19  20
ENDBRANCH  17  19
ENDBRANCH   9  14
TORSDOF 3
ENDMDL
MODEL 7
REMARK VINA RESULT:      -6.4      3.781      6.224
REMARK  Name = 
REMARK  4 active torsions:
REMARK  status: ('A' for Active; 'I' for Inactive)
REMARK    1  A    between atoms: C_1  and  C_2
REMARK    2  A    between atoms: N_9  and  C_10
REMARK    3  A    between atoms: C_13  and  C_14
REMARK    4  A    between atoms: C_14  and  O_15
REMARK                            x       y       z     vdW  Elec       q    Type
REMARK                         _______ _______ _______ _____ _____    ______ ____
ROOT
ATOM      1  C   UNL     1      -0.291  11.211  20.164  0.00  0.00    +0.000 C 
ATOM      2  C   UNL     1       0.321  10.069  19.405  0.00  0.00    +0.000 C 
ATOM      3  O   UNL     1       0.177   9.959  18.192  0.00  0.00    +0.000 OA
ATOM      4  N   UNL     1       0.958   9.150  20.225  0.00  0.00    +0.000 N 
ATOM      5  C   UNL     1       1.662   8.048  19.819  0.00  0.00    +0.000 A 
ATOM      6  N   UNL     1       1.668   7.042  20.630  0.00  0.00    +0.000 NA
ATOM      7  C   UNL     1       2.293   5.869  20.238  0.00  0.00    +0.000 A 
ATOM      8  O   UNL     1       2.324   4.904  20.995  0.00  0.00    +0.000 OA
ATOM      9  N   UNL     1       2.855   5.813  18.952  0.00  0.00    +0.000 N 
ATOM     10  C   UNL     1       2.910   6.939  18.148  0.00  0.00    +0.000 A 
ATOM     11  C   UNL     1       2.355   8.080  18.529  0.00  0.00    +0.000 A 
ATOM     12  F   UNL     1       2.544   9.232  17.870  0.00  0.00    +0.000 F 
ATOM     13  H   UNL     1       0.638   9.094  21.183  0.00  0.00    +0.000 HD
ENDROOT
BRANCH   9  14
ATOM     14  C   UNL     1       3.585   4.609  18.589  0.00  0.00    +0.000 C 
ATOM     15  C   UNL     1       3.987   4.613  17.153  0.00  0.00    +0.000 C 
ATOM     16  C   UNL     1       5.317   4.584  17.049  0.00  0.00    +0.000 C 
ATOM     17  C   UNL     1       5.923   4.473  18.405  0.00  0.00    +0.000 C 
ATOM     18  O   UNL     1       4.823   4.604  19.332  0.00  0.00    +0.000 OA
BRANCH  17  19
ATOM     19  C   UNL     1       7.001   5.513  18.749  0.00  0.00    +0.000 C 
BRANCH  19  20
ATOM     20  O   UNL     1       7.476   5.390  20.088  0.00  0.00    +0.000 OA
ATOM     21  H   UNL     1       6.727   5.028  20.598  0.00  0.00    +0.000 HD
ENDBRANCH  19  20
ENDBRANCH  17  19
ENDBRANCH   9  14
TORSDOF 3
ENDMDL
MODEL 8
REMARK VINA RESULT:      -6.4      1.228      1.449
REMARK  Name = 
REMARK  4 active torsions:
REMARK  status: ('A' for Active; 'I' for Inactive)
REMARK    1  A    between atoms: C_1  and  C_2
REMARK    2  A    between atoms: N_9  and  C_10
REMARK    3  A    between atoms: C_13  and  C_14
REMARK    4  A    between atoms: C_14  and  O_15
REMARK                            x       y       z     vdW  Elec       q    Type
REMARK                         _______ _______ _______ _____ _____    ______ ____
ROOT
ATOM      1  C   UNL     1       7.455   4.339  11.868  0.00  0.00    +0.000 C 
ATOM      2  C   UNL     1       6.548   4.251  13.062  0.00  0.00    +0.000 C 
ATOM      3  O   UNL     1       5.526   3.573  13.038  0.00  0.00    +0.000 OA
ATOM      4  N   UNL     1       6.947   5.069  14.109  0.00  0.00    +0.000 N 
ATOM      5  C   UNL     1       6.361   5.150  15.344  0.00  0.00    +0.000 A 
ATOM      6  N   UNL     1       6.445   6.294  15.942  0.00  0.00    +0.000 NA
ATOM      7  C   UNL     1       5.801   6.461  17.158  0.00  0.00    +0.000 A 
ATOM      8  O   UNL     1       5.876   7.533  17.752  0.00  0.00    +0.000 OA
ATOM      9  N   UNL     1       5.046   5.391  17.664  0.00  0.00    +0.000 N 
ATOM     10  C   UNL     1       5.057   4.154  17.042  0.00  0.00    +0.000 A 
ATOM     11  C   UNL     1       5.704   3.966  15.902  0.00  0.00    +0.000 A 
ATOM     12  F   UNL     1       5.891   2.751  15.368  0.00  0.00    +0.000 F 
ATOM     13  H   UNL     1       7.499   5.882  13.869  0.00  0.00    +0.000 HD
ENDROOT
BRANCH   9  14
ATOM     14  C   UNL     1       4.452   5.551  18.982  0.00  0.00    +0.000 C 
ATOM     15  C   UNL     1       3.050   6.052  18.904  0.00  0.00    +0.000 C 
ATOM     16  C   UNL     1       2.213   5.155  19.428  0.00  0.00    +0.000 C 
ATOM     17  C   UNL     1       2.987   4.009  19.980  0.00  0.00    +0.000 C 
ATOM     18  O   UNL     1       4.357   4.242  19.584  0.00  0.00    +0.000 OA
BRANCH  17  19
ATOM     19  C   UNL     1       2.555   2.613  19.507  0.00  0.00    +0.000 C 
BRANCH  19  20
ATOM     20  O   UNL     1       1.965   2.630  18.208  0.00  0.00    +0.000 OA
ATOM     21  H   UNL     1       1.061   2.282  18.328  0.00  0.00    +0.000 HD
ENDBRANCH  19  20
ENDBRANCH  17  19
ENDBRANCH   9  14
TORSDOF 3
ENDMDL
MODEL 9
REMARK VINA RESULT:      -6.4      1.720      1.896
REMARK  Name = 
REMARK  4 active torsions:
REMARK  status: ('A' for Active; 'I' for Inactive)
REMARK    1  A    between atoms: C_1  and  C_2
REMARK    2  A    between atoms: N_9  and  C_10
REMARK    3  A    between atoms: C_13  and  C_14
REMARK    4  A    between atoms: C_14  and  O_15
REMARK                            x       y       z     vdW  Elec       q    Type
REMARK                         _______ _______ _______ _____ _____    ______ ____
ROOT
ATOM      1  C   UNL     1       8.008   5.335  12.182  0.00  0.00    +0.000 C 
ATOM      2  C   UNL     1       7.073   5.041  13.321  0.00  0.00    +0.000 C 
ATOM      3  O   UNL     1       5.908   4.715  13.121  0.00  0.00    +0.000 OA
ATOM      4  N   UNL     1       7.644   5.265  14.564  0.00  0.00    +0.000 N 
ATOM      5  C   UNL     1       7.064   5.022  15.780  0.00  0.00    +0.000 A 
ATOM      6  N   UNL     1       7.434   5.788  16.755  0.00  0.00    +0.000 NA
ATOM      7  C   UNL     1       6.821   5.644  17.989  0.00  0.00    +0.000 A 
ATOM      8  O   UNL     1       7.163   6.349  18.933  0.00  0.00    +0.000 OA
ATOM      9  N   UNL     1       5.789   4.699  18.114  0.00  0.00    +0.000 N 
ATOM     10  C   UNL     1       5.485   3.834  17.075  0.00  0.00    +0.000 A 
ATOM     11  C   UNL     1       6.094   3.931  15.903  0.00  0.00    +0.000 A 
ATOM     12  F   UNL     1       5.963   3.006  14.941  0.00  0.00    +0.000 F 
ATOM     13  H   UNL     1       8.402   5.933  14.605  0.00  0.00    +0.000 HD
ENDROOT
BRANCH   9  14
ATOM     14  C   UNL     1       5.219   4.496  19.436  0.00  0.00    +0.000 C 
ATOM     15  C   UNL     1       3.875   5.128  19.565  0.00  0.00    +0.000 C 
ATOM     16  C   UNL     1       2.952   4.197  19.814  0.00  0.00    +0.000 C 
ATOM     17  C   UNL     1       3.608   2.867  19.957  0.00  0.00    +0.000 C 
ATOM     18  O   UNL     1       4.993   3.080  19.605  0.00  0.00    +0.000 OA
BRANCH  17  19
ATOM     19  C   UNL     1       3.034   1.736  19.090  0.00  0.00    +0.000 C 
BRANCH  19  20
ATOM     20  O   UNL     1       4.046   0.883  18.558  0.00  0.00    +0.000 OA
ATOM     21  H   UNL     1       4.730   1.481  18.202  0.00  0.00    +0.000 HD
ENDBRANCH  19  20
ENDBRANCH  17  19
ENDBRANCH   9  14
TORSDOF 3
ENDMDL
