MODEL 1
REMARK VINA RESULT:      -8.5      0.000      0.000
REMARK  Name = 
REMARK  6 active torsions:
REMARK  status: ('A' for Active; 'I' for Inactive)
REMARK    1  A    between atoms: C_1  and  C_2
REMARK    2  A    between atoms: C_2  and  C_3
REMARK    3  A    between atoms: C_5  and  N_6
REMARK    4  A    between atoms: C_7  and  C_9
REMARK    5  A    between atoms: C_20  and  C_21
REMARK    6  A    between atoms: C_20  and  C_22
REMARK                            x       y       z     vdW  Elec       q    Type
REMARK                         _______ _______ _______ _____ _____    ______ ____
ROOT
ATOM      1  N   UNL     1       2.038   8.439  17.831  0.00  0.00    +0.000 N 
ATOM      2  C   UNL     1       2.486   7.406  18.637  0.00  0.00    +0.000 C 
ATOM      3  O   UNL     1       2.387   7.447  19.859  0.00  0.00    +0.000 OA
ATOM      4  H   UNL     1       1.953   8.288  16.835  0.00  0.00    +0.000 HD
ENDROOT
BRANCH   1   9
ATOM      5  C   UNL     1      -2.044  11.220  17.547  0.00  0.00    +0.000 C 
ATOM      6  C   UNL     1      -0.777  10.980  18.401  0.00  0.00    +0.000 C 
ATOM      7  C   UNL     1      -1.269  10.729  19.837  0.00  0.00    +0.000 C 
ATOM      8  C   UNL     1      -0.043   9.750  17.832  0.00  0.00    +0.000 C 
ATOM      9  C   UNL     1       1.365   9.602  18.410  0.00  0.00    +0.000 C 
ATOM     10  C   UNL     1       2.159  10.878  18.134  0.00  0.00    +0.000 C 
ATOM     11  C   UNL     1       1.462  12.130  18.700  0.00  0.00    +0.000 C 
ATOM     12  C   UNL     1       2.154  13.379  18.107  0.00  0.00    +0.000 C 
ATOM     13  C   UNL     1       1.639  12.231  20.227  0.00  0.00    +0.000 C 
ATOM     14  N   UNL     1       0.043  12.205  18.298  0.00  0.00    +0.000 NA
ATOM     15  H   UNL     1       0.001  12.533  17.331  0.00  0.00    +0.000 HD
ENDBRANCH   1   9
BRANCH   2  16
ATOM     16  C   UNL     1       3.123   6.235  17.946  0.00  0.00    +0.000 A 
ATOM     17  C   UNL     1       4.270   6.479  17.164  0.00  0.00    +0.000 A 
ATOM     18  C   UNL     1       4.945   5.431  16.546  0.00  0.00    +0.000 A 
ATOM     19  C   UNL     1       4.494   4.125  16.714  0.00  0.00    +0.000 A 
ATOM     20  C   UNL     1       3.365   3.843  17.497  0.00  0.00    +0.000 A 
ATOM     21  C   UNL     1       2.956   2.508  17.663  0.00  0.00    +0.000 A 
ATOM     22  C   UNL     1       1.844   2.186  18.437  0.00  0.00    +0.000 A 
ATOM     23  C   UNL     1       1.114   3.197  19.040  0.00  0.00    +0.000 A 
ATOM     24  C   UNL     1       1.504   4.529  18.879  0.00  0.00    +0.000 A 
ATOM     25  C   UNL     1       2.646   4.900  18.123  0.00  0.00    +0.000 A 
ENDBRANCH   2  16
TORSDOF 2
ENDMDL
MODEL 2
REMARK VINA RESULT:      -8.1      0.791      2.504
REMARK  Name = 
REMARK  6 active torsions:
REMARK  status: ('A' for Active; 'I' for Inactive)
REMARK    1  A    between atoms: C_1  and  C_2
REMARK    2  A    between atoms: C_2  and  C_3
REMARK    3  A    between atoms: C_5  and  N_6
REMARK    4  A    between atoms: C_7  and  C_9
REMARK    5  A    between atoms: C_20  and  C_21
REMARK    6  A    between atoms: C_20  and  C_22
REMARK                            x       y       z     vdW  Elec       q    Type
REMARK                         _______ _______ _______ _____ _____    ______ ____
ROOT
ATOM      1  N   UNL     1       1.788   8.353  17.987  0.00  0.00    +0.000 N 
ATOM      2  C   UNL     1       2.228   7.363  18.850  0.00  0.00    +0.000 C 
ATOM      3  O   UNL     1       2.228   7.518  20.066  0.00  0.00    +0.000 OA
ATOM      4  H   UNL     1       1.615   8.123  17.018  0.00  0.00    +0.000 HD
ENDROOT
BRANCH   1   9
ATOM      5  C   UNL     1      -2.001  11.509  17.580  0.00  0.00    +0.000 C 
ATOM      6  C   UNL     1      -0.751  11.192  18.434  0.00  0.00    +0.000 C 
ATOM      7  C   UNL     1      -1.242  11.074  19.888  0.00  0.00    +0.000 C 
ATOM      8  C   UNL     1      -0.151   9.864  17.932  0.00  0.00    +0.000 C 
ATOM      9  C   UNL     1       1.244   9.609  18.503  0.00  0.00    +0.000 C 
ATOM     10  C   UNL     1       2.156  10.781  18.145  0.00  0.00    +0.000 C 
ATOM     11  C   UNL     1       1.596  12.127  18.644  0.00  0.00    +0.000 C 
ATOM     12  C   UNL     1       2.400  13.265  17.972  0.00  0.00    +0.000 C 
ATOM     13  C   UNL     1       1.806  12.297  20.160  0.00  0.00    +0.000 C 
ATOM     14  N   UNL     1       0.185  12.321  18.252  0.00  0.00    +0.000 NA
ATOM     15  H   UNL     1       0.161  12.596  17.268  0.00  0.00    +0.000 HD
ENDBRANCH   1   9
BRANCH   2  16
ATOM     16  C   UNL     1       2.727   6.093  18.225  0.00  0.00    +0.000 A 
ATOM     17  C   UNL     1       1.843   4.997  18.170  0.00  0.00    +0.000 A 
ATOM     18  C   UNL     1       2.220   3.810  17.550  0.00  0.00    +0.000 A 
ATOM     19  C   UNL     1       3.477   3.707  16.963  0.00  0.00    +0.000 A 
ATOM     20  C   UNL     1       4.377   4.782  16.984  0.00  0.00    +0.000 A 
ATOM     21  C   UNL     1       5.629   4.647  16.357  0.00  0.00    +0.000 A 
ATOM     22  C   UNL     1       6.548   5.694  16.352  0.00  0.00    +0.000 A 
ATOM     23  C   UNL     1       6.236   6.882  16.990  0.00  0.00    +0.000 A 
ATOM     24  C   UNL     1       4.999   7.029  17.624  0.00  0.00    +0.000 A 
ATOM     25  C   UNL     1       4.023   6.000  17.630  0.00  0.00    +0.000 A 
ENDBRANCH   2  16
TORSDOF 2
ENDMDL
MODEL 3
REMARK VINA RESULT:      -8.1      2.146      7.583
REMARK  Name = 
REMARK  6 active torsions:
REMARK  status: ('A' for Active; 'I' for Inactive)
REMARK    1  A    between atoms: C_1  and  C_2
REMARK    2  A    between atoms: C_2  and  C_3
REMARK    3  A    between atoms: C_5  and  N_6
REMARK    4  A    between atoms: C_7  and  C_9
REMARK    5  A    between atoms: C_20  and  C_21
REMARK    6  A    between atoms: C_20  and  C_22
REMARK                            x       y       z     vdW  Elec       q    Type
REMARK                         _______ _______ _______ _____ _____    ______ ____
ROOT
ATOM      1  N   UNL     1       2.932   7.077  18.279  0.00  0.00    +0.000 N 
ATOM      2  C   UNL     1       2.214   7.408  19.415  0.00  0.00    +0.000 C 
ATOM      3  O   UNL     1       2.215   6.696  20.413  0.00  0.00    +0.000 OA
ATOM      4  H   UNL     1       3.069   7.774  17.559  0.00  0.00    +0.000 HD
ENDROOT
BRANCH   1   9
ATOM      5  C   UNL     1       6.277   4.640  15.567  0.00  0.00    +0.000 C 
ATOM      6  C   UNL     1       5.602   4.662  16.959  0.00  0.00    +0.000 C 
ATOM      7  C   UNL     1       6.745   4.715  17.989  0.00  0.00    +0.000 C 
ATOM      8  C   UNL     1       4.712   5.917  17.039  0.00  0.00    +0.000 C 
ATOM      9  C   UNL     1       3.776   5.882  18.249  0.00  0.00    +0.000 C 
ATOM     10  C   UNL     1       2.921   4.618  18.187  0.00  0.00    +0.000 C 
ATOM     11  C   UNL     1       3.778   3.339  18.119  0.00  0.00    +0.000 C 
ATOM     12  C   UNL     1       2.855   2.157  17.741  0.00  0.00    +0.000 C 
ATOM     13  C   UNL     1       4.375   2.988  19.495  0.00  0.00    +0.000 C 
ATOM     14  N   UNL     1       4.811   3.418  17.067  0.00  0.00    +0.000 NA
ATOM     15  H   UNL     1       4.363   3.249  16.165  0.00  0.00    +0.000 HD
ENDBRANCH   1   9
BRANCH   2  16
ATOM     16  C   UNL     1       1.413   8.677  19.364  0.00  0.00    +0.000 A 
ATOM     17  C   UNL     1       1.197   9.267  18.102  0.00  0.00    +0.000 A 
ATOM     18  C   UNL     1       0.413  10.409  17.975  0.00  0.00    +0.000 A 
ATOM     19  C   UNL     1      -0.179  10.968  19.104  0.00  0.00    +0.000 A 
ATOM     20  C   UNL     1       0.001  10.400  20.373  0.00  0.00    +0.000 A 
ATOM     21  C   UNL     1      -0.635  10.980  21.485  0.00  0.00    +0.000 A 
ATOM     22  C   UNL     1      -0.485  10.443  22.762  0.00  0.00    +0.000 A 
ATOM     23  C   UNL     1       0.318   9.331  22.947  0.00  0.00    +0.000 A 
ATOM     24  C   UNL     1       0.962   8.747  21.852  0.00  0.00    +0.000 A 
ATOM     25  C   UNL     1       0.815   9.244  20.531  0.00  0.00    +0.000 A 
ENDBRANCH   2  16
TORSDOF 2
ENDMDL
MODEL 4
REMARK VINA RESULT:      -8.0      2.257      7.420
REMARK  Name = 
REMARK  6 active torsions:
REMARK  status: ('A' for Active; 'I' for Inactive)
REMARK    1  A    between atoms: C_1  and  C_2
REMARK    2  A    between atoms: C_2  and  C_3
REMARK    3  A    between atoms: C_5  and  N_6
REMARK    4  A    between atoms: C_7  and  C_9
REMARK    5  A    between atoms: C_20  and  C_21
REMARK    6  A    between atoms: C_20  and  C_22
REMARK                            x       y       z     vdW  Elec       q    Type
REMARK                         _______ _______ _______ _____ _____    ______ ____
ROOT
ATOM      1  N   UNL     1       1.934   7.524  19.893  0.00  0.00    +0.000 N 
ATOM      2  C   UNL     1       1.642   8.480  18.935  0.00  0.00    +0.000 C 
ATOM      3  O   UNL     1       1.692   8.231  17.736  0.00  0.00    +0.000 OA
ATOM      4  H   UNL     1       1.692   7.701  20.859  0.00  0.00    +0.000 HD
ENDROOT
BRANCH   1   9
ATOM      5  C   UNL     1       2.193   2.877  21.572  0.00  0.00    +0.000 C 
ATOM      6  C   UNL     1       2.272   3.724  20.281  0.00  0.00    +0.000 C 
ATOM      7  C   UNL     1       1.242   3.122  19.309  0.00  0.00    +0.000 C 
ATOM      8  C   UNL     1       1.924   5.181  20.641  0.00  0.00    +0.000 C 
ATOM      9  C   UNL     1       2.257   6.151  19.507  0.00  0.00    +0.000 C 
ATOM     10  C   UNL     1       3.738   6.023  19.155  0.00  0.00    +0.000 C 
ATOM     11  C   UNL     1       4.124   4.580  18.775  0.00  0.00    +0.000 C 
ATOM     12  C   UNL     1       5.667   4.481  18.750  0.00  0.00    +0.000 C 
ATOM     13  C   UNL     1       3.652   4.229  17.351  0.00  0.00    +0.000 C 
ATOM     14  N   UNL     1       3.655   3.600  19.775  0.00  0.00    +0.000 NA
ATOM     15  H   UNL     1       4.289   3.632  20.576  0.00  0.00    +0.000 HD
ENDBRANCH   1   9
BRANCH   2  16
ATOM     16  C   UNL     1       1.278   9.849  19.433  0.00  0.00    +0.000 A 
ATOM     17  C   UNL     1       1.588  10.951  18.612  0.00  0.00    +0.000 A 
ATOM     18  C   UNL     1       1.224  12.241  18.984  0.00  0.00    +0.000 A 
ATOM     19  C   UNL     1       0.531  12.446  20.173  0.00  0.00    +0.000 A 
ATOM     20  C   UNL     1       0.191  11.372  21.009  0.00  0.00    +0.000 A 
ATOM     21  C   UNL     1      -0.532  11.618  22.189  0.00  0.00    +0.000 A 
ATOM     22  C   UNL     1      -0.893  10.578  23.043  0.00  0.00    +0.000 A 
ATOM     23  C   UNL     1      -0.519   9.280  22.737  0.00  0.00    +0.000 A 
ATOM     24  C   UNL     1       0.205   9.021  21.570  0.00  0.00    +0.000 A 
ATOM     25  C   UNL     1       0.570  10.045  20.659  0.00  0.00    +0.000 A 
ENDBRANCH   2  16
TORSDOF 2
ENDMDL
MODEL 5
REMARK VINA RESULT:      -7.7      2.237      7.628
REMARK  Name = 
REMARK  6 active torsions:
REMARK  status: ('A' for Active; 'I' for Inactive)
REMARK    1  A    between atoms: C_1  and  C_2
REMARK    2  A    between atoms: C_2  and  C_3
REMARK    3  A    between atoms: C_5  and  N_6
REMARK    4  A    between atoms: C_7  and  C_9
REMARK    5  A    between atoms: C_20  and  C_21
REMARK    6  A    between atoms: C_20  and  C_22
REMARK                            x       y       z     vdW  Elec       q    Type
REMARK                         _______ _______ _______ _____ _____    ______ ____
ROOT
ATOM      1  N   UNL     1       2.255   6.738  19.950  0.00  0.00    +0.000 N 
ATOM      2  C   UNL     1       1.875   7.999  19.520  0.00  0.00    +0.000 C 
ATOM      3  O   UNL     1       2.186   8.427  18.414  0.00  0.00    +0.000 OA
ATOM      4  H   UNL     1       1.820   6.344  20.773  0.00  0.00    +0.000 HD
ENDROOT
BRANCH   1   9
ATOM      5  C   UNL     1       3.323   1.981  19.110  0.00  0.00    +0.000 C 
ATOM      6  C   UNL     1       3.465   3.398  18.507  0.00  0.00    +0.000 C 
ATOM      7  C   UNL     1       2.865   3.325  17.091  0.00  0.00    +0.000 C 
ATOM      8  C   UNL     1       2.683   4.380  19.401  0.00  0.00    +0.000 C 
ATOM      9  C   UNL     1       2.998   5.839  19.068  0.00  0.00    +0.000 C 
ATOM     10  C   UNL     1       4.502   6.071  19.200  0.00  0.00    +0.000 C 
ATOM     11  C   UNL     1       5.319   5.116  18.309  0.00  0.00    +0.000 C 
ATOM     12  C   UNL     1       6.802   5.200  18.741  0.00  0.00    +0.000 C 
ATOM     13  C   UNL     1       5.281   5.553  16.833  0.00  0.00    +0.000 C 
ATOM     14  N   UNL     1       4.910   3.708  18.484  0.00  0.00    +0.000 NA
ATOM     15  H   UNL     1       5.321   3.361  19.353  0.00  0.00    +0.000 HD
ENDBRANCH   1   9
BRANCH   2  16
ATOM     16  C   UNL     1       1.077   8.830  20.482  0.00  0.00    +0.000 A 
ATOM     17  C   UNL     1       1.292   8.628  21.860  0.00  0.00    +0.000 A 
ATOM     18  C   UNL     1       0.632   9.407  22.805  0.00  0.00    +0.000 A 
ATOM     19  C   UNL     1      -0.240  10.408  22.387  0.00  0.00    +0.000 A 
ATOM     20  C   UNL     1      -0.467  10.648  21.024  0.00  0.00    +0.000 A 
ATOM     21  C   UNL     1      -1.335  11.686  20.641  0.00  0.00    +0.000 A 
ATOM     22  C   UNL     1      -1.583  11.960  19.298  0.00  0.00    +0.000 A 
ATOM     23  C   UNL     1      -0.981  11.187  18.320  0.00  0.00    +0.000 A 
ATOM     24  C   UNL     1      -0.120  10.148  18.684  0.00  0.00    +0.000 A 
ATOM     25  C   UNL     1       0.181   9.852  20.038  0.00  0.00    +0.000 A 
ENDBRANCH   2  16
TORSDOF 2
ENDMDL
MODEL 6
REMARK VINA RESULT:      -7.6      2.289      7.355
REMARK  Name = 
REMARK  6 active torsions:
REMARK  status: ('A' for Active; 'I' for Inactive)
REMARK    1  A    between atoms: C_1  and  C_2
REMARK    2  A    between atoms: C_2  and  C_3
REMARK    3  A    between atoms: C_5  and  N_6
REMARK    4  A    between atoms: C_7  and  C_9
REMARK    5  A    between atoms: C_20  and  C_21
REMARK    6  A    between atoms: C_20  and  C_22
REMARK                            x       y       z     vdW  Elec       q    Type
REMARK                         _______ _______ _______ _____ _____    ______ ____
ROOT
ATOM      1  N   UNL     1       3.495   7.274  18.607  0.00  0.00    +0.000 N 
ATOM      2  C   UNL     1       2.220   7.705  18.282  0.00  0.00    +0.000 C 
ATOM      3  O   UNL     1       1.462   7.027  17.597  0.00  0.00    +0.000 OA
ATOM      4  H   UNL     1       4.013   7.759  19.327  0.00  0.00    +0.000 HD
ENDROOT
BRANCH   1   9
ATOM      5  C   UNL     1       4.060   2.599  20.123  0.00  0.00    +0.000 C 
ATOM      6  C   UNL     1       4.150   3.505  18.873  0.00  0.00    +0.000 C 
ATOM      7  C   UNL     1       3.247   2.858  17.808  0.00  0.00    +0.000 C 
ATOM      8  C   UNL     1       3.647   4.909  19.262  0.00  0.00    +0.000 C 
ATOM      9  C   UNL     1       3.967   5.953  18.192  0.00  0.00    +0.000 C 
ATOM     10  C   UNL     1       5.474   5.971  17.943  0.00  0.00    +0.000 C 
ATOM     11  C   UNL     1       6.014   4.585  17.537  0.00  0.00    +0.000 C 
ATOM     12  C   UNL     1       7.558   4.624  17.619  0.00  0.00    +0.000 C 
ATOM     13  C   UNL     1       5.674   4.257  16.071  0.00  0.00    +0.000 C 
ATOM     14  N   UNL     1       5.570   3.525  18.463  0.00  0.00    +0.000 NA
ATOM     15  H   UNL     1       6.142   3.577  19.308  0.00  0.00    +0.000 HD
ENDBRANCH   1   9
BRANCH   2  16
ATOM     16  C   UNL     1       1.812   9.057  18.791  0.00  0.00    +0.000 A 
ATOM     17  C   UNL     1       2.070  10.173  17.970  0.00  0.00    +0.000 A 
ATOM     18  C   UNL     1       1.663  11.447  18.354  0.00  0.00    +0.000 A 
ATOM     19  C   UNL     1       0.979  11.621  19.553  0.00  0.00    +0.000 A 
ATOM     20  C   UNL     1       0.691  10.532  20.387  0.00  0.00    +0.000 A 
ATOM     21  C   UNL     1      -0.025  10.746  21.579  0.00  0.00    +0.000 A 
ATOM     22  C   UNL     1      -0.336   9.689  22.432  0.00  0.00    +0.000 A 
ATOM     23  C   UNL     1       0.082   8.408  22.115  0.00  0.00    +0.000 A 
ATOM     24  C   UNL     1       0.800   8.180  20.938  0.00  0.00    +0.000 A 
ATOM     25  C   UNL     1       1.114   9.222  20.027  0.00  0.00    +0.000 A 
ENDBRANCH   2  16
TORSDOF 2
ENDMDL
MODEL 7
REMARK VINA RESULT:      -7.6      1.052      2.456
REMARK  Name = 
REMARK  6 active torsions:
REMARK  status: ('A' for Active; 'I' for Inactive)
REMARK    1  A    between atoms: C_1  and  C_2
REMARK    2  A    between atoms: C_2  and  C_3
REMARK    3  A    between atoms: C_5  and  N_6
REMARK    4  A    between atoms: C_7  and  C_9
REMARK    5  A    between atoms: C_20  and  C_21
REMARK    6  A    between atoms: C_20  and  C_22
REMARK                            x       y       z     vdW  Elec       q    Type
REMARK                         _______ _______ _______ _____ _____    ______ ____
ROOT
ATOM      1  N   UNL     1       1.521   8.522  18.909  0.00  0.00    +0.000 N 
ATOM      2  C   UNL     1       1.841   7.711  19.985  0.00  0.00    +0.000 C 
ATOM      3  O   UNL     1       1.771   8.112  21.141  0.00  0.00    +0.000 OA
ATOM      4  H   UNL     1       1.398   8.107  17.995  0.00  0.00    +0.000 HD
ENDROOT
BRANCH   1   9
ATOM      5  C   UNL     1      -2.065  11.683  17.634  0.00  0.00    +0.000 C 
ATOM      6  C   UNL     1      -0.876  11.500  18.605  0.00  0.00    +0.000 C 
ATOM      7  C   UNL     1      -1.439  11.716  20.021  0.00  0.00    +0.000 C 
ATOM      8  C   UNL     1      -0.328  10.071  18.427  0.00  0.00    +0.000 C 
ATOM      9  C   UNL     1       1.023   9.882  19.118  0.00  0.00    +0.000 C 
ATOM     10  C   UNL     1       2.014  10.910  18.575  0.00  0.00    +0.000 C 
ATOM     11  C   UNL     1       1.507  12.355  18.746  0.00  0.00    +0.000 C 
ATOM     12  C   UNL     1       2.402  13.287  17.897  0.00  0.00    +0.000 C 
ATOM     13  C   UNL     1       1.656  12.833  20.203  0.00  0.00    +0.000 C 
ATOM     14  N   UNL     1       0.129  12.522  18.243  0.00  0.00    +0.000 NA
ATOM     15  H   UNL     1       0.165  12.583  17.224  0.00  0.00    +0.000 HD
ENDBRANCH   1   9
BRANCH   2  16
ATOM     16  C   UNL     1       2.300   6.317  19.669  0.00  0.00    +0.000 A 
ATOM     17  C   UNL     1       1.752   5.259  20.421  0.00  0.00    +0.000 A 
ATOM     18  C   UNL     1       2.086   3.939  20.140  0.00  0.00    +0.000 A 
ATOM     19  C   UNL     1       2.960   3.656  19.094  0.00  0.00    +0.000 A 
ATOM     20  C   UNL     1       3.513   4.682  18.314  0.00  0.00    +0.000 A 
ATOM     21  C   UNL     1       4.372   4.353  17.250  0.00  0.00    +0.000 A 
ATOM     22  C   UNL     1       4.937   5.343  16.449  0.00  0.00    +0.000 A 
ATOM     23  C   UNL     1       4.667   6.675  16.713  0.00  0.00    +0.000 A 
ATOM     24  C   UNL     1       3.821   7.017  17.771  0.00  0.00    +0.000 A 
ATOM     25  C   UNL     1       3.202   6.042  18.595  0.00  0.00    +0.000 A 
ENDBRANCH   2  16
TORSDOF 2
ENDMDL
MODEL 8
REMARK VINA RESULT:      -7.5      2.294      7.807
REMARK  Name = 
REMARK  6 active torsions:
REMARK  status: ('A' for Active; 'I' for Inactive)
REMARK    1  A    between atoms: C_1  and  C_2
REMARK    2  A    between atoms: C_2  and  C_3
REMARK    3  A    between atoms: C_5  and  N_6
REMARK    4  A    between atoms: C_7  and  C_9
REMARK    5  A    between atoms: C_20  and  C_21
REMARK    6  A    between atoms: C_20  and  C_22
REMARK                            x       y       z     vdW  Elec       q    Type
REMARK                         _______ _______ _______ _____ _____    ______ ____
ROOT
ATOM      1  N   UNL     1       2.724   6.633  19.902  0.00  0.00    +0.000 N 
ATOM      2  C   UNL     1       2.059   7.662  19.257  0.00  0.00    +0.000 C 
ATOM      3  O   UNL     1       2.083   7.784  18.037  0.00  0.00    +0.000 OA
ATOM      4  H   UNL     1       2.522   6.447  20.875  0.00  0.00    +0.000 HD
ENDROOT
BRANCH   1   9
ATOM      5  C   UNL     1       4.404   1.983  20.096  0.00  0.00    +0.000 C 
ATOM      6  C   UNL     1       4.195   3.176  19.134  0.00  0.00    +0.000 C 
ATOM      7  C   UNL     1       3.371   2.636  17.952  0.00  0.00    +0.000 C 
ATOM      8  C   UNL     1       3.434   4.278  19.896  0.00  0.00    +0.000 C 
ATOM      9  C   UNL     1       3.435   5.607  19.139  0.00  0.00    +0.000 C 
ATOM     10  C   UNL     1       4.878   6.034  18.874  0.00  0.00    +0.000 C 
ATOM     11  C   UNL     1       5.670   4.961  18.101  0.00  0.00    +0.000 C 
ATOM     12  C   UNL     1       7.170   5.330  18.161  0.00  0.00    +0.000 C 
ATOM     13  C   UNL     1       5.293   4.952  16.608  0.00  0.00    +0.000 C 
ATOM     14  N   UNL     1       5.540   3.625  18.717  0.00  0.00    +0.000 NA
ATOM     15  H   UNL     1       6.153   3.588  19.534  0.00  0.00    +0.000 HD
ENDBRANCH   1   9
BRANCH   2  16
ATOM     16  C   UNL     1       1.321   8.639  20.125  0.00  0.00    +0.000 A 
ATOM     17  C   UNL     1       0.784   8.165  21.338  0.00  0.00    +0.000 A 
ATOM     18  C   UNL     1       0.141   9.030  22.218  0.00  0.00    +0.000 A 
ATOM     19  C   UNL     1       0.041  10.383  21.906  0.00  0.00    +0.000 A 
ATOM     20  C   UNL     1       0.577  10.893  20.715  0.00  0.00    +0.000 A 
ATOM     21  C   UNL     1       0.477  12.270  20.448  0.00  0.00    +0.000 A 
ATOM     22  C   UNL     1       1.001  12.817  19.279  0.00  0.00    +0.000 A 
ATOM     23  C   UNL     1       1.615  11.992  18.353  0.00  0.00    +0.000 A 
ATOM     24  C   UNL     1       1.716  10.620  18.600  0.00  0.00    +0.000 A 
ATOM     25  C   UNL     1       1.221  10.025  19.789  0.00  0.00    +0.000 A 
ENDBRANCH   2  16
TORSDOF 2
ENDMDL
MODEL 9
REMARK VINA RESULT:      -7.4      2.039      7.327
REMARK  Name = 
REMARK  6 active torsions:
REMARK  status: ('A' for Active; 'I' for Inactive)
REMARK    1  A    between atoms: C_1  and  C_2
REMARK    2  A    between atoms: C_2  and  C_3
REMARK    3  A    between atoms: C_5  and  N_6
REMARK    4  A    between atoms: C_7  and  C_9
REMARK    5  A    between atoms: C_20  and  C_21
REMARK    6  A    between atoms: C_20  and  C_22
REMARK                            x       y       z     vdW  Elec       q    Type
REMARK                         _______ _______ _______ _____ _____    ______ ____
ROOT
ATOM      1  N   UNL     1       2.052   7.730  18.886  0.00  0.00    +0.000 N 
ATOM      2  C   UNL     1       1.686   8.919  18.279  0.00  0.00    +0.000 C 
ATOM      3  O   UNL     1       2.125   9.248  17.182  0.00  0.00    +0.000 OA
ATOM      4  H   UNL     1       1.526   7.400  19.684  0.00  0.00    +0.000 HD
ENDROOT
BRANCH   1   9
ATOM      5  C   UNL     1       4.328   3.364  19.374  0.00  0.00    +0.000 C 
ATOM      6  C   UNL     1       4.016   4.480  18.350  0.00  0.00    +0.000 C 
ATOM      7  C   UNL     1       3.340   3.788  17.153  0.00  0.00    +0.000 C 
ATOM      8  C   UNL     1       3.071   5.496  19.022  0.00  0.00    +0.000 C 
ATOM      9  C   UNL     1       2.936   6.783  18.207  0.00  0.00    +0.000 C 
ATOM     10  C   UNL     1       4.321   7.393  17.998  0.00  0.00    +0.000 C 
ATOM     11  C   UNL     1       5.293   6.410  17.315  0.00  0.00    +0.000 C 
ATOM     12  C   UNL     1       6.724   6.983  17.434  0.00  0.00    +0.000 C 
ATOM     13  C   UNL     1       5.006   6.293  15.806  0.00  0.00    +0.000 C 
ATOM     14  N   UNL     1       5.309   5.093  17.983  0.00  0.00    +0.000 NA
ATOM     15  H   UNL     1       5.875   5.171  18.830  0.00  0.00    +0.000 HD
ENDBRANCH   1   9
BRANCH   2  16
ATOM     16  C   UNL     1       0.738   9.803  19.036  0.00  0.00    +0.000 A 
ATOM     17  C   UNL     1       1.174  10.329  20.269  0.00  0.00    +0.000 A 
ATOM     18  C   UNL     1       0.370  11.204  20.993  0.00  0.00    +0.000 A 
ATOM     19  C   UNL     1      -0.872  11.578  20.488  0.00  0.00    +0.000 A 
ATOM     20  C   UNL     1      -1.332  11.087  19.257  0.00  0.00    +0.000 A 
ATOM     21  C   UNL     1      -2.581  11.509  18.770  0.00  0.00    +0.000 A 
ATOM     22  C   UNL     1      -3.071  11.049  17.550  0.00  0.00    +0.000 A 
ATOM     23  C   UNL     1      -2.327  10.145  16.810  0.00  0.00    +0.000 A 
ATOM     24  C   UNL     1      -1.086   9.711  17.285  0.00  0.00    +0.000 A 
ATOM     25  C   UNL     1      -0.537  10.175  18.508  0.00  0.00    +0.000 A 
ENDBRANCH   2  16
TORSDOF 2
ENDMDL
