MODEL 1
REMARK VINA RESULT:      -8.1      0.000      0.000
REMARK  Name = 
REMARK  7 active torsions:
REMARK  status: ('A' for Active; 'I' for Inactive)
REMARK    1  A    between atoms: C_1  and  C_2
REMARK    2  A    between atoms: C_2  and  N_3
REMARK    3  A    between atoms: C_2  and  C_22
REMARK    4  A    between atoms: C_4  and  C_6
REMARK    5  A    between atoms: C_6  and  C_7
REMARK    6  A    between atoms: C_7  and  N_8
REMARK    7  A    between atoms: C_10  and  C_11
REMARK                            x       y       z     vdW  Elec       q    Type
REMARK                         _______ _______ _______ _____ _____    ______ ____
ROOT
ATOM      1  C   UNL     1       2.543   5.998  20.423  0.00  0.00    +0.000 C 
ENDROOT
BRANCH   1   2
ATOM      2  N   UNL     1       2.113   7.278  19.861  0.00  0.00    +0.000 N 
ATOM      3  N   UNL     1       1.281   8.045  20.652  0.00  0.00    +0.000 NA
ATOM      4  C   UNL     1       0.854   9.172  20.176  0.00  0.00    +0.000 A 
ATOM      5  C   UNL     1       1.198   9.685  18.831  0.00  0.00    +0.000 A 
ATOM      6  C   UNL     1       2.004   8.930  18.084  0.00  0.00    +0.000 A 
ATOM      7  C   UNL     1       2.516   7.639  18.583  0.00  0.00    +0.000 A 
ATOM      8  O   UNL     1       3.245   6.969  17.855  0.00  0.00    +0.000 OA
BRANCH   4   9
ATOM      9  C   UNL     1      -0.018  10.032  21.028  0.00  0.00    +0.000 A 
ATOM     10  C   UNL     1      -0.624  11.156  20.446  0.00  0.00    +0.000 A 
ATOM     11  C   UNL     1      -1.432  12.000  21.212  0.00  0.00    +0.000 A 
ATOM     12  C   UNL     1      -1.630  11.727  22.564  0.00  0.00    +0.000 A 
ATOM     13 CL   UNL     1      -2.604  12.778  23.516  0.00  0.00    +0.000 Cl
ATOM     14  C   UNL     1      -1.033  10.614  23.155  0.00  0.00    +0.000 A 
ATOM     15  C   UNL     1      -0.224   9.767  22.390  0.00  0.00    +0.000 A 
ENDBRANCH   4   9
ENDBRANCH   1   2
BRANCH   1  16
ATOM     16  C   UNL     1       1.486   4.911  20.240  0.00  0.00    +0.000 C 
BRANCH  16  18
ATOM     17  N   UNL     1       3.120   4.113  18.622  0.00  0.00    +0.000 N 
ATOM     18  C   UNL     1       1.799   4.060  19.029  0.00  0.00    +0.000 C 
ATOM     19  O   UNL     1       0.958   3.371  18.461  0.00  0.00    +0.000 OA
ATOM     20  H   UNL     1       3.782   4.688  19.125  0.00  0.00    +0.000 HD
BRANCH  17  22
ATOM     21  C   UNL     1       3.747   1.817  17.955  0.00  0.00    +0.000 C 
ATOM     22  C   UNL     1       3.595   3.281  17.528  0.00  0.00    +0.000 C 
BRANCH  22  23
ATOM     23  C   UNL     1       4.888   3.804  16.926  0.00  0.00    +0.000 A 
ATOM     24  C   UNL     1       5.881   4.319  17.776  0.00  0.00    +0.000 A 
ATOM     25  C   UNL     1       7.020   4.937  17.255  0.00  0.00    +0.000 A 
ATOM     26  C   UNL     1       7.189   5.036  15.877  0.00  0.00    +0.000 A 
ATOM     27  C   UNL     1       6.236   4.493  15.019  0.00  0.00    +0.000 A 
ATOM     28  C   UNL     1       5.096   3.872  15.539  0.00  0.00    +0.000 A 
ENDBRANCH  22  23
ENDBRANCH  17  22
ENDBRANCH  16  18
ENDBRANCH   1  16
TORSDOF 6
ENDMDL
MODEL 2
REMARK VINA RESULT:      -7.8      2.877      4.975
REMARK  Name = 
REMARK  7 active torsions:
REMARK  status: ('A' for Active; 'I' for Inactive)
REMARK    1  A    between atoms: C_1  and  C_2
REMARK    2  A    between atoms: C_2  and  N_3
REMARK    3  A    between atoms: C_2  and  C_22
REMARK    4  A    between atoms: C_4  and  C_6
REMARK    5  A    between atoms: C_6  and  C_7
REMARK    6  A    between atoms: C_7  and  N_8
REMARK    7  A    between atoms: C_10  and  C_11
REMARK                            x       y       z     vdW  Elec       q    Type
REMARK                         _______ _______ _______ _____ _____    ______ ____
ROOT
ATOM      1  C   UNL     1       6.050   5.337  18.286  0.00  0.00    +0.000 C 
ENDROOT
BRANCH   1   2
ATOM      2  N   UNL     1       4.674   5.281  18.779  0.00  0.00    +0.000 N 
ATOM      3  N   UNL     1       3.986   6.477  18.808  0.00  0.00    +0.000 NA
ATOM      4  C   UNL     1       2.774   6.473  19.267  0.00  0.00    +0.000 A 
ATOM      5  C   UNL     1       2.083   5.263  19.768  0.00  0.00    +0.000 A 
ATOM      6  C   UNL     1       2.764   4.119  19.729  0.00  0.00    +0.000 A 
ATOM      7  C   UNL     1       4.147   4.073  19.215  0.00  0.00    +0.000 A 
ATOM      8  O   UNL     1       4.743   2.998  19.210  0.00  0.00    +0.000 OA
BRANCH   4   9
ATOM      9  C   UNL     1       2.001   7.749  19.276  0.00  0.00    +0.000 A 
ATOM     10  C   UNL     1       1.862   8.457  18.073  0.00  0.00    +0.000 A 
ATOM     11  C   UNL     1       1.164   9.667  18.041  0.00  0.00    +0.000 A 
ATOM     12  C   UNL     1       0.609  10.176  19.214  0.00  0.00    +0.000 A 
ATOM     13 CL   UNL     1      -0.230  11.678  19.183  0.00  0.00    +0.000 Cl
ATOM     14  C   UNL     1       0.741   9.483  20.417  0.00  0.00    +0.000 A 
ATOM     15  C   UNL     1       1.439   8.271  20.451  0.00  0.00    +0.000 A 
ENDBRANCH   4   9
ENDBRANCH   1   2
BRANCH   1  16
ATOM     16  C   UNL     1       6.141   6.023  16.925  0.00  0.00    +0.000 C 
BRANCH  16  18
ATOM     17  N   UNL     1       6.599   5.358  14.629  0.00  0.00    +0.000 N 
ATOM     18  C   UNL     1       6.944   5.182  15.956  0.00  0.00    +0.000 C 
ATOM     19  O   UNL     1       7.834   4.416  16.314  0.00  0.00    +0.000 OA
ATOM     20  H   UNL     1       5.866   6.006  14.377  0.00  0.00    +0.000 HD
BRANCH  17  22
ATOM     21  C   UNL     1       8.062   5.687  12.663  0.00  0.00    +0.000 C 
ATOM     22  C   UNL     1       7.341   4.686  13.572  0.00  0.00    +0.000 C 
BRANCH  22  23
ATOM     23  C   UNL     1       6.464   3.752  12.757  0.00  0.00    +0.000 A 
ATOM     24  C   UNL     1       7.067   2.761  11.966  0.00  0.00    +0.000 A 
ATOM     25  C   UNL     1       6.306   1.977  11.095  0.00  0.00    +0.000 A 
ATOM     26  C   UNL     1       4.929   2.164  11.014  0.00  0.00    +0.000 A 
ATOM     27  C   UNL     1       4.308   3.114  11.822  0.00  0.00    +0.000 A 
ATOM     28  C   UNL     1       5.068   3.898  12.695  0.00  0.00    +0.000 A 
ENDBRANCH  22  23
ENDBRANCH  17  22
ENDBRANCH  16  18
ENDBRANCH   1  16
TORSDOF 6
ENDMDL
MODEL 3
REMARK VINA RESULT:      -7.7      2.503      4.521
REMARK  Name = 
REMARK  7 active torsions:
REMARK  status: ('A' for Active; 'I' for Inactive)
REMARK    1  A    between atoms: C_1  and  C_2
REMARK    2  A    between atoms: C_2  and  N_3
REMARK    3  A    between atoms: C_2  and  C_22
REMARK    4  A    between atoms: C_4  and  C_6
REMARK    5  A    between atoms: C_6  and  C_7
REMARK    6  A    between atoms: C_7  and  N_8
REMARK    7  A    between atoms: C_10  and  C_11
REMARK                            x       y       z     vdW  Elec       q    Type
REMARK                         _______ _______ _______ _____ _____    ______ ____
ROOT
ATOM      1  C   UNL     1       4.841   3.660  18.833  0.00  0.00    +0.000 C 
ENDROOT
BRANCH   1   2
ATOM      2  N   UNL     1       3.662   4.206  19.504  0.00  0.00    +0.000 N 
ATOM      3  N   UNL     1       3.359   5.525  19.231  0.00  0.00    +0.000 NA
ATOM      4  C   UNL     1       2.340   6.053  19.831  0.00  0.00    +0.000 A 
ATOM      5  C   UNL     1       1.482   5.331  20.798  0.00  0.00    +0.000 A 
ATOM      6  C   UNL     1       1.790   4.059  21.045  0.00  0.00    +0.000 A 
ATOM      7  C   UNL     1       2.942   3.412  20.386  0.00  0.00    +0.000 A 
ATOM      8  O   UNL     1       3.198   2.241  20.655  0.00  0.00    +0.000 OA
BRANCH   4   9
ATOM      9  C   UNL     1       1.975   7.467  19.525  0.00  0.00    +0.000 A 
ATOM     10  C   UNL     1       2.272   7.975  18.251  0.00  0.00    +0.000 A 
ATOM     11  C   UNL     1       1.967   9.300  17.929  0.00  0.00    +0.000 A 
ATOM     12  C   UNL     1       1.371  10.124  18.883  0.00  0.00    +0.000 A 
ATOM     13 CL   UNL     1       1.016  11.762  18.497  0.00  0.00    +0.000 Cl
ATOM     14  C   UNL     1       1.072   9.632  20.153  0.00  0.00    +0.000 A 
ATOM     15  C   UNL     1       1.377   8.306  20.477  0.00  0.00    +0.000 A 
ENDBRANCH   4   9
ENDBRANCH   1   2
BRANCH   1  16
ATOM     16  C   UNL     1       6.104   4.450  19.166  0.00  0.00    +0.000 C 
BRANCH  16  18
ATOM     17  N   UNL     1       6.008   4.958  16.787  0.00  0.00    +0.000 N 
ATOM     18  C   UNL     1       6.478   5.367  18.021  0.00  0.00    +0.000 C 
ATOM     19  O   UNL     1       7.133   6.394  18.175  0.00  0.00    +0.000 OA
ATOM     20  H   UNL     1       5.465   4.109  16.708  0.00  0.00    +0.000 HD
BRANCH  17  22
ATOM     21  C   UNL     1       5.067   6.785  15.413  0.00  0.00    +0.000 C 
ATOM     22  C   UNL     1       6.209   5.781  15.604  0.00  0.00    +0.000 C 
BRANCH  22  23
ATOM     23  C   UNL     1       6.410   4.948  14.350  0.00  0.00    +0.000 A 
ATOM     24  C   UNL     1       7.479   5.249  13.491  0.00  0.00    +0.000 A 
ATOM     25  C   UNL     1       7.613   4.601  12.261  0.00  0.00    +0.000 A 
ATOM     26  C   UNL     1       6.689   3.633  11.879  0.00  0.00    +0.000 A 
ATOM     27  C   UNL     1       5.646   3.291  12.738  0.00  0.00    +0.000 A 
ATOM     28  C   UNL     1       5.511   3.938  13.970  0.00  0.00    +0.000 A 
ENDBRANCH  22  23
ENDBRANCH  17  22
ENDBRANCH  16  18
ENDBRANCH   1  16
TORSDOF 6
ENDMDL
MODEL 4
REMARK VINA RESULT:      -7.7      0.498      1.054
REMARK  Name = 
REMARK  7 active torsions:
REMARK  status: ('A' for Active; 'I' for Inactive)
REMARK    1  A    between atoms: C_1  and  C_2
REMARK    2  A    between atoms: C_2  and  N_3
REMARK    3  A    between atoms: C_2  and  C_22
REMARK    4  A    between atoms: C_4  and  C_6
REMARK    5  A    between atoms: C_6  and  C_7
REMARK    6  A    between atoms: C_7  and  N_8
REMARK    7  A    between atoms: C_10  and  C_11
REMARK                            x       y       z     vdW  Elec       q    Type
REMARK                         _______ _______ _______ _____ _____    ______ ____
ROOT
ATOM      1  C   UNL     1       2.266   6.317  20.571  0.00  0.00    +0.000 C 
ENDROOT
BRANCH   1   2
ATOM      2  N   UNL     1       1.891   7.582  19.940  0.00  0.00    +0.000 N 
ATOM      3  N   UNL     1       1.039   8.395  20.659  0.00  0.00    +0.000 NA
ATOM      4  C   UNL     1       0.660   9.510  20.120  0.00  0.00    +0.000 A 
ATOM      5  C   UNL     1       1.079   9.964  18.775  0.00  0.00    +0.000 A 
ATOM      6  C   UNL     1       1.904   9.165  18.098  0.00  0.00    +0.000 A 
ATOM      7  C   UNL     1       2.364   7.885  18.671  0.00  0.00    +0.000 A 
ATOM      8  O   UNL     1       3.113   7.173  18.005  0.00  0.00    +0.000 OA
BRANCH   4   9
ATOM      9  C   UNL     1      -0.235  10.420  20.894  0.00  0.00    +0.000 A 
ATOM     10  C   UNL     1      -0.363  10.216  22.277  0.00  0.00    +0.000 A 
ATOM     11  C   UNL     1      -1.206  11.031  23.037  0.00  0.00    +0.000 A 
ATOM     12  C   UNL     1      -1.930  12.047  22.415  0.00  0.00    +0.000 A 
ATOM     13 CL   UNL     1      -2.987  13.037  23.344  0.00  0.00    +0.000 Cl
ATOM     14  C   UNL     1      -1.813  12.260  21.042  0.00  0.00    +0.000 A 
ATOM     15  C   UNL     1      -0.969  11.445  20.279  0.00  0.00    +0.000 A 
ENDBRANCH   4   9
ENDBRANCH   1   2
BRANCH   1  16
ATOM     16  C   UNL     1       1.215   5.233  20.343  0.00  0.00    +0.000 C 
BRANCH  16  18
ATOM     17  N   UNL     1       3.064   4.324  19.046  0.00  0.00    +0.000 N 
ATOM     18  C   UNL     1       1.730   4.183  19.382  0.00  0.00    +0.000 C 
ATOM     19  O   UNL     1       1.028   3.276  18.944  0.00  0.00    +0.000 OA
ATOM     20  H   UNL     1       3.607   5.082  19.437  0.00  0.00    +0.000 HD
BRANCH  17  22
ATOM     21  C   UNL     1       4.189   2.123  19.008  0.00  0.00    +0.000 C 
ATOM     22  C   UNL     1       3.726   3.342  18.202  0.00  0.00    +0.000 C 
BRANCH  22  23
ATOM     23  C   UNL     1       4.882   3.941  17.420  0.00  0.00    +0.000 A 
ATOM     24  C   UNL     1       6.020   4.388  18.112  0.00  0.00    +0.000 A 
ATOM     25  C   UNL     1       7.040   5.071  17.446  0.00  0.00    +0.000 A 
ATOM     26  C   UNL     1       6.944   5.304  16.078  0.00  0.00    +0.000 A 
ATOM     27  C   UNL     1       5.843   4.831  15.368  0.00  0.00    +0.000 A 
ATOM     28  C   UNL     1       4.822   4.145  16.032  0.00  0.00    +0.000 A 
ENDBRANCH  22  23
ENDBRANCH  17  22
ENDBRANCH  16  18
ENDBRANCH   1  16
TORSDOF 6
ENDMDL
MODEL 5
REMARK VINA RESULT:      -7.6      2.842      4.865
REMARK  Name = 
REMARK  7 active torsions:
REMARK  status: ('A' for Active; 'I' for Inactive)
REMARK    1  A    between atoms: C_1  and  C_2
REMARK    2  A    between atoms: C_2  and  N_3
REMARK    3  A    between atoms: C_2  and  C_22
REMARK    4  A    between atoms: C_4  and  C_6
REMARK    5  A    between atoms: C_6  and  C_7
REMARK    6  A    between atoms: C_7  and  N_8
REMARK    7  A    between atoms: C_10  and  C_11
REMARK                            x       y       z     vdW  Elec       q    Type
REMARK                         _______ _______ _______ _____ _____    ______ ____
ROOT
ATOM      1  C   UNL     1       5.145   4.626  18.055  0.00  0.00    +0.000 C 
ENDROOT
BRANCH   1   2
ATOM      2  N   UNL     1       3.999   4.948  18.905  0.00  0.00    +0.000 N 
ATOM      3  N   UNL     1       3.500   6.231  18.796  0.00  0.00    +0.000 NA
ATOM      4  C   UNL     1       2.504   6.563  19.555  0.00  0.00    +0.000 A 
ATOM      5  C   UNL     1       1.872   5.654  20.538  0.00  0.00    +0.000 A 
ATOM      6  C   UNL     1       2.369   4.421  20.625  0.00  0.00    +0.000 A 
ATOM      7  C   UNL     1       3.502   3.995  19.782  0.00  0.00    +0.000 A 
ATOM      8  O   UNL     1       3.937   2.852  19.906  0.00  0.00    +0.000 OA
BRANCH   4   9
ATOM      9  C   UNL     1       1.926   7.934  19.430  0.00  0.00    +0.000 A 
ATOM     10  C   UNL     1       1.307   8.504  20.552  0.00  0.00    +0.000 A 
ATOM     11  C   UNL     1       0.735   9.777  20.473  0.00  0.00    +0.000 A 
ATOM     12  C   UNL     1       0.773  10.479  19.270  0.00  0.00    +0.000 A 
ATOM     13 CL   UNL     1       0.049  12.035  19.163  0.00  0.00    +0.000 Cl
ATOM     14  C   UNL     1       1.385   9.922  18.147  0.00  0.00    +0.000 A 
ATOM     15  C   UNL     1       1.959   8.648  18.223  0.00  0.00    +0.000 A 
ENDBRANCH   4   9
ENDBRANCH   1   2
BRANCH   1  16
ATOM     16  C   UNL     1       4.983   5.184  16.643  0.00  0.00    +0.000 C 
BRANCH  16  18
ATOM     17  N   UNL     1       6.237   5.117  14.558  0.00  0.00    +0.000 N 
ATOM     18  C   UNL     1       5.815   4.393  15.657  0.00  0.00    +0.000 C 
ATOM     19  O   UNL     1       6.102   3.211  15.822  0.00  0.00    +0.000 OA
ATOM     20  H   UNL     1       5.985   6.092  14.466  0.00  0.00    +0.000 HD
BRANCH  17  22
ATOM     21  C   UNL     1       7.977   5.576  12.862  0.00  0.00    +0.000 C 
ATOM     22  C   UNL     1       7.119   4.519  13.567  0.00  0.00    +0.000 C 
BRANCH  22  23
ATOM     23  C   UNL     1       6.360   3.678  12.554  0.00  0.00    +0.000 A 
ATOM     24  C   UNL     1       5.015   3.978  12.284  0.00  0.00    +0.000 A 
ATOM     25  C   UNL     1       4.246   3.145  11.469  0.00  0.00    +0.000 A 
ATOM     26  C   UNL     1       4.813   2.008  10.902  0.00  0.00    +0.000 A 
ATOM     27  C   UNL     1       6.158   1.718  11.125  0.00  0.00    +0.000 A 
ATOM     28  C   UNL     1       6.930   2.551  11.939  0.00  0.00    +0.000 A 
ENDBRANCH  22  23
ENDBRANCH  17  22
ENDBRANCH  16  18
ENDBRANCH   1  16
TORSDOF 6
ENDMDL
MODEL 6
REMARK VINA RESULT:      -7.5      3.021      4.994
REMARK  Name = 
REMARK  7 active torsions:
REMARK  status: ('A' for Active; 'I' for Inactive)
REMARK    1  A    between atoms: C_1  and  C_2
REMARK    2  A    between atoms: C_2  and  N_3
REMARK    3  A    between atoms: C_2  and  C_22
REMARK    4  A    between atoms: C_4  and  C_6
REMARK    5  A    between atoms: C_6  and  C_7
REMARK    6  A    between atoms: C_7  and  N_8
REMARK    7  A    between atoms: C_10  and  C_11
REMARK                            x       y       z     vdW  Elec       q    Type
REMARK                         _______ _______ _______ _____ _____    ______ ____
ROOT
ATOM      1  C   UNL     1       5.780   5.409  17.823  0.00  0.00    +0.000 C 
ENDROOT
BRANCH   1   2
ATOM      2  N   UNL     1       4.567   5.396  18.640  0.00  0.00    +0.000 N 
ATOM      3  N   UNL     1       3.827   6.562  18.655  0.00  0.00    +0.000 NA
ATOM      4  C   UNL     1       2.762   6.599  19.391  0.00  0.00    +0.000 A 
ATOM      5  C   UNL     1       2.292   5.469  20.225  0.00  0.00    +0.000 A 
ATOM      6  C   UNL     1       3.020   4.353  20.195  0.00  0.00    +0.000 A 
ATOM      7  C   UNL     1       4.241   4.262  19.371  0.00  0.00    +0.000 A 
ATOM      8  O   UNL     1       4.889   3.218  19.385  0.00  0.00    +0.000 OA
BRANCH   4   9
ATOM      9  C   UNL     1       1.930   7.837  19.395  0.00  0.00    +0.000 A 
ATOM     10  C   UNL     1       1.770   8.540  18.192  0.00  0.00    +0.000 A 
ATOM     11  C   UNL     1       1.016   9.717  18.155  0.00  0.00    +0.000 A 
ATOM     12  C   UNL     1       0.427  10.197  19.323  0.00  0.00    +0.000 A 
ATOM     13 CL   UNL     1      -0.482  11.657  19.286  0.00  0.00    +0.000 Cl
ATOM     14  C   UNL     1       0.579   9.508  20.526  0.00  0.00    +0.000 A 
ATOM     15  C   UNL     1       1.333   8.330  20.565  0.00  0.00    +0.000 A 
ENDBRANCH   4   9
ENDBRANCH   1   2
BRANCH   1  16
ATOM     16  C   UNL     1       5.471   5.648  16.347  0.00  0.00    +0.000 C 
BRANCH  16  18
ATOM     17  N   UNL     1       6.470   5.303  14.154  0.00  0.00    +0.000 N 
ATOM     18  C   UNL     1       6.430   4.875  15.468  0.00  0.00    +0.000 C 
ATOM     19  O   UNL     1       7.124   3.952  15.887  0.00  0.00    +0.000 OA
ATOM     20  H   UNL     1       5.887   6.072  13.854  0.00  0.00    +0.000 HD
BRANCH  17  22
ATOM     21  C   UNL     1       8.090   5.788  12.352  0.00  0.00    +0.000 C 
ATOM     22  C   UNL     1       7.408   4.717  13.209  0.00  0.00    +0.000 C 
BRANCH  22  23
ATOM     23  C   UNL     1       6.759   3.659  12.334  0.00  0.00    +0.000 A 
ATOM     24  C   UNL     1       5.360   3.634  12.211  0.00  0.00    +0.000 A 
ATOM     25  C   UNL     1       4.718   2.596  11.533  0.00  0.00    +0.000 A 
ATOM     26  C   UNL     1       5.466   1.574  10.956  0.00  0.00    +0.000 A 
ATOM     27  C   UNL     1       6.857   1.604  11.031  0.00  0.00    +0.000 A 
ATOM     28  C   UNL     1       7.501   2.644  11.708  0.00  0.00    +0.000 A 
ENDBRANCH  22  23
ENDBRANCH  17  22
ENDBRANCH  16  18
ENDBRANCH   1  16
TORSDOF 6
ENDMDL
MODEL 7
REMARK VINA RESULT:      -7.5      2.500      4.544
REMARK  Name = 
REMARK  7 active torsions:
REMARK  status: ('A' for Active; 'I' for Inactive)
REMARK    1  A    between atoms: C_1  and  C_2
REMARK    2  A    between atoms: C_2  and  N_3
REMARK    3  A    between atoms: C_2  and  C_22
REMARK    4  A    between atoms: C_4  and  C_6
REMARK    5  A    between atoms: C_6  and  C_7
REMARK    6  A    between atoms: C_7  and  N_8
REMARK    7  A    between atoms: C_10  and  C_11
REMARK                            x       y       z     vdW  Elec       q    Type
REMARK                         _______ _______ _______ _____ _____    ______ ____
ROOT
ATOM      1  C   UNL     1       4.421   3.333  18.712  0.00  0.00    +0.000 C 
ENDROOT
BRANCH   1   2
ATOM      2  N   UNL     1       3.315   4.008  19.390  0.00  0.00    +0.000 N 
ATOM      3  N   UNL     1       3.147   5.348  19.102  0.00  0.00    +0.000 NA
ATOM      4  C   UNL     1       2.196   5.987  19.706  0.00  0.00    +0.000 A 
ATOM      5  C   UNL     1       1.282   5.371  20.694  0.00  0.00    +0.000 A 
ATOM      6  C   UNL     1       1.460   4.077  20.957  0.00  0.00    +0.000 A 
ATOM      7  C   UNL     1       2.529   3.305  20.293  0.00  0.00    +0.000 A 
ATOM      8  O   UNL     1       2.666   2.117  20.576  0.00  0.00    +0.000 OA
BRANCH   4   9
ATOM      9  C   UNL     1       1.976   7.428  19.384  0.00  0.00    +0.000 A 
ATOM     10  C   UNL     1       1.402   8.252  20.363  0.00  0.00    +0.000 A 
ATOM     11  C   UNL     1       1.159   9.603  20.096  0.00  0.00    +0.000 A 
ATOM     12  C   UNL     1       1.482  10.129  18.847  0.00  0.00    +0.000 A 
ATOM     13 CL   UNL     1       1.162  11.785  18.507  0.00  0.00    +0.000 Cl
ATOM     14  C   UNL     1       2.052   9.320  17.865  0.00  0.00    +0.000 A 
ATOM     15  C   UNL     1       2.297   7.968  18.130  0.00  0.00    +0.000 A 
ENDBRANCH   4   9
ENDBRANCH   1   2
BRANCH   1  16
ATOM     16  C   UNL     1       5.778   3.870  19.162  0.00  0.00    +0.000 C 
BRANCH  16  18
ATOM     17  N   UNL     1       5.758   4.772  16.902  0.00  0.00    +0.000 N 
ATOM     18  C   UNL     1       6.314   4.873  18.164  0.00  0.00    +0.000 C 
ATOM     19  O   UNL     1       7.162   5.713  18.450  0.00  0.00    +0.000 OA
ATOM     20  H   UNL     1       5.055   4.070  16.712  0.00  0.00    +0.000 HD
BRANCH  17  22
ATOM     21  C   UNL     1       5.093   6.871  15.778  0.00  0.00    +0.000 C 
ATOM     22  C   UNL     1       6.106   5.724  15.858  0.00  0.00    +0.000 C 
BRANCH  22  23
ATOM     23  C   UNL     1       6.273   5.057  14.503  0.00  0.00    +0.000 A 
ATOM     24  C   UNL     1       5.316   4.124  14.075  0.00  0.00    +0.000 A 
ATOM     25  C   UNL     1       5.507   3.387  12.904  0.00  0.00    +0.000 A 
ATOM     26  C   UNL     1       6.651   3.583  12.138  0.00  0.00    +0.000 A 
ATOM     27  C   UNL     1       7.592   4.535  12.525  0.00  0.00    +0.000 A 
ATOM     28  C   UNL     1       7.402   5.275  13.695  0.00  0.00    +0.000 A 
ENDBRANCH  22  23
ENDBRANCH  17  22
ENDBRANCH  16  18
ENDBRANCH   1  16
TORSDOF 6
ENDMDL
MODEL 8
REMARK VINA RESULT:      -7.5      1.088      1.827
REMARK  Name = 
REMARK  7 active torsions:
REMARK  status: ('A' for Active; 'I' for Inactive)
REMARK    1  A    between atoms: C_1  and  C_2
REMARK    2  A    between atoms: C_2  and  N_3
REMARK    3  A    between atoms: C_2  and  C_22
REMARK    4  A    between atoms: C_4  and  C_6
REMARK    5  A    between atoms: C_6  and  C_7
REMARK    6  A    between atoms: C_7  and  N_8
REMARK    7  A    between atoms: C_10  and  C_11
REMARK                            x       y       z     vdW  Elec       q    Type
REMARK                         _______ _______ _______ _____ _____    ______ ____
ROOT
ATOM      1  C   UNL     1       2.647   6.464  19.963  0.00  0.00    +0.000 C 
ENDROOT
BRANCH   1   2
ATOM      2  N   UNL     1       2.125   7.745  19.485  0.00  0.00    +0.000 N 
ATOM      3  N   UNL     1       1.290   8.424  20.348  0.00  0.00    +0.000 NA
ATOM      4  C   UNL     1       0.783   9.548  19.949  0.00  0.00    +0.000 A 
ATOM      5  C   UNL     1       1.040  10.145  18.618  0.00  0.00    +0.000 A 
ATOM      6  C   UNL     1       1.851   9.473  17.802  0.00  0.00    +0.000 A 
ATOM      7  C   UNL     1       2.453   8.190  18.212  0.00  0.00    +0.000 A 
ATOM      8  O   UNL     1       3.184   7.598  17.421  0.00  0.00    +0.000 OA
BRANCH   4   9
ATOM      9  C   UNL     1      -0.096  10.315  20.878  0.00  0.00    +0.000 A 
ATOM     10  C   UNL     1      -0.245   9.852  22.194  0.00  0.00    +0.000 A 
ATOM     11  C   UNL     1      -1.076  10.528  23.092  0.00  0.00    +0.000 A 
ATOM     12  C   UNL     1      -1.765  11.665  22.674  0.00  0.00    +0.000 A 
ATOM     13 CL   UNL     1      -2.807  12.486  23.770  0.00  0.00    +0.000 Cl
ATOM     14  C   UNL     1      -1.627  12.135  21.369  0.00  0.00    +0.000 A 
ATOM     15  C   UNL     1      -0.796  11.459  20.468  0.00  0.00    +0.000 A 
ENDBRANCH   4   9
ENDBRANCH   1   2
BRANCH   1  16
ATOM     16  C   UNL     1       2.222   5.305  19.065  0.00  0.00    +0.000 C 
BRANCH  16  18
ATOM     17  N   UNL     1       4.535   5.154  18.324  0.00  0.00    +0.000 N 
ATOM     18  C   UNL     1       3.413   4.442  18.706  0.00  0.00    +0.000 C 
ATOM     19  O   UNL     1       3.390   3.216  18.759  0.00  0.00    +0.000 OA
ATOM     20  H   UNL     1       4.512   6.164  18.303  0.00  0.00    +0.000 HD
BRANCH  17  22
ATOM     21  C   UNL     1       6.965   5.106  18.778  0.00  0.00    +0.000 C 
ATOM     22  C   UNL     1       5.786   4.469  18.034  0.00  0.00    +0.000 C 
BRANCH  22  23
ATOM     23  C   UNL     1       6.068   4.391  16.544  0.00  0.00    +0.000 A 
ATOM     24  C   UNL     1       7.250   4.959  16.039  0.00  0.00    +0.000 A 
ATOM     25  C   UNL     1       7.477   5.033  14.663  0.00  0.00    +0.000 A 
ATOM     26  C   UNL     1       6.534   4.529  13.773  0.00  0.00    +0.000 A 
ATOM     27  C   UNL     1       5.376   3.925  14.257  0.00  0.00    +0.000 A 
ATOM     28  C   UNL     1       5.147   3.848  15.634  0.00  0.00    +0.000 A 
ENDBRANCH  22  23
ENDBRANCH  17  22
ENDBRANCH  16  18
ENDBRANCH   1  16
TORSDOF 6
ENDMDL
MODEL 9
REMARK VINA RESULT:      -7.4      3.676      8.894
REMARK  Name = 
REMARK  7 active torsions:
REMARK  status: ('A' for Active; 'I' for Inactive)
REMARK    1  A    between atoms: C_1  and  C_2
REMARK    2  A    between atoms: C_2  and  N_3
REMARK    3  A    between atoms: C_2  and  C_22
REMARK    4  A    between atoms: C_4  and  C_6
REMARK    5  A    between atoms: C_6  and  C_7
REMARK    6  A    between atoms: C_7  and  N_8
REMARK    7  A    between atoms: C_10  and  C_11
REMARK                            x       y       z     vdW  Elec       q    Type
REMARK                         _______ _______ _______ _____ _____    ______ ____
ROOT
ATOM      1  C   UNL     1       1.505   5.861  20.197  0.00  0.00    +0.000 C 
ENDROOT
BRANCH   1   2
ATOM      2  N   UNL     1       2.516   4.838  19.929  0.00  0.00    +0.000 N 
ATOM      3  N   UNL     1       3.328   5.054  18.833  0.00  0.00    +0.000 NA
ATOM      4  C   UNL     1       4.216   4.156  18.545  0.00  0.00    +0.000 A 
ATOM      5  C   UNL     1       4.409   2.906  19.316  0.00  0.00    +0.000 A 
ATOM      6  C   UNL     1       3.617   2.719  20.371  0.00  0.00    +0.000 A 
ATOM      7  C   UNL     1       2.591   3.714  20.739  0.00  0.00    +0.000 A 
ATOM      8  O   UNL     1       1.873   3.493  21.711  0.00  0.00    +0.000 OA
BRANCH   4   9
ATOM      9  C   UNL     1       5.125   4.385  17.385  0.00  0.00    +0.000 A 
ATOM     10  C   UNL     1       4.578   4.380  16.093  0.00  0.00    +0.000 A 
ATOM     11  C   UNL     1       5.397   4.569  14.977  0.00  0.00    +0.000 A 
ATOM     12  C   UNL     1       6.767   4.757  15.149  0.00  0.00    +0.000 A 
ATOM     13 CL   UNL     1       7.782   4.967  13.776  0.00  0.00    +0.000 Cl
ATOM     14  C   UNL     1       7.324   4.763  16.427  0.00  0.00    +0.000 A 
ATOM     15  C   UNL     1       6.506   4.574  17.547  0.00  0.00    +0.000 A 
ENDBRANCH   4   9
ENDBRANCH   1   2
BRANCH   1  16
ATOM     16  C   UNL     1       2.131   7.234  20.430  0.00  0.00    +0.000 C 
BRANCH  16  18
ATOM     17  N   UNL     1       1.055   9.254  19.601  0.00  0.00    +0.000 N 
ATOM     18  C   UNL     1       1.833   8.160  19.270  0.00  0.00    +0.000 C 
ATOM     19  O   UNL     1       2.255   7.965  18.134  0.00  0.00    +0.000 OA
ATOM     20  H   UNL     1       0.736   9.380  20.551  0.00  0.00    +0.000 HD
BRANCH  17  22
ATOM     21  C   UNL     1       1.453  11.605  18.949  0.00  0.00    +0.000 C 
ATOM     22  C   UNL     1       0.759  10.281  18.613  0.00  0.00    +0.000 C 
BRANCH  22  23
ATOM     23  C   UNL     1      -0.735  10.487  18.428  0.00  0.00    +0.000 A 
ATOM     24  C   UNL     1      -1.414   9.742  17.450  0.00  0.00    +0.000 A 
ATOM     25  C   UNL     1      -2.753  10.003  17.152  0.00  0.00    +0.000 A 
ATOM     26  C   UNL     1      -3.437  11.003  17.838  0.00  0.00    +0.000 A 
ATOM     27  C   UNL     1      -2.791  11.723  18.841  0.00  0.00    +0.000 A 
ATOM     28  C   UNL     1      -1.451  11.463  19.141  0.00  0.00    +0.000 A 
ENDBRANCH  22  23
ENDBRANCH  17  22
ENDBRANCH  16  18
ENDBRANCH   1  16
TORSDOF 6
ENDMDL
