MODEL 1
REMARK VINA RESULT:      -8.4      0.000      0.000
REMARK  Name = 
REMARK  3 active torsions:
REMARK  status: ('A' for Active; 'I' for Inactive)
REMARK    1  A    between atoms: C_5  and  C_6
REMARK    2  A    between atoms: C_16  and  O_17
REMARK    3  A    between atoms: O_17  and  C_18
REMARK                            x       y       z     vdW  Elec       q    Type
REMARK                         _______ _______ _______ _____ _____    ______ ____
ROOT
ATOM      1  C   UNL     1       3.503   4.905  18.772  0.00  0.00    +0.000 C 
ATOM      2  O   UNL     1       3.689   3.961  19.544  0.00  0.00    +0.000 OA
ATOM      3  N   UNL     1       2.541   5.869  19.023  0.00  0.00    +0.000 N 
ATOM      4  C   UNL     1       1.907   5.936  20.353  0.00  0.00    +0.000 C 
ATOM      5  C   UNL     1       2.073   7.339  20.983  0.00  0.00    +0.000 C 
ATOM      6  N   UNL     1       1.646   8.362  20.026  0.00  0.00    +0.000 N 
ATOM      7  C   UNL     1       0.718   9.314  20.353  0.00  0.00    +0.000 A 
ATOM      8  N   UNL     1       0.280   9.399  21.618  0.00  0.00    +0.000 NA
ATOM      9  C   UNL     1      -0.614  10.361  21.917  0.00  0.00    +0.000 A 
ATOM     10  C   UNL     1      -1.100  11.254  21.001  0.00  0.00    +0.000 A 
ATOM     11  C   UNL     1      -0.591  11.103  19.738  0.00  0.00    +0.000 A 
ATOM     12  N   UNL     1       0.283  10.139  19.393  0.00  0.00    +0.000 NA
ATOM     13  C   UNL     1       2.262   8.321  18.701  0.00  0.00    +0.000 C 
ATOM     14  C   UNL     1       2.088   6.917  18.095  0.00  0.00    +0.000 C 
ENDROOT
BRANCH   1  19
ATOM     15  O   UNL     1       7.828   4.535  17.040  0.00  0.00    +0.000 OA
ATOM     16  C   UNL     1       6.611   4.551  16.982  0.00  0.00    +0.000 C 
ATOM     17  C   UNL     1       5.751   3.959  15.897  0.00  0.00    +0.000 C 
ATOM     18  C   UNL     1       4.372   3.904  16.554  0.00  0.00    +0.000 C 
ATOM     19  C   UNL     1       4.385   5.080  17.518  0.00  0.00    +0.000 C 
ATOM     20  N   UNL     1       5.776   5.184  17.877  0.00  0.00    +0.000 N 
ATOM     21  H   UNL     1       6.127   5.619  18.722  0.00  0.00    +0.000 HD
ENDBRANCH   1  19
BRANCH  11  22
ATOM     22  O   UNL     1      -1.024  12.009  18.768  0.00  0.00    +0.000 OA
BRANCH  22  23
ATOM     23  C   UNL     1      -2.168  11.681  18.065  0.00  0.00    +0.000 A 
ATOM     24  C   UNL     1      -2.003  11.114  16.802  0.00  0.00    +0.000 A 
ATOM     25  C   UNL     1      -3.131  10.773  16.049  0.00  0.00    +0.000 A 
ATOM     26 CL   UNL     1      -2.940  10.097  14.475  0.00  0.00    +0.000 Cl
ATOM     27  C   UNL     1      -4.415  10.980  16.549  0.00  0.00    +0.000 A 
ATOM     28  C   UNL     1      -4.567  11.509  17.825  0.00  0.00    +0.000 A 
ATOM     29 CL   UNL     1      -6.140  11.781  18.463  0.00  0.00    +0.000 Cl
ATOM     30  C   UNL     1      -3.456  11.838  18.596  0.00  0.00    +0.000 A 
ENDBRANCH  22  23
ENDBRANCH  11  22
TORSDOF 3
ENDMDL
MODEL 2
REMARK VINA RESULT:      -8.4      0.442      1.725
REMARK  Name = 
REMARK  3 active torsions:
REMARK  status: ('A' for Active; 'I' for Inactive)
REMARK    1  A    between atoms: C_5  and  C_6
REMARK    2  A    between atoms: C_16  and  O_17
REMARK    3  A    between atoms: O_17  and  C_18
REMARK                            x       y       z     vdW  Elec       q    Type
REMARK                         _______ _______ _______ _____ _____    ______ ____
ROOT
ATOM      1  C   UNL     1       3.677   4.605  18.486  0.00  0.00    +0.000 C 
ATOM      2  O   UNL     1       3.837   3.592  19.173  0.00  0.00    +0.000 OA
ATOM      3  N   UNL     1       2.722   5.555  18.807  0.00  0.00    +0.000 N 
ATOM      4  C   UNL     1       2.065   5.511  20.127  0.00  0.00    +0.000 C 
ATOM      5  C   UNL     1       2.236   6.848  20.884  0.00  0.00    +0.000 C 
ATOM      6  N   UNL     1       1.838   7.959  20.018  0.00  0.00    +0.000 N 
ATOM      7  C   UNL     1       0.916   8.890  20.413  0.00  0.00    +0.000 A 
ATOM      8  N   UNL     1       0.457   8.866  21.673  0.00  0.00    +0.000 NA
ATOM      9  C   UNL     1      -0.431   9.809  22.043  0.00  0.00    +0.000 A 
ATOM     10  C   UNL     1      -0.890  10.787  21.204  0.00  0.00    +0.000 A 
ATOM     11  C   UNL     1      -0.360  10.745  19.942  0.00  0.00    +0.000 A 
ATOM     12  N   UNL     1       0.508   9.804  19.525  0.00  0.00    +0.000 NA
ATOM     13  C   UNL     1       2.478   8.030  18.705  0.00  0.00    +0.000 C 
ATOM     14  C   UNL     1       2.298   6.689  17.971  0.00  0.00    +0.000 C 
ENDROOT
BRANCH   1  19
ATOM     15  O   UNL     1       8.041   4.401  16.826  0.00  0.00    +0.000 OA
ATOM     16  C   UNL     1       6.826   4.412  16.743  0.00  0.00    +0.000 C 
ATOM     17  C   UNL     1       5.995   3.896  15.598  0.00  0.00    +0.000 C 
ATOM     18  C   UNL     1       4.603   3.781  16.219  0.00  0.00    +0.000 C 
ATOM     19  C   UNL     1       4.583   4.881  17.269  0.00  0.00    +0.000 C 
ATOM     20  N   UNL     1       5.966   4.969  17.665  0.00  0.00    +0.000 N 
ATOM     21  H   UNL     1       6.294   5.343  18.548  0.00  0.00    +0.000 HD
ENDBRANCH   1  19
BRANCH  11  22
ATOM     22  O   UNL     1      -0.764  11.741  19.050  0.00  0.00    +0.000 OA
BRANCH  22  23
ATOM     23  C   UNL     1      -1.905  11.498  18.309  0.00  0.00    +0.000 A 
ATOM     24  C   UNL     1      -3.124  11.889  18.862  0.00  0.00    +0.000 A 
ATOM     25  C   UNL     1      -4.307  11.657  18.153  0.00  0.00    +0.000 A 
ATOM     26 CL   UNL     1      -5.821  12.112  18.838  0.00  0.00    +0.000 Cl
ATOM     27  C   UNL     1      -4.282  11.052  16.897  0.00  0.00    +0.000 A 
ATOM     28  C   UNL     1      -3.059  10.702  16.339  0.00  0.00    +0.000 A 
ATOM     29 CL   UNL     1      -3.000   9.948  14.795  0.00  0.00    +0.000 Cl
ATOM     30  C   UNL     1      -1.870  10.941  17.022  0.00  0.00    +0.000 A 
ENDBRANCH  22  23
ENDBRANCH  11  22
TORSDOF 3
ENDMDL
MODEL 3
REMARK VINA RESULT:      -8.4      1.048      1.124
REMARK  Name = 
REMARK  3 active torsions:
REMARK  status: ('A' for Active; 'I' for Inactive)
REMARK    1  A    between atoms: C_5  and  C_6
REMARK    2  A    between atoms: C_16  and  O_17
REMARK    3  A    between atoms: O_17  and  C_18
REMARK                            x       y       z     vdW  Elec       q    Type
REMARK                         _______ _______ _______ _____ _____    ______ ____
ROOT
ATOM      1  C   UNL     1       3.728   4.433  17.792  0.00  0.00    +0.000 C 
ATOM      2  O   UNL     1       3.888   3.334  18.329  0.00  0.00    +0.000 OA
ATOM      3  N   UNL     1       2.817   5.354  18.281  0.00  0.00    +0.000 N 
ATOM      4  C   UNL     1       2.216   5.148  19.613  0.00  0.00    +0.000 C 
ATOM      5  C   UNL     1       2.460   6.368  20.532  0.00  0.00    +0.000 C 
ATOM      6  N   UNL     1       2.059   7.594  19.840  0.00  0.00    +0.000 N 
ATOM      7  C   UNL     1       1.183   8.485  20.399  0.00  0.00    +0.000 A 
ATOM      8  N   UNL     1       0.779   8.303  21.665  0.00  0.00    +0.000 NA
ATOM      9  C   UNL     1      -0.064   9.209  22.199  0.00  0.00    +0.000 A 
ATOM     10  C   UNL     1      -0.530  10.302  21.519  0.00  0.00    +0.000 A 
ATOM     11  C   UNL     1      -0.056  10.417  20.239  0.00  0.00    +0.000 A 
ATOM     12  N   UNL     1       0.765   9.520  19.660  0.00  0.00    +0.000 NA
ATOM     13  C   UNL     1       2.643   7.825  18.520  0.00  0.00    +0.000 C 
ATOM     14  C   UNL     1       2.391   6.599  17.623  0.00  0.00    +0.000 C 
ENDROOT
BRANCH   1  19
ATOM     15  O   UNL     1       7.666   6.545  16.425  0.00  0.00    +0.000 OA
ATOM     16  C   UNL     1       6.736   5.766  16.321  0.00  0.00    +0.000 C 
ATOM     17  C   UNL     1       6.681   4.539  15.449  0.00  0.00    +0.000 C 
ATOM     18  C   UNL     1       5.504   3.762  16.039  0.00  0.00    +0.000 C 
ATOM     19  C   UNL     1       4.588   4.848  16.580  0.00  0.00    +0.000 C 
ATOM     20  N   UNL     1       5.511   5.895  16.938  0.00  0.00    +0.000 N 
ATOM     21  H   UNL     1       5.325   6.627  17.613  0.00  0.00    +0.000 HD
ENDBRANCH   1  19
BRANCH  11  22
ATOM     22  O   UNL     1      -0.469  11.532  19.508  0.00  0.00    +0.000 OA
BRANCH  22  23
ATOM     23  C   UNL     1      -1.670  11.433  18.831  0.00  0.00    +0.000 A 
ATOM     24  C   UNL     1      -1.682  10.688  17.652  0.00  0.00    +0.000 A 
ATOM     25  C   UNL     1      -2.872  10.567  16.928  0.00  0.00    +0.000 A 
ATOM     26 CL   UNL     1      -2.893   9.671  15.456  0.00  0.00    +0.000 Cl
ATOM     27  C   UNL     1      -4.047  11.168  17.375  0.00  0.00    +0.000 A 
ATOM     28  C   UNL     1      -4.033  11.875  18.571  0.00  0.00    +0.000 A 
ATOM     29 CL   UNL     1      -5.466  12.633  19.141  0.00  0.00    +0.000 Cl
ATOM     30  C   UNL     1      -2.862  11.992  19.314  0.00  0.00    +0.000 A 
ENDBRANCH  22  23
ENDBRANCH  11  22
TORSDOF 3
ENDMDL
MODEL 4
REMARK VINA RESULT:      -7.7      2.953      3.495
REMARK  Name = 
REMARK  3 active torsions:
REMARK  status: ('A' for Active; 'I' for Inactive)
REMARK    1  A    between atoms: C_5  and  C_6
REMARK    2  A    between atoms: C_16  and  O_17
REMARK    3  A    between atoms: O_17  and  C_18
REMARK                            x       y       z     vdW  Elec       q    Type
REMARK                         _______ _______ _______ _____ _____    ______ ____
ROOT
ATOM      1  C   UNL     1       3.679   4.843  18.411  0.00  0.00    +0.000 C 
ATOM      2  O   UNL     1       3.723   3.835  19.121  0.00  0.00    +0.000 OA
ATOM      3  N   UNL     1       2.739   5.839  18.622  0.00  0.00    +0.000 N 
ATOM      4  C   UNL     1       1.949   5.842  19.868  0.00  0.00    +0.000 C 
ATOM      5  C   UNL     1       2.101   7.182  20.625  0.00  0.00    +0.000 C 
ATOM      6  N   UNL     1       1.844   8.296  19.711  0.00  0.00    +0.000 N 
ATOM      7  C   UNL     1       0.928   9.272  20.000  0.00  0.00    +0.000 A 
ATOM      8  N   UNL     1       0.342   9.286  21.206  0.00  0.00    +0.000 NA
ATOM      9  C   UNL     1      -0.537  10.271  21.473  0.00  0.00    +0.000 A 
ATOM     10  C   UNL     1      -0.863  11.256  20.581  0.00  0.00    +0.000 A 
ATOM     11  C   UNL     1      -0.208  11.173  19.381  0.00  0.00    +0.000 A 
ATOM     12  N   UNL     1       0.655  10.189  19.065  0.00  0.00    +0.000 NA
ATOM     13  C   UNL     1       2.618   8.320  18.470  0.00  0.00    +0.000 C 
ATOM     14  C   UNL     1       2.455   6.977  17.735  0.00  0.00    +0.000 C 
ENDROOT
BRANCH   1  19
ATOM     15  O   UNL     1       8.136   4.246  17.139  0.00  0.00    +0.000 OA
ATOM     16  C   UNL     1       6.941   4.383  16.948  0.00  0.00    +0.000 C 
ATOM     17  C   UNL     1       6.173   3.990  15.715  0.00  0.00    +0.000 C 
ATOM     18  C   UNL     1       4.724   3.998  16.205  0.00  0.00    +0.000 C 
ATOM     19  C   UNL     1       4.717   5.062  17.291  0.00  0.00    +0.000 C 
ATOM     20  N   UNL     1       6.059   4.997  17.812  0.00  0.00    +0.000 N 
ATOM     21  H   UNL     1       6.339   5.308  18.734  0.00  0.00    +0.000 HD
ENDBRANCH   1  19
BRANCH  11  22
ATOM     22  O   UNL     1      -0.475  12.172  18.442  0.00  0.00    +0.000 OA
BRANCH  22  23
ATOM     23  C   UNL     1       0.237  13.350  18.555  0.00  0.00    +0.000 A 
ATOM     24  C   UNL     1       1.609  13.296  18.307  0.00  0.00    +0.000 A 
ATOM     25  C   UNL     1       2.374  14.462  18.418  0.00  0.00    +0.000 A 
ATOM     26 CL   UNL     1       4.073  14.402  18.140  0.00  0.00    +0.000 Cl
ATOM     27  C   UNL     1       1.782  15.677  18.758  0.00  0.00    +0.000 A 
ATOM     28  C   UNL     1       0.409  15.727  18.964  0.00  0.00    +0.000 A 
ATOM     29 CL   UNL     1      -0.345  17.211  19.393  0.00  0.00    +0.000 Cl
ATOM     30  C   UNL     1      -0.371  14.580  18.843  0.00  0.00    +0.000 A 
ENDBRANCH  22  23
ENDBRANCH  11  22
TORSDOF 3
ENDMDL
MODEL 5
REMARK VINA RESULT:      -7.7      2.877      3.737
REMARK  Name = 
REMARK  3 active torsions:
REMARK  status: ('A' for Active; 'I' for Inactive)
REMARK    1  A    between atoms: C_5  and  C_6
REMARK    2  A    between atoms: C_16  and  O_17
REMARK    3  A    between atoms: O_17  and  C_18
REMARK                            x       y       z     vdW  Elec       q    Type
REMARK                         _______ _______ _______ _____ _____    ______ ____
ROOT
ATOM      1  C   UNL     1       3.614   4.673  18.431  0.00  0.00    +0.000 C 
ATOM      2  O   UNL     1       3.691   3.675  19.152  0.00  0.00    +0.000 OA
ATOM      3  N   UNL     1       2.688   5.674  18.675  0.00  0.00    +0.000 N 
ATOM      4  C   UNL     1       1.961   5.698  19.958  0.00  0.00    +0.000 C 
ATOM      5  C   UNL     1       2.154   7.048  20.687  0.00  0.00    +0.000 C 
ATOM      6  N   UNL     1       1.855   8.150  19.771  0.00  0.00    +0.000 N 
ATOM      7  C   UNL     1       0.957   9.132  20.091  0.00  0.00    +0.000 A 
ATOM      8  N   UNL     1       0.432   9.166  21.325  0.00  0.00    +0.000 NA
ATOM      9  C   UNL     1      -0.429  10.158  21.622  0.00  0.00    +0.000 A 
ATOM     10  C   UNL     1      -0.798  11.131  20.733  0.00  0.00    +0.000 A 
ATOM     11  C   UNL     1      -0.205  11.028  19.503  0.00  0.00    +0.000 A 
ATOM     12  N   UNL     1       0.640  10.037  19.158  0.00  0.00    +0.000 NA
ATOM     13  C   UNL     1       2.565   8.154  18.493  0.00  0.00    +0.000 C 
ATOM     14  C   UNL     1       2.362   6.800  17.787  0.00  0.00    +0.000 C 
ENDROOT
BRANCH   1  19
ATOM     15  O   UNL     1       8.074   4.384  17.065  0.00  0.00    +0.000 OA
ATOM     16  C   UNL     1       6.867   4.383  16.905  0.00  0.00    +0.000 C 
ATOM     17  C   UNL     1       6.110   3.787  15.748  0.00  0.00    +0.000 C 
ATOM     18  C   UNL     1       4.682   3.705  16.287  0.00  0.00    +0.000 C 
ATOM     19  C   UNL     1       4.594   4.872  17.257  0.00  0.00    +0.000 C 
ATOM     20  N   UNL     1       5.949   4.995  17.733  0.00  0.00    +0.000 N 
ATOM     21  H   UNL     1       6.221   5.428  18.607  0.00  0.00    +0.000 HD
ENDBRANCH   1  19
BRANCH  11  22
ATOM     22  O   UNL     1      -0.515  12.014  18.564  0.00  0.00    +0.000 OA
BRANCH  22  23
ATOM     23  C   UNL     1       0.232  13.176  18.598  0.00  0.00    +0.000 A 
ATOM     24  C   UNL     1      -0.442  14.363  18.881  0.00  0.00    +0.000 A 
ATOM     25  C   UNL     1       0.271  15.566  18.918  0.00  0.00    +0.000 A 
ATOM     26 CL   UNL     1      -0.555  17.043  19.239  0.00  0.00    +0.000 Cl
ATOM     27  C   UNL     1       1.646  15.591  18.689  0.00  0.00    +0.000 A 
ATOM     28  C   UNL     1       2.313  14.397  18.447  0.00  0.00    +0.000 A 
ATOM     29 CL   UNL     1       4.007  14.400  18.155  0.00  0.00    +0.000 Cl
ATOM     30  C   UNL     1       1.623  13.188  18.424  0.00  0.00    +0.000 A 
ENDBRANCH  22  23
ENDBRANCH  11  22
TORSDOF 3
ENDMDL
MODEL 6
REMARK VINA RESULT:      -7.6      1.477      2.352
REMARK  Name = 
REMARK  3 active torsions:
REMARK  status: ('A' for Active; 'I' for Inactive)
REMARK    1  A    between atoms: C_5  and  C_6
REMARK    2  A    between atoms: C_16  and  O_17
REMARK    3  A    between atoms: O_17  and  C_18
REMARK                            x       y       z     vdW  Elec       q    Type
REMARK                         _______ _______ _______ _____ _____    ______ ____
ROOT
ATOM      1  C   UNL     1       3.731   4.364  17.554  0.00  0.00    +0.000 C 
ATOM      2  O   UNL     1       3.844   3.229  18.025  0.00  0.00    +0.000 OA
ATOM      3  N   UNL     1       2.843   5.285  18.085  0.00  0.00    +0.000 N 
ATOM      4  C   UNL     1       2.212   5.018  19.392  0.00  0.00    +0.000 C 
ATOM      5  C   UNL     1       2.480   6.170  20.389  0.00  0.00    +0.000 C 
ATOM      6  N   UNL     1       2.133   7.450  19.768  0.00  0.00    +0.000 N 
ATOM      7  C   UNL     1       1.277   8.335  20.367  0.00  0.00    +0.000 A 
ATOM      8  N   UNL     1       0.844   8.089  21.613  0.00  0.00    +0.000 NA
ATOM      9  C   UNL     1       0.023   8.989  22.187  0.00  0.00    +0.000 A 
ATOM     10  C   UNL     1      -0.393  10.138  21.570  0.00  0.00    +0.000 A 
ATOM     11  C   UNL     1       0.107  10.315  20.307  0.00  0.00    +0.000 A 
ATOM     12  N   UNL     1       0.908   9.427  19.687  0.00  0.00    +0.000 NA
ATOM     13  C   UNL     1       2.748   7.741  18.474  0.00  0.00    +0.000 C 
ATOM     14  C   UNL     1       2.472   6.582  17.499  0.00  0.00    +0.000 C 
ENDROOT
BRANCH   1  19
ATOM     15  O   UNL     1       7.679   6.573  16.383  0.00  0.00    +0.000 OA
ATOM     16  C   UNL     1       6.767   5.782  16.226  0.00  0.00    +0.000 C 
ATOM     17  C   UNL     1       6.764   4.576  15.324  0.00  0.00    +0.000 C 
ATOM     18  C   UNL     1       5.580   3.765  15.852  0.00  0.00    +0.000 C 
ATOM     19  C   UNL     1       4.627   4.823  16.385  0.00  0.00    +0.000 C 
ATOM     20  N   UNL     1       5.518   5.876  16.801  0.00  0.00    +0.000 N 
ATOM     21  H   UNL     1       5.296   6.588  17.487  0.00  0.00    +0.000 HD
ENDBRANCH   1  19
BRANCH  11  22
ATOM     22  O   UNL     1      -0.255  11.486  19.640  0.00  0.00    +0.000 OA
BRANCH  22  23
ATOM     23  C   UNL     1      -1.606  11.734  19.487  0.00  0.00    +0.000 A 
ATOM     24  C   UNL     1      -2.224  12.530  20.451  0.00  0.00    +0.000 A 
ATOM     25  C   UNL     1      -3.592  12.802  20.343  0.00  0.00    +0.000 A 
ATOM     26 CL   UNL     1      -4.373  13.762  21.542  0.00  0.00    +0.000 Cl
ATOM     27  C   UNL     1      -4.340  12.298  19.280  0.00  0.00    +0.000 A 
ATOM     28  C   UNL     1      -3.706  11.539  18.305  0.00  0.00    +0.000 A 
ATOM     29 CL   UNL     1      -4.607  10.900  16.988  0.00  0.00    +0.000 Cl
ATOM     30  C   UNL     1      -2.342  11.272  18.387  0.00  0.00    +0.000 A 
ENDBRANCH  22  23
ENDBRANCH  11  22
TORSDOF 3
ENDMDL
MODEL 7
REMARK VINA RESULT:      -7.4      3.302      4.827
REMARK  Name = 
REMARK  3 active torsions:
REMARK  status: ('A' for Active; 'I' for Inactive)
REMARK    1  A    between atoms: C_5  and  C_6
REMARK    2  A    between atoms: C_16  and  O_17
REMARK    3  A    between atoms: O_17  and  C_18
REMARK                            x       y       z     vdW  Elec       q    Type
REMARK                         _______ _______ _______ _____ _____    ______ ____
ROOT
ATOM      1  C   UNL     1       3.138   5.797  18.308  0.00  0.00    +0.000 C 
ATOM      2  O   UNL     1       3.706   5.653  17.222  0.00  0.00    +0.000 OA
ATOM      3  N   UNL     1       2.841   7.053  18.810  0.00  0.00    +0.000 N 
ATOM      4  C   UNL     1       2.952   8.234  17.932  0.00  0.00    +0.000 C 
ATOM      5  C   UNL     1       1.620   9.017  17.874  0.00  0.00    +0.000 C 
ATOM      6  N   UNL     1       1.145   9.283  19.234  0.00  0.00    +0.000 N 
ATOM      7  C   UNL     1       0.829  10.546  19.654  0.00  0.00    +0.000 A 
ATOM      8  N   UNL     1       0.826  11.553  18.767  0.00  0.00    +0.000 NA
ATOM      9  C   UNL     1       0.487  12.782  19.203  0.00  0.00    +0.000 A 
ATOM     10  C   UNL     1       0.147  13.058  20.499  0.00  0.00    +0.000 A 
ATOM     11  C   UNL     1       0.163  11.971  21.333  0.00  0.00    +0.000 A 
ATOM     12  N   UNL     1       0.523  10.733  20.943  0.00  0.00    +0.000 NA
ATOM     13  C   UNL     1       1.022   8.130  20.124  0.00  0.00    +0.000 C 
ATOM     14  C   UNL     1       2.357   7.364  20.164  0.00  0.00    +0.000 C 
ENDROOT
BRANCH   1  19
ATOM     15  O   UNL     1       0.208   2.160  18.454  0.00  0.00    +0.000 OA
ATOM     16  C   UNL     1       1.230   2.767  18.718  0.00  0.00    +0.000 C 
ATOM     17  C   UNL     1       2.538   2.178  19.176  0.00  0.00    +0.000 C 
ATOM     18  C   UNL     1       3.524   3.321  18.935  0.00  0.00    +0.000 C 
ATOM     19  C   UNL     1       2.681   4.571  19.125  0.00  0.00    +0.000 C 
ATOM     20  N   UNL     1       1.369   4.139  18.714  0.00  0.00    +0.000 N 
ATOM     21  H   UNL     1       0.629   4.752  18.394  0.00  0.00    +0.000 HD
ENDBRANCH   1  19
BRANCH  11  22
ATOM     22  O   UNL     1      -0.209  12.185  22.661  0.00  0.00    +0.000 OA
BRANCH  22  23
ATOM     23  C   UNL     1      -1.437  12.778  22.885  0.00  0.00    +0.000 A 
ATOM     24  C   UNL     1      -1.485  13.825  23.805  0.00  0.00    +0.000 A 
ATOM     25  C   UNL     1      -2.707  14.451  24.071  0.00  0.00    +0.000 A 
ATOM     26 CL   UNL     1      -2.783  15.728  25.225  0.00  0.00    +0.000 Cl
ATOM     27  C   UNL     1      -3.873  14.052  23.420  0.00  0.00    +0.000 A 
ATOM     28  C   UNL     1      -3.806  13.034  22.476  0.00  0.00    +0.000 A 
ATOM     29 CL   UNL     1      -5.230  12.517  21.664  0.00  0.00    +0.000 Cl
ATOM     30  C   UNL     1      -2.596  12.411  22.186  0.00  0.00    +0.000 A 
ENDBRANCH  22  23
ENDBRANCH  11  22
TORSDOF 3
ENDMDL
MODEL 8
REMARK VINA RESULT:      -7.3      3.298      4.700
REMARK  Name = 
REMARK  3 active torsions:
REMARK  status: ('A' for Active; 'I' for Inactive)
REMARK    1  A    between atoms: C_5  and  C_6
REMARK    2  A    between atoms: C_16  and  O_17
REMARK    3  A    between atoms: O_17  and  C_18
REMARK                            x       y       z     vdW  Elec       q    Type
REMARK                         _______ _______ _______ _____ _____    ______ ____
ROOT
ATOM      1  C   UNL     1       3.246   5.746  18.233  0.00  0.00    +0.000 C 
ATOM      2  O   UNL     1       3.817   5.625  17.146  0.00  0.00    +0.000 OA
ATOM      3  N   UNL     1       2.928   6.990  18.751  0.00  0.00    +0.000 N 
ATOM      4  C   UNL     1       3.019   8.183  17.888  0.00  0.00    +0.000 C 
ATOM      5  C   UNL     1       1.674   8.945  17.839  0.00  0.00    +0.000 C 
ATOM      6  N   UNL     1       1.194   9.185  19.201  0.00  0.00    +0.000 N 
ATOM      7  C   UNL     1       0.856  10.438  19.638  0.00  0.00    +0.000 A 
ATOM      8  N   UNL     1       0.837  11.455  18.764  0.00  0.00    +0.000 NA
ATOM      9  C   UNL     1       0.477  12.672  19.215  0.00  0.00    +0.000 A 
ATOM     10  C   UNL     1       0.131  12.926  20.515  0.00  0.00    +0.000 A 
ATOM     11  C   UNL     1       0.165  11.829  21.334  0.00  0.00    +0.000 A 
ATOM     12  N   UNL     1       0.546  10.603  20.929  0.00  0.00    +0.000 NA
ATOM     13  C   UNL     1       1.089   8.019  20.077  0.00  0.00    +0.000 C 
ATOM     14  C   UNL     1       2.437   7.275  20.108  0.00  0.00    +0.000 C 
ENDROOT
BRANCH   1  19
ATOM     15  O   UNL     1       0.199   2.210  18.469  0.00  0.00    +0.000 OA
ATOM     16  C   UNL     1       1.262   2.769  18.673  0.00  0.00    +0.000 C 
ATOM     17  C   UNL     1       2.578   2.115  18.999  0.00  0.00    +0.000 C 
ATOM     18  C   UNL     1       3.585   3.232  18.725  0.00  0.00    +0.000 C 
ATOM     19  C   UNL     1       2.809   4.502  19.034  0.00  0.00    +0.000 C 
ATOM     20  N   UNL     1       1.452   4.134  18.714  0.00  0.00    +0.000 N 
ATOM     21  H   UNL     1       0.713   4.786  18.481  0.00  0.00    +0.000 HD
ENDBRANCH   1  19
BRANCH  11  22
ATOM     22  O   UNL     1      -0.212  12.020  22.665  0.00  0.00    +0.000 OA
BRANCH  22  23
ATOM     23  C   UNL     1      -1.344  12.777  22.898  0.00  0.00    +0.000 A 
ATOM     24  C   UNL     1      -2.541  12.327  22.342  0.00  0.00    +0.000 A 
ATOM     25  C   UNL     1      -3.712  13.064  22.543  0.00  0.00    +0.000 A 
ATOM     26 CL   UNL     1      -5.192  12.533  21.839  0.00  0.00    +0.000 Cl
ATOM     27  C   UNL     1      -3.701  14.233  23.301  0.00  0.00    +0.000 A 
ATOM     28  C   UNL     1      -2.511  14.651  23.883  0.00  0.00    +0.000 A 
ATOM     29 CL   UNL     1      -2.467  16.094  24.817  0.00  0.00    +0.000 Cl
ATOM     30  C   UNL     1      -1.338  13.921  23.708  0.00  0.00    +0.000 A 
ENDBRANCH  22  23
ENDBRANCH  11  22
TORSDOF 3
ENDMDL
MODEL 9
REMARK VINA RESULT:      -7.3      1.432      2.314
REMARK  Name = 
REMARK  3 active torsions:
REMARK  status: ('A' for Active; 'I' for Inactive)
REMARK    1  A    between atoms: C_5  and  C_6
REMARK    2  A    between atoms: C_16  and  O_17
REMARK    3  A    between atoms: O_17  and  C_18
REMARK                            x       y       z     vdW  Elec       q    Type
REMARK                         _______ _______ _______ _____ _____    ______ ____
ROOT
ATOM      1  C   UNL     1       4.119   3.670  18.393  0.00  0.00    +0.000 C 
ATOM      2  O   UNL     1       4.161   2.600  19.006  0.00  0.00    +0.000 OA
ATOM      3  N   UNL     1       3.176   4.640  18.688  0.00  0.00    +0.000 N 
ATOM      4  C   UNL     1       2.376   4.525  19.923  0.00  0.00    +0.000 C 
ATOM      5  C   UNL     1       2.519   5.789  20.803  0.00  0.00    +0.000 C 
ATOM      6  N   UNL     1       2.267   6.984  19.994  0.00  0.00    +0.000 N 
ATOM      7  C   UNL     1       1.346   7.927  20.365  0.00  0.00    +0.000 A 
ATOM      8  N   UNL     1       0.751   7.827  21.563  0.00  0.00    +0.000 NA
ATOM      9  C   UNL     1      -0.132   8.782  21.914  0.00  0.00    +0.000 A 
ATOM     10  C   UNL     1      -0.454   9.846  21.115  0.00  0.00    +0.000 A 
ATOM     11  C   UNL     1       0.210   9.876  19.917  0.00  0.00    +0.000 A 
ATOM     12  N   UNL     1       1.078   8.927  19.518  0.00  0.00    +0.000 NA
ATOM     13  C   UNL     1       3.050   7.124  18.767  0.00  0.00    +0.000 C 
ATOM     14  C   UNL     1       2.895   5.855  17.909  0.00  0.00    +0.000 C 
ENDROOT
BRANCH   1  19
ATOM     15  O   UNL     1       5.407   6.719  15.094  0.00  0.00    +0.000 OA
ATOM     16  C   UNL     1       5.589   5.849  15.926  0.00  0.00    +0.000 C 
ATOM     17  C   UNL     1       6.885   5.516  16.615  0.00  0.00    +0.000 C 
ATOM     18  C   UNL     1       6.425   4.679  17.809  0.00  0.00    +0.000 C 
ATOM     19  C   UNL     1       5.165   3.994  17.306  0.00  0.00    +0.000 C 
ATOM     20  N   UNL     1       4.643   4.942  16.355  0.00  0.00    +0.000 N 
ATOM     21  H   UNL     1       3.675   4.997  16.060  0.00  0.00    +0.000 HD
ENDBRANCH   1  19
BRANCH  11  22
ATOM     22  O   UNL     1      -0.052  10.957  19.074  0.00  0.00    +0.000 OA
BRANCH  22  23
ATOM     23  C   UNL     1      -1.283  10.985  18.447  0.00  0.00    +0.000 A 
ATOM     24  C   UNL     1      -2.313  11.672  19.089  0.00  0.00    +0.000 A 
ATOM     25  C   UNL     1      -3.580  11.721  18.498  0.00  0.00    +0.000 A 
ATOM     26 CL   UNL     1      -4.867  12.544  19.294  0.00  0.00    +0.000 Cl
ATOM     27  C   UNL     1      -3.822  11.104  17.272  0.00  0.00    +0.000 A 
ATOM     28  C   UNL     1      -2.778  10.456  16.623  0.00  0.00    +0.000 A 
ATOM     29 CL   UNL     1      -3.052   9.681  15.113  0.00  0.00    +0.000 Cl
ATOM     30  C   UNL     1      -1.507  10.411  17.187  0.00  0.00    +0.000 A 
ENDBRANCH  22  23
ENDBRANCH  11  22
TORSDOF 3
ENDMDL
