MODEL 1
REMARK VINA RESULT:      -8.4      0.000      0.000
REMARK  Name = 
REMARK  1 active torsions:
REMARK  status: ('A' for Active; 'I' for Inactive)
REMARK    1  A    between atoms: N_1  and  C_2
REMARK                            x       y       z     vdW  Elec       q    Type
REMARK                         _______ _______ _______ _____ _____    ______ ____
ROOT
ATOM      1  C   UNL     1       6.684   4.634  17.356  0.00  0.00    +0.000 C 
ATOM      2  C   UNL     1       5.791   3.640  16.579  0.00  0.00    +0.000 C 
ATOM      3  C   UNL     1       4.343   4.090  16.296  0.00  0.00    +0.000 C 
ATOM      4  C   UNL     1       3.682   4.725  17.505  0.00  0.00    +0.000 A 
ATOM      5  C   UNL     1       4.134   6.020  17.889  0.00  0.00    +0.000 A 
ATOM      6  C   UNL     1       3.563   6.649  19.005  0.00  0.00    +0.000 A 
ATOM      7  C   UNL     1       2.547   6.039  19.729  0.00  0.00    +0.000 A 
ATOM      8  C   UNL     1       2.074   4.777  19.363  0.00  0.00    +0.000 A 
ATOM      9  C   UNL     1       1.034   4.189  20.107  0.00  0.00    +0.000 A 
ATOM     10  C   UNL     1       0.551   2.929  19.765  0.00  0.00    +0.000 A 
ATOM     11  C   UNL     1       1.101   2.240  18.689  0.00  0.00    +0.000 A 
ATOM     12  C   UNL     1       2.133   2.808  17.937  0.00  0.00    +0.000 A 
ATOM     13  C   UNL     1       2.639   4.094  18.250  0.00  0.00    +0.000 A 
ATOM     14  C   UNL     1       5.189   6.786  17.088  0.00  0.00    +0.000 C 
ATOM     15  C   UNL     1       6.495   6.053  16.877  0.00  0.00    +0.000 C 
ATOM     16  O   UNL     1       7.411   6.639  16.316  0.00  0.00    +0.000 OA
ENDROOT
BRANCH   1  17
ATOM     17  N   UNL     1       8.084   4.211  17.236  0.00  0.00    +0.000 NA
ATOM     18  H   UNL     1       8.247   3.825  16.278  0.00  0.00    +0.000 HD
ATOM     19  H   UNL     1       8.284   3.445  17.919  0.00  0.00    +0.000 HD
ENDBRANCH   1  17
TORSDOF 1
ENDMDL
MODEL 2
REMARK VINA RESULT:      -8.1      1.329      1.609
REMARK  Name = 
REMARK  1 active torsions:
REMARK  status: ('A' for Active; 'I' for Inactive)
REMARK    1  A    between atoms: N_1  and  C_2
REMARK                            x       y       z     vdW  Elec       q    Type
REMARK                         _______ _______ _______ _____ _____    ______ ____
ROOT
ATOM      1  C   UNL     1       7.146   6.076  18.535  0.00  0.00    +0.000 C 
ATOM      2  C   UNL     1       7.140   4.655  17.926  0.00  0.00    +0.000 C 
ATOM      3  C   UNL     1       6.028   4.350  16.901  0.00  0.00    +0.000 C 
ATOM      4  C   UNL     1       4.668   4.856  17.347  0.00  0.00    +0.000 A 
ATOM      5  C   UNL     1       4.460   6.265  17.330  0.00  0.00    +0.000 A 
ATOM      6  C   UNL     1       3.225   6.786  17.741  0.00  0.00    +0.000 A 
ATOM      7  C   UNL     1       2.192   5.948  18.143  0.00  0.00    +0.000 A 
ATOM      8  C   UNL     1       2.365   4.563  18.153  0.00  0.00    +0.000 A 
ATOM      9  C   UNL     1       1.296   3.739  18.552  0.00  0.00    +0.000 A 
ATOM     10  C   UNL     1       1.448   2.355  18.576  0.00  0.00    +0.000 A 
ATOM     11  C   UNL     1       2.662   1.780  18.213  0.00  0.00    +0.000 A 
ATOM     12  C   UNL     1       3.733   2.582  17.812  0.00  0.00    +0.000 A 
ATOM     13  C   UNL     1       3.608   3.992  17.763  0.00  0.00    +0.000 A 
ATOM     14  C   UNL     1       5.523   7.240  16.819  0.00  0.00    +0.000 C 
ATOM     15  C   UNL     1       6.871   7.135  17.496  0.00  0.00    +0.000 C 
ATOM     16  O   UNL     1       7.741   7.940  17.193  0.00  0.00    +0.000 OA
ENDROOT
BRANCH   1  17
ATOM     17  N   UNL     1       8.434   6.302  19.201  0.00  0.00    +0.000 NA
ATOM     18  H   UNL     1       8.585   7.331  19.321  0.00  0.00    +0.000 HD
ATOM     19  H   UNL     1       9.212   5.941  18.604  0.00  0.00    +0.000 HD
ENDBRANCH   1  17
TORSDOF 1
ENDMDL
MODEL 3
REMARK VINA RESULT:      -7.6      3.164      5.234
REMARK  Name = 
REMARK  1 active torsions:
REMARK  status: ('A' for Active; 'I' for Inactive)
REMARK    1  A    between atoms: N_1  and  C_2
REMARK                            x       y       z     vdW  Elec       q    Type
REMARK                         _______ _______ _______ _____ _____    ______ ____
ROOT
ATOM      1  C   UNL     1       1.418   2.748  18.767  0.00  0.00    +0.000 C 
ATOM      2  C   UNL     1       2.670   1.923  18.389  0.00  0.00    +0.000 C 
ATOM      3  C   UNL     1       4.036   2.603  18.613  0.00  0.00    +0.000 C 
ATOM      4  C   UNL     1       4.058   4.043  18.135  0.00  0.00    +0.000 A 
ATOM      5  C   UNL     1       3.327   4.995  18.903  0.00  0.00    +0.000 A 
ATOM      6  C   UNL     1       3.305   6.337  18.501  0.00  0.00    +0.000 A 
ATOM      7  C   UNL     1       4.005   6.760  17.378  0.00  0.00    +0.000 A 
ATOM      8  C   UNL     1       4.743   5.851  16.618  0.00  0.00    +0.000 A 
ATOM      9  C   UNL     1       5.454   6.310  15.493  0.00  0.00    +0.000 A 
ATOM     10  C   UNL     1       6.191   5.420  14.717  0.00  0.00    +0.000 A 
ATOM     11  C   UNL     1       6.222   4.068  15.045  0.00  0.00    +0.000 A 
ATOM     12  C   UNL     1       5.525   3.594  16.159  0.00  0.00    +0.000 A 
ATOM     13  C   UNL     1       4.776   4.475  16.978  0.00  0.00    +0.000 A 
ATOM     14  C   UNL     1       2.603   4.615  20.197  0.00  0.00    +0.000 C 
ATOM     15  C   UNL     1       1.604   3.487  20.069  0.00  0.00    +0.000 C 
ATOM     16  O   UNL     1       0.931   3.189  21.047  0.00  0.00    +0.000 OA
ENDROOT
BRANCH   1  17
ATOM     17  N   UNL     1       0.257   1.853  18.820  0.00  0.00    +0.000 NA
ATOM     18  H   UNL     1      -0.577   2.390  19.153  0.00  0.00    +0.000 HD
ATOM     19  H   UNL     1       0.430   1.086  19.510  0.00  0.00    +0.000 HD
ENDBRANCH   1  17
TORSDOF 1
ENDMDL
MODEL 4
REMARK VINA RESULT:      -7.4      1.229      1.367
REMARK  Name = 
REMARK  1 active torsions:
REMARK  status: ('A' for Active; 'I' for Inactive)
REMARK    1  A    between atoms: N_1  and  C_2
REMARK                            x       y       z     vdW  Elec       q    Type
REMARK                         _______ _______ _______ _____ _____    ______ ____
ROOT
ATOM      1  C   UNL     1       6.909   6.117  18.601  0.00  0.00    +0.000 C 
ATOM      2  C   UNL     1       6.737   4.604  18.333  0.00  0.00    +0.000 C 
ATOM      3  C   UNL     1       5.454   4.177  17.590  0.00  0.00    +0.000 C 
ATOM      4  C   UNL     1       4.214   4.872  18.120  0.00  0.00    +0.000 A 
ATOM      5  C   UNL     1       4.066   6.257  17.822  0.00  0.00    +0.000 A 
ATOM      6  C   UNL     1       2.943   6.950  18.295  0.00  0.00    +0.000 A 
ATOM      7  C   UNL     1       1.959   6.302  19.032  0.00  0.00    +0.000 A 
ATOM      8  C   UNL     1       2.072   4.941  19.324  0.00  0.00    +0.000 A 
ATOM      9  C   UNL     1       1.053   4.308  20.059  0.00  0.00    +0.000 A 
ATOM     10  C   UNL     1       1.147   2.953  20.368  0.00  0.00    +0.000 A 
ATOM     11  C   UNL     1       2.255   2.220  19.955  0.00  0.00    +0.000 A 
ATOM     12  C   UNL     1       3.276   2.831  19.222  0.00  0.00    +0.000 A 
ATOM     13  C   UNL     1       3.205   4.204  18.880  0.00  0.00    +0.000 A 
ATOM     14  C   UNL     1       5.067   7.014  16.946  0.00  0.00    +0.000 C 
ATOM     15  C   UNL     1       6.505   6.949  17.408  0.00  0.00    +0.000 C 
ATOM     16  O   UNL     1       7.344   7.600  16.801  0.00  0.00    +0.000 OA
ENDROOT
BRANCH   1  17
ATOM     17  N   UNL     1       8.300   6.377  18.989  0.00  0.00    +0.000 NA
ATOM     18  H   UNL     1       8.361   6.443  20.031  0.00  0.00    +0.000 HD
ATOM     19  H   UNL     1       8.612   7.295  18.599  0.00  0.00    +0.000 HD
ENDBRANCH   1  17
TORSDOF 1
ENDMDL
MODEL 5
REMARK VINA RESULT:      -7.4      1.618      2.578
REMARK  Name = 
REMARK  1 active torsions:
REMARK  status: ('A' for Active; 'I' for Inactive)
REMARK    1  A    between atoms: N_1  and  C_2
REMARK                            x       y       z     vdW  Elec       q    Type
REMARK                         _______ _______ _______ _____ _____    ______ ____
ROOT
ATOM      1  C   UNL     1       6.171   6.357  17.291  0.00  0.00    +0.000 C 
ATOM      2  C   UNL     1       6.375   5.881  18.748  0.00  0.00    +0.000 C 
ATOM      3  C   UNL     1       5.942   4.436  19.068  0.00  0.00    +0.000 C 
ATOM      4  C   UNL     1       4.593   4.084  18.468  0.00  0.00    +0.000 A 
ATOM      5  C   UNL     1       4.534   3.914  17.055  0.00  0.00    +0.000 A 
ATOM      6  C   UNL     1       3.310   3.597  16.448  0.00  0.00    +0.000 A 
ATOM      7  C   UNL     1       2.158   3.423  17.205  0.00  0.00    +0.000 A 
ATOM      8  C   UNL     1       2.193   3.568  18.594  0.00  0.00    +0.000 A 
ATOM      9  C   UNL     1       1.014   3.372  19.336  0.00  0.00    +0.000 A 
ATOM     10  C   UNL     1       1.023   3.517  20.721  0.00  0.00    +0.000 A 
ATOM     11  C   UNL     1       2.200   3.865  21.377  0.00  0.00    +0.000 A 
ATOM     12  C   UNL     1       3.381   4.061  20.657  0.00  0.00    +0.000 A 
ATOM     13  C   UNL     1       3.409   3.908  19.249  0.00  0.00    +0.000 A 
ATOM     14  C   UNL     1       5.778   4.007  16.170  0.00  0.00    +0.000 C 
ATOM     15  C   UNL     1       6.562   5.294  16.293  0.00  0.00    +0.000 C 
ATOM     16  O   UNL     1       7.521   5.468  15.554  0.00  0.00    +0.000 OA
ENDROOT
BRANCH   1  17
ATOM     17  N   UNL     1       6.935   7.592  17.083  0.00  0.00    +0.000 NA
ATOM     18  H   UNL     1       6.296   8.334  16.711  0.00  0.00    +0.000 HD
ATOM     19  H   UNL     1       7.680   7.434  16.367  0.00  0.00    +0.000 HD
ENDBRANCH   1  17
TORSDOF 1
ENDMDL
MODEL 6
REMARK VINA RESULT:      -7.0      3.061      5.300
REMARK  Name = 
REMARK  1 active torsions:
REMARK  status: ('A' for Active; 'I' for Inactive)
REMARK    1  A    between atoms: N_1  and  C_2
REMARK                            x       y       z     vdW  Elec       q    Type
REMARK                         _______ _______ _______ _____ _____    ______ ____
ROOT
ATOM      1  C   UNL     1       1.909   2.731  18.789  0.00  0.00    +0.000 C 
ATOM      2  C   UNL     1       3.343   2.290  19.165  0.00  0.00    +0.000 C 
ATOM      3  C   UNL     1       4.259   3.370  19.775  0.00  0.00    +0.000 C 
ATOM      4  C   UNL     1       4.175   4.693  19.036  0.00  0.00    +0.000 A 
ATOM      5  C   UNL     1       2.980   5.451  19.192  0.00  0.00    +0.000 A 
ATOM      6  C   UNL     1       2.846   6.676  18.523  0.00  0.00    +0.000 A 
ATOM      7  C   UNL     1       3.872   7.174  17.729  0.00  0.00    +0.000 A 
ATOM      8  C   UNL     1       5.060   6.458  17.573  0.00  0.00    +0.000 A 
ATOM      9  C   UNL     1       6.087   6.994  16.774  0.00  0.00    +0.000 A 
ATOM     10  C   UNL     1       7.278   6.295  16.598  0.00  0.00    +0.000 A 
ATOM     11  C   UNL     1       7.456   5.057  17.208  0.00  0.00    +0.000 A 
ATOM     12  C   UNL     1       6.449   4.510  18.008  0.00  0.00    +0.000 A 
ATOM     13  C   UNL     1       5.230   5.201  18.217  0.00  0.00    +0.000 A 
ATOM     14  C   UNL     1       1.845   5.005  20.116  0.00  0.00    +0.000 C 
ATOM     15  C   UNL     1       1.300   3.620  19.845  0.00  0.00    +0.000 C 
ATOM     16  O   UNL     1       0.338   3.234  20.494  0.00  0.00    +0.000 OA
ENDROOT
BRANCH   1  17
ATOM     17  N   UNL     1       1.089   1.537  18.557  0.00  0.00    +0.000 NA
ATOM     18  H   UNL     1       0.098   1.742  18.821  0.00  0.00    +0.000 HD
ATOM     19  H   UNL     1       1.419   0.755  19.168  0.00  0.00    +0.000 HD
ENDBRANCH   1  17
TORSDOF 1
ENDMDL
MODEL 7
REMARK VINA RESULT:      -6.8      1.439      2.028
REMARK  Name = 
REMARK  1 active torsions:
REMARK  status: ('A' for Active; 'I' for Inactive)
REMARK    1  A    between atoms: N_1  and  C_2
REMARK                            x       y       z     vdW  Elec       q    Type
REMARK                         _______ _______ _______ _____ _____    ______ ____
ROOT
ATOM      1  C   UNL     1       6.776   4.792  17.279  0.00  0.00    +0.000 C 
ATOM      2  C   UNL     1       5.780   3.671  17.655  0.00  0.00    +0.000 C 
ATOM      3  C   UNL     1       4.296   3.925  17.315  0.00  0.00    +0.000 C 
ATOM      4  C   UNL     1       3.844   5.325  17.684  0.00  0.00    +0.000 A 
ATOM      5  C   UNL     1       4.332   6.399  16.885  0.00  0.00    +0.000 A 
ATOM      6  C   UNL     1       3.953   7.714  17.188  0.00  0.00    +0.000 A 
ATOM      7  C   UNL     1       3.089   7.986  18.241  0.00  0.00    +0.000 A 
ATOM      8  C   UNL     1       2.583   6.950  19.030  0.00  0.00    +0.000 A 
ATOM      9  C   UNL     1       1.699   7.254  20.081  0.00  0.00    +0.000 A 
ATOM     10  C   UNL     1       1.187   6.239  20.885  0.00  0.00    +0.000 A 
ATOM     11  C   UNL     1       1.555   4.917  20.655  0.00  0.00    +0.000 A 
ATOM     12  C   UNL     1       2.430   4.595  19.615  0.00  0.00    +0.000 A 
ATOM     13  C   UNL     1       2.958   5.603  18.770  0.00  0.00    +0.000 A 
ATOM     14  C   UNL     1       5.218   6.165  15.659  0.00  0.00    +0.000 C 
ATOM     15  C   UNL     1       6.480   5.373  15.918  0.00  0.00    +0.000 C 
ATOM     16  O   UNL     1       7.273   5.221  14.999  0.00  0.00    +0.000 OA
ENDROOT
BRANCH   1  17
ATOM     17  N   UNL     1       8.141   4.259  17.348  0.00  0.00    +0.000 NA
ATOM     18  H   UNL     1       8.220   3.620  18.173  0.00  0.00    +0.000 HD
ATOM     19  H   UNL     1       8.821   5.039  17.492  0.00  0.00    +0.000 HD
ENDBRANCH   1  17
TORSDOF 1
ENDMDL
MODEL 8
REMARK VINA RESULT:      -6.8      1.746      2.964
REMARK  Name = 
REMARK  1 active torsions:
REMARK  status: ('A' for Active; 'I' for Inactive)
REMARK    1  A    between atoms: N_1  and  C_2
REMARK                            x       y       z     vdW  Elec       q    Type
REMARK                         _______ _______ _______ _____ _____    ______ ____
ROOT
ATOM      1  C   UNL     1       4.903   6.115  16.002  0.00  0.00    +0.000 C 
ATOM      2  C   UNL     1       5.060   6.589  17.465  0.00  0.00    +0.000 C 
ATOM      3  C   UNL     1       5.280   5.490  18.525  0.00  0.00    +0.000 C 
ATOM      4  C   UNL     1       4.352   4.304  18.338  0.00  0.00    +0.000 A 
ATOM      5  C   UNL     1       4.606   3.448  17.228  0.00  0.00    +0.000 A 
ATOM      6  C   UNL     1       3.773   2.343  17.003  0.00  0.00    +0.000 A 
ATOM      7  C   UNL     1       2.717   2.055  17.860  0.00  0.00    +0.000 A 
ATOM      8  C   UNL     1       2.458   2.868  18.965  0.00  0.00    +0.000 A 
ATOM      9  C   UNL     1       1.391   2.544  19.823  0.00  0.00    +0.000 A 
ATOM     10  C   UNL     1       1.110   3.345  20.927  0.00  0.00    +0.000 A 
ATOM     11  C   UNL     1       1.879   4.475  21.182  0.00  0.00    +0.000 A 
ATOM     12  C   UNL     1       2.944   4.812  20.343  0.00  0.00    +0.000 A 
ATOM     13  C   UNL     1       3.266   4.011  19.219  0.00  0.00    +0.000 A 
ATOM     14  C   UNL     1       5.799   3.656  16.294  0.00  0.00    +0.000 C 
ATOM     15  C   UNL     1       5.887   5.024  15.655  0.00  0.00    +0.000 C 
ATOM     16  O   UNL     1       6.770   5.231  14.834  0.00  0.00    +0.000 OA
ENDROOT
BRANCH   1  17
ATOM     17  N   UNL     1       5.050   7.271  15.109  0.00  0.00    +0.000 NA
ATOM     18  H   UNL     1       5.802   7.073  14.409  0.00  0.00    +0.000 HD
ATOM     19  H   UNL     1       5.348   8.109  15.658  0.00  0.00    +0.000 HD
ENDBRANCH   1  17
TORSDOF 1
ENDMDL
MODEL 9
REMARK VINA RESULT:      -6.8      2.822      4.554
REMARK  Name = 
REMARK  1 active torsions:
REMARK  status: ('A' for Active; 'I' for Inactive)
REMARK    1  A    between atoms: N_1  and  C_2
REMARK                            x       y       z     vdW  Elec       q    Type
REMARK                         _______ _______ _______ _____ _____    ______ ____
ROOT
ATOM      1  C   UNL     1       4.147   2.501  20.302  0.00  0.00    +0.000 C 
ATOM      2  C   UNL     1       2.893   2.826  21.148  0.00  0.00    +0.000 C 
ATOM      3  C   UNL     1       1.722   3.507  20.410  0.00  0.00    +0.000 C 
ATOM      4  C   UNL     1       2.180   4.629  19.497  0.00  0.00    +0.000 A 
ATOM      5  C   UNL     1       2.869   4.260  18.307  0.00  0.00    +0.000 A 
ATOM      6  C   UNL     1       3.323   5.258  17.433  0.00  0.00    +0.000 A 
ATOM      7  C   UNL     1       3.090   6.602  17.698  0.00  0.00    +0.000 A 
ATOM      8  C   UNL     1       2.402   6.990  18.850  0.00  0.00    +0.000 A 
ATOM      9  C   UNL     1       2.168   8.357  19.085  0.00  0.00    +0.000 A 
ATOM     10  C   UNL     1       1.491   8.768  20.230  0.00  0.00    +0.000 A 
ATOM     11  C   UNL     1       1.047   7.825  21.152  0.00  0.00    +0.000 A 
ATOM     12  C   UNL     1       1.267   6.462  20.935  0.00  0.00    +0.000 A 
ATOM     13  C   UNL     1       1.942   6.011  19.773  0.00  0.00    +0.000 A 
ATOM     14  C   UNL     1       3.086   2.798  17.910  0.00  0.00    +0.000 C 
ATOM     15  C   UNL     1       3.783   1.946  18.947  0.00  0.00    +0.000 C 
ATOM     16  O   UNL     1       4.061   0.789  18.662  0.00  0.00    +0.000 OA
ENDROOT
BRANCH   1  17
ATOM     17  N   UNL     1       4.998   1.570  21.051  0.00  0.00    +0.000 NA
ATOM     18  H   UNL     1       5.662   1.102  20.391  0.00  0.00    +0.000 HD
ATOM     19  H   UNL     1       4.410   0.821  21.485  0.00  0.00    +0.000 HD
ENDBRANCH   1  17
TORSDOF 1
ENDMDL
