MODEL 1
REMARK VINA RESULT:      -7.0      0.000      0.000
REMARK  Name = 
REMARK  7 active torsions:
REMARK  status: ('A' for Active; 'I' for Inactive)
REMARK    1  A    between atoms: C_1  and  O_2
REMARK    2  A    between atoms: O_2  and  C_3
REMARK    3  A    between atoms: C_7  and  O_8
REMARK    4  A    between atoms: O_8  and  C_9
REMARK    5  A    between atoms: C_10  and  C_11
REMARK    6  A    between atoms: C_12  and  C_13
REMARK    7  A    between atoms: C_13  and  C_15
REMARK                            x       y       z     vdW  Elec       q    Type
REMARK                         _______ _______ _______ _____ _____    ______ ____
ROOT
ATOM      1  C   UNL     1       3.281   6.103  18.909  0.00  0.00    +0.000 A 
ATOM      2  C   UNL     1       2.099   6.184  19.658  0.00  0.00    +0.000 A 
ATOM      3  C   UNL     1       1.685   5.118  20.446  0.00  0.00    +0.000 A 
ATOM      4  C   UNL     1       2.437   3.950  20.472  0.00  0.00    +0.000 A 
ATOM      5  C   UNL     1       3.590   3.816  19.681  0.00  0.00    +0.000 A 
ATOM      6  C   UNL     1       4.030   4.896  18.873  0.00  0.00    +0.000 A 
ENDROOT
BRANCH   1   8
ATOM      7  C   UNL     1       2.745   8.176  17.902  0.00  0.00    +0.000 C 
ATOM      8  O   UNL     1       3.723   7.168  18.152  0.00  0.00    +0.000 OA
ENDBRANCH   1   8
BRANCH   5   9
ATOM      9  O   UNL     1       4.359   2.675  19.713  0.00  0.00    +0.000 OA
ATOM     10  C   UNL     1       3.887   1.572  18.945  0.00  0.00    +0.000 C 
ENDBRANCH   5   9
BRANCH   6  11
ATOM     11  C   UNL     1       5.290   4.840  18.079  0.00  0.00    +0.000 C 
ATOM     12  C   UNL     1       5.386   4.670  16.747  0.00  0.00    +0.000 C 
BRANCH  12  13
ATOM     13  C   UNL     1       6.724   4.552  16.094  0.00  0.00    +0.000 C 
ATOM     14  O   UNL     1       7.762   4.464  16.744  0.00  0.00    +0.000 OA
BRANCH  13  15
ATOM     15  C   UNL     1       6.776   4.479  14.603  0.00  0.00    +0.000 A 
ATOM     16  C   UNL     1       7.673   5.250  13.855  0.00  0.00    +0.000 A 
ATOM     17  C   UNL     1       7.709   5.128  12.461  0.00  0.00    +0.000 A 
ATOM     18  C   UNL     1       6.858   4.233  11.812  0.00  0.00    +0.000 A 
ATOM     19  C   UNL     1       5.974   3.450  12.553  0.00  0.00    +0.000 A 
ATOM     20  C   UNL     1       5.935   3.569  13.944  0.00  0.00    +0.000 A 
ENDBRANCH  13  15
ENDBRANCH  12  13
ENDBRANCH   6  11
TORSDOF 5
ENDMDL
MODEL 2
REMARK VINA RESULT:      -7.0      0.837      2.955
REMARK  Name = 
REMARK  7 active torsions:
REMARK  status: ('A' for Active; 'I' for Inactive)
REMARK    1  A    between atoms: C_1  and  O_2
REMARK    2  A    between atoms: O_2  and  C_3
REMARK    3  A    between atoms: C_7  and  O_8
REMARK    4  A    between atoms: O_8  and  C_9
REMARK    5  A    between atoms: C_10  and  C_11
REMARK    6  A    between atoms: C_12  and  C_13
REMARK    7  A    between atoms: C_13  and  C_15
REMARK                            x       y       z     vdW  Elec       q    Type
REMARK                         _______ _______ _______ _____ _____    ______ ____
ROOT
ATOM      1  C   UNL     1       3.943   4.376  19.674  0.00  0.00    +0.000 A 
ATOM      2  C   UNL     1       2.852   4.255  20.546  0.00  0.00    +0.000 A 
ATOM      3  C   UNL     1       1.882   5.247  20.608  0.00  0.00    +0.000 A 
ATOM      4  C   UNL     1       2.008   6.382  19.817  0.00  0.00    +0.000 A 
ATOM      5  C   UNL     1       3.124   6.561  18.982  0.00  0.00    +0.000 A 
ATOM      6  C   UNL     1       4.123   5.556  18.903  0.00  0.00    +0.000 A 
ENDROOT
BRANCH   1   8
ATOM      7  C   UNL     1       4.525   2.136  20.167  0.00  0.00    +0.000 C 
ATOM      8  O   UNL     1       4.893   3.381  19.575  0.00  0.00    +0.000 OA
ENDBRANCH   1   8
BRANCH   5   9
ATOM      9  O   UNL     1       3.253   7.667  18.176  0.00  0.00    +0.000 OA
ATOM     10  C   UNL     1       2.052   8.370  17.867  0.00  0.00    +0.000 C 
ENDBRANCH   5   9
BRANCH   6  11
ATOM     11  C   UNL     1       5.285   5.653  17.975  0.00  0.00    +0.000 C 
ATOM     12  C   UNL     1       5.238   5.595  16.631  0.00  0.00    +0.000 C 
BRANCH  12  13
ATOM     13  C   UNL     1       6.498   5.624  15.829  0.00  0.00    +0.000 C 
ATOM     14  O   UNL     1       7.532   6.129  16.256  0.00  0.00    +0.000 OA
BRANCH  13  15
ATOM     15  C   UNL     1       6.496   4.960  14.491  0.00  0.00    +0.000 A 
ATOM     16  C   UNL     1       7.543   5.130  13.579  0.00  0.00    +0.000 A 
ATOM     17  C   UNL     1       7.516   4.463  12.348  0.00  0.00    +0.000 A 
ATOM     18  C   UNL     1       6.450   3.622  12.028  0.00  0.00    +0.000 A 
ATOM     19  C   UNL     1       5.411   3.435  12.940  0.00  0.00    +0.000 A 
ATOM     20  C   UNL     1       5.436   4.098  14.169  0.00  0.00    +0.000 A 
ENDBRANCH  13  15
ENDBRANCH  12  13
ENDBRANCH   6  11
TORSDOF 5
ENDMDL
MODEL 3
REMARK VINA RESULT:      -6.9      1.003      2.961
REMARK  Name = 
REMARK  7 active torsions:
REMARK  status: ('A' for Active; 'I' for Inactive)
REMARK    1  A    between atoms: C_1  and  O_2
REMARK    2  A    between atoms: O_2  and  C_3
REMARK    3  A    between atoms: C_7  and  O_8
REMARK    4  A    between atoms: O_8  and  C_9
REMARK    5  A    between atoms: C_10  and  C_11
REMARK    6  A    between atoms: C_12  and  C_13
REMARK    7  A    between atoms: C_13  and  C_15
REMARK                            x       y       z     vdW  Elec       q    Type
REMARK                         _______ _______ _______ _____ _____    ______ ____
ROOT
ATOM      1  C   UNL     1       3.724   2.895  19.623  0.00  0.00    +0.000 A 
ATOM      2  C   UNL     1       2.565   2.529  20.322  0.00  0.00    +0.000 A 
ATOM      3  C   UNL     1       1.398   3.273  20.198  0.00  0.00    +0.000 A 
ATOM      4  C   UNL     1       1.388   4.406  19.395  0.00  0.00    +0.000 A 
ATOM      5  C   UNL     1       2.552   4.835  18.735  0.00  0.00    +0.000 A 
ATOM      6  C   UNL     1       3.751   4.085  18.846  0.00  0.00    +0.000 A 
ENDROOT
BRANCH   1   8
ATOM      7  C   UNL     1       5.029   1.407  20.919  0.00  0.00    +0.000 C 
ATOM      8  O   UNL     1       4.877   2.144  19.706  0.00  0.00    +0.000 OA
ENDBRANCH   1   8
BRANCH   5   9
ATOM      9  O   UNL     1       2.552   5.941  17.917  0.00  0.00    +0.000 OA
ATOM     10  C   UNL     1       2.636   7.208  18.565  0.00  0.00    +0.000 C 
ENDBRANCH   5   9
BRANCH   6  11
ATOM     11  C   UNL     1       4.992   4.444  18.103  0.00  0.00    +0.000 C 
ATOM     12  C   UNL     1       5.247   4.188  16.807  0.00  0.00    +0.000 C 
BRANCH  12  13
ATOM     13  C   UNL     1       6.573   4.536  16.214  0.00  0.00    +0.000 C 
ATOM     14  O   UNL     1       7.546   4.815  16.909  0.00  0.00    +0.000 OA
BRANCH  13  15
ATOM     15  C   UNL     1       6.718   4.477  14.728  0.00  0.00    +0.000 A 
ATOM     16  C   UNL     1       7.674   5.239  14.047  0.00  0.00    +0.000 A 
ATOM     17  C   UNL     1       7.795   5.131  12.657  0.00  0.00    +0.000 A 
ATOM     18  C   UNL     1       6.971   4.258  11.945  0.00  0.00    +0.000 A 
ATOM     19  C   UNL     1       6.028   3.483  12.621  0.00  0.00    +0.000 A 
ATOM     20  C   UNL     1       5.905   3.589  14.007  0.00  0.00    +0.000 A 
ENDBRANCH  13  15
ENDBRANCH  12  13
ENDBRANCH   6  11
TORSDOF 5
ENDMDL
MODEL 4
REMARK VINA RESULT:      -6.8      0.546      1.211
REMARK  Name = 
REMARK  7 active torsions:
REMARK  status: ('A' for Active; 'I' for Inactive)
REMARK    1  A    between atoms: C_1  and  O_2
REMARK    2  A    between atoms: O_2  and  C_3
REMARK    3  A    between atoms: C_7  and  O_8
REMARK    4  A    between atoms: O_8  and  C_9
REMARK    5  A    between atoms: C_10  and  C_11
REMARK    6  A    between atoms: C_12  and  C_13
REMARK    7  A    between atoms: C_13  and  C_15
REMARK                            x       y       z     vdW  Elec       q    Type
REMARK                         _______ _______ _______ _____ _____    ______ ____
ROOT
ATOM      1  C   UNL     1       3.121   5.774  19.119  0.00  0.00    +0.000 A 
ATOM      2  C   UNL     1       1.920   5.744  19.841  0.00  0.00    +0.000 A 
ATOM      3  C   UNL     1       1.473   4.565  20.425  0.00  0.00    +0.000 A 
ATOM      4  C   UNL     1       2.212   3.400  20.271  0.00  0.00    +0.000 A 
ATOM      5  C   UNL     1       3.386   3.384  19.499  0.00  0.00    +0.000 A 
ATOM      6  C   UNL     1       3.859   4.579  18.898  0.00  0.00    +0.000 A 
ENDROOT
BRANCH   1   8
ATOM      7  C   UNL     1       2.594   7.797  18.012  0.00  0.00    +0.000 C 
ATOM      8  O   UNL     1       3.595   6.945  18.566  0.00  0.00    +0.000 OA
ENDBRANCH   1   8
BRANCH   5   9
ATOM      9  O   UNL     1       4.141   2.244  19.356  0.00  0.00    +0.000 OA
ATOM     10  C   UNL     1       4.778   1.754  20.533  0.00  0.00    +0.000 C 
ENDBRANCH   5   9
BRANCH   6  11
ATOM     11  C   UNL     1       5.139   4.641  18.138  0.00  0.00    +0.000 C 
ATOM     12  C   UNL     1       5.270   4.675  16.799  0.00  0.00    +0.000 C 
BRANCH  12  13
ATOM     13  C   UNL     1       6.626   4.653  16.171  0.00  0.00    +0.000 C 
ATOM     14  O   UNL     1       7.654   4.734  16.836  0.00  0.00    +0.000 OA
BRANCH  13  15
ATOM     15  C   UNL     1       6.713   4.464  14.691  0.00  0.00    +0.000 A 
ATOM     16  C   UNL     1       5.858   3.594  14.005  0.00  0.00    +0.000 A 
ATOM     17  C   UNL     1       5.954   3.470  12.614  0.00  0.00    +0.000 A 
ATOM     18  C   UNL     1       6.895   4.218  11.905  0.00  0.00    +0.000 A 
ATOM     19  C   UNL     1       7.738   5.098  12.582  0.00  0.00    +0.000 A 
ATOM     20  C   UNL     1       7.645   5.225  13.970  0.00  0.00    +0.000 A 
ENDBRANCH  13  15
ENDBRANCH  12  13
ENDBRANCH   6  11
TORSDOF 5
ENDMDL
MODEL 5
REMARK VINA RESULT:      -6.7      1.190      1.657
REMARK  Name = 
REMARK  7 active torsions:
REMARK  status: ('A' for Active; 'I' for Inactive)
REMARK    1  A    between atoms: C_1  and  O_2
REMARK    2  A    between atoms: O_2  and  C_3
REMARK    3  A    between atoms: C_7  and  O_8
REMARK    4  A    between atoms: O_8  and  C_9
REMARK    5  A    between atoms: C_10  and  C_11
REMARK    6  A    between atoms: C_12  and  C_13
REMARK    7  A    between atoms: C_13  and  C_15
REMARK                            x       y       z     vdW  Elec       q    Type
REMARK                         _______ _______ _______ _____ _____    ______ ____
ROOT
ATOM      1  C   UNL     1       2.612   5.032  19.403  0.00  0.00    +0.000 A 
ATOM      2  C   UNL     1       1.374   4.794  20.016  0.00  0.00    +0.000 A 
ATOM      3  C   UNL     1       0.766   3.548  19.924  0.00  0.00    +0.000 A 
ATOM      4  C   UNL     1       1.379   2.537  19.195  0.00  0.00    +0.000 A 
ATOM      5  C   UNL     1       2.587   2.766  18.515  0.00  0.00    +0.000 A 
ATOM      6  C   UNL     1       3.224   4.031  18.601  0.00  0.00    +0.000 A 
ENDROOT
BRANCH   1   8
ATOM      7  C   UNL     1       2.458   7.377  19.131  0.00  0.00    +0.000 C 
ATOM      8  O   UNL     1       3.244   6.252  19.518  0.00  0.00    +0.000 OA
ENDBRANCH   1   8
BRANCH   5   9
ATOM      9  O   UNL     1       3.218   1.769  17.809  0.00  0.00    +0.000 OA
ATOM     10  C   UNL     1       4.074   0.908  18.555  0.00  0.00    +0.000 C 
ENDBRANCH   5   9
BRANCH   6  11
ATOM     11  C   UNL     1       4.546   4.306  17.971  0.00  0.00    +0.000 C 
ATOM     12  C   UNL     1       4.806   4.348  16.651  0.00  0.00    +0.000 C 
BRANCH  12  13
ATOM     13  C   UNL     1       6.202   4.554  16.162  0.00  0.00    +0.000 C 
ATOM     14  O   UNL     1       7.133   4.795  16.925  0.00  0.00    +0.000 OA
BRANCH  13  15
ATOM     15  C   UNL     1       6.465   4.400  14.699  0.00  0.00    +0.000 A 
ATOM     16  C   UNL     1       5.703   3.543  13.897  0.00  0.00    +0.000 A 
ATOM     17  C   UNL     1       5.964   3.451  12.524  0.00  0.00    +0.000 A 
ATOM     18  C   UNL     1       6.978   4.218  11.949  0.00  0.00    +0.000 A 
ATOM     19  C   UNL     1       7.729   5.087  12.741  0.00  0.00    +0.000 A 
ATOM     20  C   UNL     1       7.471   5.181  14.110  0.00  0.00    +0.000 A 
ENDBRANCH  13  15
ENDBRANCH  12  13
ENDBRANCH   6  11
TORSDOF 5
ENDMDL
MODEL 6
REMARK VINA RESULT:      -6.7      0.772      3.066
REMARK  Name = 
REMARK  7 active torsions:
REMARK  status: ('A' for Active; 'I' for Inactive)
REMARK    1  A    between atoms: C_1  and  O_2
REMARK    2  A    between atoms: O_2  and  C_3
REMARK    3  A    between atoms: C_7  and  O_8
REMARK    4  A    between atoms: O_8  and  C_9
REMARK    5  A    between atoms: C_10  and  C_11
REMARK    6  A    between atoms: C_12  and  C_13
REMARK    7  A    between atoms: C_13  and  C_15
REMARK                            x       y       z     vdW  Elec       q    Type
REMARK                         _______ _______ _______ _____ _____    ______ ____
ROOT
ATOM      1  C   UNL     1       3.394   3.763  19.042  0.00  0.00    +0.000 A 
ATOM      2  C   UNL     1       2.319   3.428  19.877  0.00  0.00    +0.000 A 
ATOM      3  C   UNL     1       1.482   4.414  20.383  0.00  0.00    +0.000 A 
ATOM      4  C   UNL     1       1.728   5.747  20.080  0.00  0.00    +0.000 A 
ATOM      5  C   UNL     1       2.836   6.118  19.300  0.00  0.00    +0.000 A 
ATOM      6  C   UNL     1       3.700   5.125  18.771  0.00  0.00    +0.000 A 
ENDROOT
BRANCH   1   8
ATOM      7  C   UNL     1       3.635   1.488  18.441  0.00  0.00    +0.000 C 
ATOM      8  O   UNL     1       4.210   2.792  18.501  0.00  0.00    +0.000 OA
ENDBRANCH   1   8
BRANCH   5   9
ATOM      9  O   UNL     1       3.080   7.431  18.972  0.00  0.00    +0.000 OA
ATOM     10  C   UNL     1       2.235   8.004  17.978  0.00  0.00    +0.000 C 
ENDBRANCH   5   9
BRANCH   6  11
ATOM     11  C   UNL     1       4.840   5.453  17.870  0.00  0.00    +0.000 C 
ATOM     12  C   UNL     1       5.004   5.027  16.604  0.00  0.00    +0.000 C 
BRANCH  12  13
ATOM     13  C   UNL     1       6.244   5.371  15.845  0.00  0.00    +0.000 C 
ATOM     14  O   UNL     1       7.137   6.060  16.330  0.00  0.00    +0.000 OA
BRANCH  13  15
ATOM     15  C   UNL     1       6.411   4.800  14.474  0.00  0.00    +0.000 A 
ATOM     16  C   UNL     1       5.517   3.859  13.951  0.00  0.00    +0.000 A 
ATOM     17  C   UNL     1       5.694   3.372  12.650  0.00  0.00    +0.000 A 
ATOM     18  C   UNL     1       6.755   3.828  11.867  0.00  0.00    +0.000 A 
ATOM     19  C   UNL     1       7.639   4.779  12.378  0.00  0.00    +0.000 A 
ATOM     20  C   UNL     1       7.466   5.267  13.675  0.00  0.00    +0.000 A 
ENDBRANCH  13  15
ENDBRANCH  12  13
ENDBRANCH   6  11
TORSDOF 5
ENDMDL
MODEL 7
REMARK VINA RESULT:      -6.7      2.393      3.518
REMARK  Name = 
REMARK  7 active torsions:
REMARK  status: ('A' for Active; 'I' for Inactive)
REMARK    1  A    between atoms: C_1  and  O_2
REMARK    2  A    between atoms: O_2  and  C_3
REMARK    3  A    between atoms: C_7  and  O_8
REMARK    4  A    between atoms: O_8  and  C_9
REMARK    5  A    between atoms: C_10  and  C_11
REMARK    6  A    between atoms: C_12  and  C_13
REMARK    7  A    between atoms: C_13  and  C_15
REMARK                            x       y       z     vdW  Elec       q    Type
REMARK                         _______ _______ _______ _____ _____    ______ ____
ROOT
ATOM      1  C   UNL     1       2.132   5.066  19.665  0.00  0.00    +0.000 A 
ATOM      2  C   UNL     1       1.021   4.599  20.380  0.00  0.00    +0.000 A 
ATOM      3  C   UNL     1       0.610   3.277  20.265  0.00  0.00    +0.000 A 
ATOM      4  C   UNL     1       1.291   2.417  19.413  0.00  0.00    +0.000 A 
ATOM      5  C   UNL     1       2.368   2.874  18.635  0.00  0.00    +0.000 A 
ATOM      6  C   UNL     1       2.804   4.220  18.742  0.00  0.00    +0.000 A 
ENDROOT
BRANCH   1   8
ATOM      7  C   UNL     1       1.717   7.218  20.558  0.00  0.00    +0.000 C 
ATOM      8  O   UNL     1       2.574   6.366  19.799  0.00  0.00    +0.000 OA
ENDBRANCH   1   8
BRANCH   5   9
ATOM      9  O   UNL     1       3.067   2.030  17.804  0.00  0.00    +0.000 OA
ATOM     10  C   UNL     1       3.919   1.080  18.438  0.00  0.00    +0.000 C 
ENDBRANCH   5   9
BRANCH   6  11
ATOM     11  C   UNL     1       3.990   4.738  18.004  0.00  0.00    +0.000 C 
ATOM     12  C   UNL     1       4.385   4.371  16.771  0.00  0.00    +0.000 C 
BRANCH  12  13
ATOM     13  C   UNL     1       5.646   4.917  16.187  0.00  0.00    +0.000 C 
ATOM     14  O   UNL     1       5.933   4.772  15.002  0.00  0.00    +0.000 OA
BRANCH  13  15
ATOM     15  C   UNL     1       6.546   5.713  17.075  0.00  0.00    +0.000 A 
ATOM     16  C   UNL     1       7.243   5.128  18.137  0.00  0.00    +0.000 A 
ATOM     17  C   UNL     1       8.101   5.905  18.926  0.00  0.00    +0.000 A 
ATOM     18  C   UNL     1       8.270   7.263  18.651  0.00  0.00    +0.000 A 
ATOM     19  C   UNL     1       7.590   7.848  17.582  0.00  0.00    +0.000 A 
ATOM     20  C   UNL     1       6.735   7.075  16.794  0.00  0.00    +0.000 A 
ENDBRANCH  13  15
ENDBRANCH  12  13
ENDBRANCH   6  11
TORSDOF 5
ENDMDL
MODEL 8
REMARK VINA RESULT:      -6.6      2.319      3.374
REMARK  Name = 
REMARK  7 active torsions:
REMARK  status: ('A' for Active; 'I' for Inactive)
REMARK    1  A    between atoms: C_1  and  O_2
REMARK    2  A    between atoms: O_2  and  C_3
REMARK    3  A    between atoms: C_7  and  O_8
REMARK    4  A    between atoms: O_8  and  C_9
REMARK    5  A    between atoms: C_10  and  C_11
REMARK    6  A    between atoms: C_12  and  C_13
REMARK    7  A    between atoms: C_13  and  C_15
REMARK                            x       y       z     vdW  Elec       q    Type
REMARK                         _______ _______ _______ _____ _____    ______ ____
ROOT
ATOM      1  C   UNL     1       2.358   5.222  19.719  0.00  0.00    +0.000 A 
ATOM      2  C   UNL     1       1.245   4.860  20.491  0.00  0.00    +0.000 A 
ATOM      3  C   UNL     1       1.102   3.561  20.961  0.00  0.00    +0.000 A 
ATOM      4  C   UNL     1       2.058   2.606  20.642  0.00  0.00    +0.000 A 
ATOM      5  C   UNL     1       3.150   2.923  19.816  0.00  0.00    +0.000 A 
ATOM      6  C   UNL     1       3.314   4.246  19.329  0.00  0.00    +0.000 A 
ENDROOT
BRANCH   1   8
ATOM      7  C   UNL     1       1.954   7.520  20.111  0.00  0.00    +0.000 C 
ATOM      8  O   UNL     1       2.532   6.517  19.277  0.00  0.00    +0.000 OA
ENDBRANCH   1   8
BRANCH   5   9
ATOM      9  O   UNL     1       4.117   1.995  19.510  0.00  0.00    +0.000 OA
ATOM     10  C   UNL     1       3.787   1.045  18.499  0.00  0.00    +0.000 C 
ENDBRANCH   5   9
BRANCH   6  11
ATOM     11  C   UNL     1       4.494   4.660  18.519  0.00  0.00    +0.000 C 
ATOM     12  C   UNL     1       4.804   4.226  17.283  0.00  0.00    +0.000 C 
BRANCH  12  13
ATOM     13  C   UNL     1       6.069   4.668  16.622  0.00  0.00    +0.000 C 
ATOM     14  O   UNL     1       6.437   4.208  15.545  0.00  0.00    +0.000 OA
BRANCH  13  15
ATOM     15  C   UNL     1       6.866   5.748  17.278  0.00  0.00    +0.000 A 
ATOM     16  C   UNL     1       6.872   7.061  16.794  0.00  0.00    +0.000 A 
ATOM     17  C   UNL     1       7.609   8.050  17.457  0.00  0.00    +0.000 A 
ATOM     18  C   UNL     1       8.333   7.733  18.608  0.00  0.00    +0.000 A 
ATOM     19  C   UNL     1       8.316   6.430  19.105  0.00  0.00    +0.000 A 
ATOM     20  C   UNL     1       7.582   5.442  18.446  0.00  0.00    +0.000 A 
ENDBRANCH  13  15
ENDBRANCH  12  13
ENDBRANCH   6  11
TORSDOF 5
ENDMDL
MODEL 9
REMARK VINA RESULT:      -6.6      1.492      1.656
REMARK  Name = 
REMARK  7 active torsions:
REMARK  status: ('A' for Active; 'I' for Inactive)
REMARK    1  A    between atoms: C_1  and  O_2
REMARK    2  A    between atoms: O_2  and  C_3
REMARK    3  A    between atoms: C_7  and  O_8
REMARK    4  A    between atoms: O_8  and  C_9
REMARK    5  A    between atoms: C_10  and  C_11
REMARK    6  A    between atoms: C_12  and  C_13
REMARK    7  A    between atoms: C_13  and  C_15
REMARK                            x       y       z     vdW  Elec       q    Type
REMARK                         _______ _______ _______ _____ _____    ______ ____
ROOT
ATOM      1  C   UNL     1       2.401   5.539  19.742  0.00  0.00    +0.000 A 
ATOM      2  C   UNL     1       1.597   4.984  20.748  0.00  0.00    +0.000 A 
ATOM      3  C   UNL     1       1.180   3.661  20.672  0.00  0.00    +0.000 A 
ATOM      4  C   UNL     1       1.543   2.888  19.577  0.00  0.00    +0.000 A 
ATOM      5  C   UNL     1       2.292   3.435  18.522  0.00  0.00    +0.000 A 
ATOM      6  C   UNL     1       2.730   4.784  18.584  0.00  0.00    +0.000 A 
ENDROOT
BRANCH   1   8
ATOM      7  C   UNL     1       1.832   7.835  19.779  0.00  0.00    +0.000 C 
ATOM      8  O   UNL     1       2.852   6.839  19.823  0.00  0.00    +0.000 OA
ENDBRANCH   1   8
BRANCH   5   9
ATOM      9  O   UNL     1       2.679   2.677  17.442  0.00  0.00    +0.000 OA
ATOM     10  C   UNL     1       3.554   1.585  17.714  0.00  0.00    +0.000 C 
ENDBRANCH   5   9
BRANCH   6  11
ATOM     11  C   UNL     1       3.596   5.393  17.536  0.00  0.00    +0.000 C 
ATOM     12  C   UNL     1       4.887   5.096  17.297  0.00  0.00    +0.000 C 
BRANCH  12  13
ATOM     13  C   UNL     1       5.657   5.849  16.262  0.00  0.00    +0.000 C 
ATOM     14  O   UNL     1       6.069   6.989  16.456  0.00  0.00    +0.000 OA
BRANCH  13  15
ATOM     15  C   UNL     1       5.979   5.153  14.980  0.00  0.00    +0.000 A 
ATOM     16  C   UNL     1       7.217   5.306  14.346  0.00  0.00    +0.000 A 
ATOM     17  C   UNL     1       7.489   4.611  13.161  0.00  0.00    +0.000 A 
ATOM     18  C   UNL     1       6.531   3.757  12.612  0.00  0.00    +0.000 A 
ATOM     19  C   UNL     1       5.302   3.587  13.249  0.00  0.00    +0.000 A 
ATOM     20  C   UNL     1       5.029   4.279  14.431  0.00  0.00    +0.000 A 
ENDBRANCH  13  15
ENDBRANCH  12  13
ENDBRANCH   6  11
TORSDOF 5
ENDMDL
