MODEL 1
REMARK VINA RESULT:      -9.3      0.000      0.000
REMARK  Name = 
REMARK  6 active torsions:
REMARK  status: ('A' for Active; 'I' for Inactive)
REMARK    1  A    between atoms: C_1  and  N_2
REMARK    2  A    between atoms: C_4  and  C_5
REMARK    3  A    between atoms: C_14  and  C_15
REMARK    4  A    between atoms: C_15  and  S_16
REMARK    5  A    between atoms: S_16  and  N_19
REMARK    6  A    between atoms: N_19  and  C_20
REMARK                            x       y       z     vdW  Elec       q    Type
REMARK                         _______ _______ _______ _____ _____    ______ ____
ROOT
ATOM      1  C   UNL     1      -1.906  12.120  21.487  0.00  0.00    +0.000 A 
ATOM      2  C   UNL     1      -1.813  12.831  20.300  0.00  0.00    +0.000 A 
ATOM      3  N   UNL     1      -0.889  12.587  19.336  0.00  0.00    +0.000 NA
ATOM      4  C   UNL     1       0.004  11.579  19.541  0.00  0.00    +0.000 A 
ATOM      5  C   UNL     1       0.969  11.455  18.455  0.00  0.00    +0.000 A 
ATOM      6  C   UNL     1       1.729  10.405  18.117  0.00  0.00    +0.000 A 
ATOM      7  C   UNL     1       1.811   9.086  18.753  0.00  0.00    +0.000 A 
ATOM      8  C   UNL     1       2.356   8.050  17.977  0.00  0.00    +0.000 A 
ATOM      9  C   UNL     1       2.566   6.768  18.500  0.00  0.00    +0.000 A 
ATOM     10  C   UNL     1       2.202   6.456  19.813  0.00  0.00    +0.000 A 
ATOM     11  C   UNL     1       1.683   7.494  20.598  0.00  0.00    +0.000 A 
ATOM     12  C   UNL     1       1.494   8.796  20.082  0.00  0.00    +0.000 A 
ATOM     13  C   UNL     1       0.987   9.789  21.049  0.00  0.00    +0.000 A 
ATOM     14  O   UNL     1       1.320   9.675  22.233  0.00  0.00    +0.000 OA
ATOM     15  C   UNL     1       0.010  10.833  20.712  0.00  0.00    +0.000 A 
ATOM     16  C   UNL     1      -0.963  11.112  21.683  0.00  0.00    +0.000 A 
ENDROOT
BRANCH   1  20
ATOM     17  C   UNL     1      -6.195  13.493  23.548  0.00  0.00    +0.000 C 
ATOM     18  N   UNL     1      -4.858  12.988  23.352  0.00  0.00    +0.000 N 
ATOM     19  C   UNL     1      -4.226  12.787  22.159  0.00  0.00    +0.000 A 
ATOM     20  C   UNL     1      -2.944  12.378  22.462  0.00  0.00    +0.000 A 
ATOM     21  C   UNL     1      -2.924  12.337  23.875  0.00  0.00    +0.000 A 
ATOM     22  N   UNL     1      -4.088  12.704  24.417  0.00  0.00    +0.000 NA
ENDBRANCH   1  20
BRANCH  10  23
ATOM     23  C   UNL     1       2.360   5.056  20.378  0.00  0.00    +0.000 C 
BRANCH  23  24
ATOM     24  S   UNL     1       3.482   4.131  19.302  0.00  0.00    +0.000 S 
ATOM     25  O   UNL     1       3.946   2.957  20.005  0.00  0.00    +0.000 OA
ATOM     26  O   UNL     1       2.872   4.041  17.996  0.00  0.00    +0.000 OA
BRANCH  24  27
ATOM     27  N   UNL     1       4.860   5.131  19.158  0.00  0.00    +0.000 NA
ATOM     28  H   UNL     1       5.403   5.066  20.027  0.00  0.00    +0.000 HD
BRANCH  27  29
ATOM     29  C   UNL     1       5.770   4.778  17.998  0.00  0.00    +0.000 C 
ATOM     30  C   UNL     1       5.568   5.671  16.769  0.00  0.00    +0.000 C 
ATOM     31  C   UNL     1       5.934   7.123  17.064  0.00  0.00    +0.000 C 
ATOM     32  C   UNL     1       7.401   7.220  17.458  0.00  0.00    +0.000 C 
ATOM     33  C   UNL     1       7.734   6.309  18.639  0.00  0.00    +0.000 C 
ATOM     34  C   UNL     1       7.243   4.872  18.439  0.00  0.00    +0.000 C 
ENDBRANCH  27  29
ENDBRANCH  24  27
ENDBRANCH  23  24
ENDBRANCH  10  23
TORSDOF 5
ENDMDL
MODEL 2
REMARK VINA RESULT:      -8.9      3.001      4.971
REMARK  Name = 
REMARK  6 active torsions:
REMARK  status: ('A' for Active; 'I' for Inactive)
REMARK    1  A    between atoms: C_1  and  N_2
REMARK    2  A    between atoms: C_4  and  C_5
REMARK    3  A    between atoms: C_14  and  C_15
REMARK    4  A    between atoms: C_15  and  S_16
REMARK    5  A    between atoms: S_16  and  N_19
REMARK    6  A    between atoms: N_19  and  C_20
REMARK                            x       y       z     vdW  Elec       q    Type
REMARK                         _______ _______ _______ _____ _____    ______ ____
ROOT
ATOM      1  C   UNL     1       0.863  13.348  20.005  0.00  0.00    +0.000 A 
ATOM      2  C   UNL     1       0.467  13.123  21.314  0.00  0.00    +0.000 A 
ATOM      3  N   UNL     1       0.305  11.891  21.861  0.00  0.00    +0.000 NA
ATOM      4  C   UNL     1       0.551  10.803  21.079  0.00  0.00    +0.000 A 
ATOM      5  C   UNL     1       0.294   9.546  21.770  0.00  0.00    +0.000 A 
ATOM      6  C   UNL     1       0.751   8.319  21.489  0.00  0.00    +0.000 A 
ATOM      7  C   UNL     1       1.632   7.894  20.397  0.00  0.00    +0.000 A 
ATOM      8  C   UNL     1       2.284   6.661  20.562  0.00  0.00    +0.000 A 
ATOM      9  C   UNL     1       3.083   6.107  19.555  0.00  0.00    +0.000 A 
ATOM     10  C   UNL     1       3.297   6.783  18.350  0.00  0.00    +0.000 A 
ATOM     11  C   UNL     1       2.626   8.000  18.170  0.00  0.00    +0.000 A 
ATOM     12  C   UNL     1       1.798   8.551  19.175  0.00  0.00    +0.000 A 
ATOM     13  C   UNL     1       1.123   9.811  18.813  0.00  0.00    +0.000 A 
ATOM     14  O   UNL     1       0.800   9.985  17.634  0.00  0.00    +0.000 OA
ATOM     15  C   UNL     1       0.921  10.928  19.747  0.00  0.00    +0.000 A 
ATOM     16  C   UNL     1       1.082  12.218  19.218  0.00  0.00    +0.000 A 
ENDROOT
BRANCH   1  20
ATOM     17  C   UNL     1       2.744  17.164  17.469  0.00  0.00    +0.000 C 
ATOM     18  N   UNL     1       1.926  16.356  18.340  0.00  0.00    +0.000 N 
ATOM     19  C   UNL     1       1.979  15.000  18.485  0.00  0.00    +0.000 A 
ATOM     20  C   UNL     1       1.077  14.680  19.480  0.00  0.00    +0.000 A 
ATOM     21  C   UNL     1       0.513  15.924  19.842  0.00  0.00    +0.000 A 
ATOM     22  N   UNL     1       1.026  16.943  19.147  0.00  0.00    +0.000 NA
ENDBRANCH   1  20
BRANCH  10  23
ATOM     23  C   UNL     1       4.212   6.232  17.272  0.00  0.00    +0.000 C 
BRANCH  23  24
ATOM     24  S   UNL     1       5.315   5.015  18.030  0.00  0.00    +0.000 S 
ATOM     25  O   UNL     1       5.941   4.234  16.987  0.00  0.00    +0.000 OA
ATOM     26  O   UNL     1       6.093   5.689  19.043  0.00  0.00    +0.000 OA
BRANCH  24  27
ATOM     27  N   UNL     1       4.268   3.924  18.827  0.00  0.00    +0.000 NA
ATOM     28  H   UNL     1       3.467   4.450  19.195  0.00  0.00    +0.000 HD
BRANCH  27  29
ATOM     29  C   UNL     1       3.743   2.806  17.947  0.00  0.00    +0.000 C 
ATOM     30  C   UNL     1       3.240   1.593  18.736  0.00  0.00    +0.000 C 
ATOM     31  C   UNL     1       2.034   1.946  19.602  0.00  0.00    +0.000 C 
ATOM     32  C   UNL     1       0.885   2.422  18.724  0.00  0.00    +0.000 C 
ATOM     33  C   UNL     1       1.298   3.595  17.834  0.00  0.00    +0.000 C 
ATOM     34  C   UNL     1       2.595   3.330  17.063  0.00  0.00    +0.000 C 
ENDBRANCH  27  29
ENDBRANCH  24  27
ENDBRANCH  23  24
ENDBRANCH  10  23
TORSDOF 5
ENDMDL
MODEL 3
REMARK VINA RESULT:      -8.6      2.942      4.726
REMARK  Name = 
REMARK  6 active torsions:
REMARK  status: ('A' for Active; 'I' for Inactive)
REMARK    1  A    between atoms: C_1  and  N_2
REMARK    2  A    between atoms: C_4  and  C_5
REMARK    3  A    between atoms: C_14  and  C_15
REMARK    4  A    between atoms: C_15  and  S_16
REMARK    5  A    between atoms: S_16  and  N_19
REMARK    6  A    between atoms: N_19  and  C_20
REMARK                            x       y       z     vdW  Elec       q    Type
REMARK                         _______ _______ _______ _____ _____    ______ ____
ROOT
ATOM      1  C   UNL     1       0.387  12.485  20.079  0.00  0.00    +0.000 A 
ATOM      2  C   UNL     1       0.075  12.097  21.374  0.00  0.00    +0.000 A 
ATOM      3  N   UNL     1       0.162  10.821  21.828  0.00  0.00    +0.000 NA
ATOM      4  C   UNL     1       0.586   9.857  20.965  0.00  0.00    +0.000 A 
ATOM      5  C   UNL     1       0.588   8.529  21.563  0.00  0.00    +0.000 A 
ATOM      6  C   UNL     1       1.259   7.432  21.185  0.00  0.00    +0.000 A 
ATOM      7  C   UNL     1       2.174   7.261  20.053  0.00  0.00    +0.000 A 
ATOM      8  C   UNL     1       3.050   6.164  20.117  0.00  0.00    +0.000 A 
ATOM      9  C   UNL     1       3.911   5.844  19.061  0.00  0.00    +0.000 A 
ATOM     10  C   UNL     1       3.962   6.632  17.907  0.00  0.00    +0.000 A 
ATOM     11  C   UNL     1       3.071   7.710  17.828  0.00  0.00    +0.000 A 
ATOM     12  C   UNL     1       2.181   8.021  18.881  0.00  0.00    +0.000 A 
ATOM     13  C   UNL     1       1.273   9.154  18.623  0.00  0.00    +0.000 A 
ATOM     14  O   UNL     1       0.892   9.347  17.465  0.00  0.00    +0.000 OA
ATOM     15  C   UNL     1       0.891  10.144  19.641  0.00  0.00    +0.000 A 
ATOM     16  C   UNL     1       0.793  11.475  19.208  0.00  0.00    +0.000 A 
ENDROOT
BRANCH   1  20
ATOM     17  C   UNL     1       1.690  16.910  18.276  0.00  0.00    +0.000 C 
ATOM     18  N   UNL     1       0.935  15.819  18.842  0.00  0.00    +0.000 N 
ATOM     19  C   UNL     1       1.350  14.528  18.993  0.00  0.00    +0.000 A 
ATOM     20  C   UNL     1       0.335  13.868  19.653  0.00  0.00    +0.000 A 
ATOM     21  C   UNL     1      -0.661  14.856  19.824  0.00  0.00    +0.000 A 
ATOM     22  N   UNL     1      -0.298  16.043  19.328  0.00  0.00    +0.000 NA
ENDBRANCH   1  20
BRANCH  10  23
ATOM     23  C   UNL     1       4.935   6.341  16.779  0.00  0.00    +0.000 C 
BRANCH  23  24
ATOM     24  S   UNL     1       5.483   4.623  16.929  0.00  0.00    +0.000 S 
ATOM     25  O   UNL     1       5.187   3.927  15.698  0.00  0.00    +0.000 OA
ATOM     26  O   UNL     1       6.811   4.628  17.498  0.00  0.00    +0.000 OA
BRANCH  24  27
ATOM     27  N   UNL     1       4.431   3.936  18.087  0.00  0.00    +0.000 NA
ATOM     28  H   UNL     1       3.794   4.667  18.423  0.00  0.00    +0.000 HD
BRANCH  27  29
ATOM     29  C   UNL     1       3.600   2.779  17.568  0.00  0.00    +0.000 C 
ATOM     30  C   UNL     1       3.282   1.727  18.636  0.00  0.00    +0.000 C 
ATOM     31  C   UNL     1       2.413   2.303  19.750  0.00  0.00    +0.000 C 
ATOM     32  C   UNL     1       1.086   2.784  19.179  0.00  0.00    +0.000 C 
ATOM     33  C   UNL     1       1.286   3.791  18.047  0.00  0.00    +0.000 C 
ATOM     34  C   UNL     1       2.275   3.305  16.984  0.00  0.00    +0.000 C 
ENDBRANCH  27  29
ENDBRANCH  24  27
ENDBRANCH  23  24
ENDBRANCH  10  23
TORSDOF 5
ENDMDL
MODEL 4
REMARK VINA RESULT:      -8.5      1.089      1.381
REMARK  Name = 
REMARK  6 active torsions:
REMARK  status: ('A' for Active; 'I' for Inactive)
REMARK    1  A    between atoms: C_1  and  N_2
REMARK    2  A    between atoms: C_4  and  C_5
REMARK    3  A    between atoms: C_14  and  C_15
REMARK    4  A    between atoms: C_15  and  S_16
REMARK    5  A    between atoms: S_16  and  N_19
REMARK    6  A    between atoms: N_19  and  C_20
REMARK                            x       y       z     vdW  Elec       q    Type
REMARK                         _______ _______ _______ _____ _____    ______ ____
ROOT
ATOM      1  C   UNL     1      -1.928  12.180  20.883  0.00  0.00    +0.000 A 
ATOM      2  C   UNL     1      -1.641  13.003  19.805  0.00  0.00    +0.000 A 
ATOM      3  N   UNL     1      -0.586  12.823  18.969  0.00  0.00    +0.000 NA
ATOM      4  C   UNL     1       0.244  11.767  19.197  0.00  0.00    +0.000 A 
ATOM      5  C   UNL     1       1.359  11.718  18.260  0.00  0.00    +0.000 A 
ATOM      6  C   UNL     1       2.139  10.680  17.930  0.00  0.00    +0.000 A 
ATOM      7  C   UNL     1       2.095   9.302  18.429  0.00  0.00    +0.000 A 
ATOM      8  C   UNL     1       2.730   8.329  17.639  0.00  0.00    +0.000 A 
ATOM      9  C   UNL     1       2.831   6.995  18.048  0.00  0.00    +0.000 A 
ATOM     10  C   UNL     1       2.265   6.566  19.253  0.00  0.00    +0.000 A 
ATOM     11  C   UNL     1       1.655   7.538  20.057  0.00  0.00    +0.000 A 
ATOM     12  C   UNL     1       1.574   8.891  19.659  0.00  0.00    +0.000 A 
ATOM     13  C   UNL     1       0.948   9.799  20.638  0.00  0.00    +0.000 A 
ATOM     14  O   UNL     1       1.094   9.554  21.839  0.00  0.00    +0.000 OA
ATOM     15  C   UNL     1       0.055  10.908  20.271  0.00  0.00    +0.000 A 
ATOM     16  C   UNL     1      -1.047  11.123  21.111  0.00  0.00    +0.000 A 
ENDROOT
BRANCH   1  20
ATOM     17  C   UNL     1      -4.903  12.466  24.833  0.00  0.00    +0.000 C 
ATOM     18  N   UNL     1      -4.394  12.502  23.483  0.00  0.00    +0.000 N 
ATOM     19  C   UNL     1      -3.095  12.354  23.095  0.00  0.00    +0.000 A 
ATOM     20  C   UNL     1      -3.096  12.376  21.715  0.00  0.00    +0.000 A 
ATOM     21  C   UNL     1      -4.455  12.574  21.379  0.00  0.00    +0.000 A 
ATOM     22  N   UNL     1      -5.244  12.654  22.453  0.00  0.00    +0.000 NA
ENDBRANCH   1  20
BRANCH  10  23
ATOM     23  C   UNL     1       2.305   5.111  19.684  0.00  0.00    +0.000 C 
BRANCH  23  24
ATOM     24  S   UNL     1       2.265   4.076  18.201  0.00  0.00    +0.000 S 
ATOM     25  O   UNL     1       2.595   2.717  18.566  0.00  0.00    +0.000 OA
ATOM     26  O   UNL     1       1.060   4.394  17.469  0.00  0.00    +0.000 OA
BRANCH  24  27
ATOM     27  N   UNL     1       3.590   4.615  17.266  0.00  0.00    +0.000 NA
ATOM     28  H   UNL     1       3.725   5.617  17.438  0.00  0.00    +0.000 HD
BRANCH  27  29
ATOM     29  C   UNL     1       4.894   3.899  17.559  0.00  0.00    +0.000 C 
ATOM     30  C   UNL     1       5.743   3.639  16.311  0.00  0.00    +0.000 C 
ATOM     31  C   UNL     1       6.203   4.942  15.663  0.00  0.00    +0.000 C 
ATOM     32  C   UNL     1       7.063   5.733  16.639  0.00  0.00    +0.000 C 
ATOM     33  C   UNL     1       6.336   5.990  17.959  0.00  0.00    +0.000 C 
ATOM     34  C   UNL     1       5.728   4.720  18.561  0.00  0.00    +0.000 C 
ENDBRANCH  27  29
ENDBRANCH  24  27
ENDBRANCH  23  24
ENDBRANCH  10  23
TORSDOF 5
ENDMDL
MODEL 5
REMARK VINA RESULT:      -8.5      0.931      1.286
REMARK  Name = 
REMARK  6 active torsions:
REMARK  status: ('A' for Active; 'I' for Inactive)
REMARK    1  A    between atoms: C_1  and  N_2
REMARK    2  A    between atoms: C_4  and  C_5
REMARK    3  A    between atoms: C_14  and  C_15
REMARK    4  A    between atoms: C_15  and  S_16
REMARK    5  A    between atoms: S_16  and  N_19
REMARK    6  A    between atoms: N_19  and  C_20
REMARK                            x       y       z     vdW  Elec       q    Type
REMARK                         _______ _______ _______ _____ _____    ______ ____
ROOT
ATOM      1  C   UNL     1      -2.348  12.441  21.682  0.00  0.00    +0.000 A 
ATOM      2  C   UNL     1      -2.226  13.261  20.570  0.00  0.00    +0.000 A 
ATOM      3  N   UNL     1      -1.249  13.137  19.636  0.00  0.00    +0.000 NA
ATOM      4  C   UNL     1      -0.330  12.144  19.794  0.00  0.00    +0.000 A 
ATOM      5  C   UNL     1       0.689  12.152  18.752  0.00  0.00    +0.000 A 
ATOM      6  C   UNL     1       1.503  11.163  18.359  0.00  0.00    +0.000 A 
ATOM      7  C   UNL     1       1.603   9.795  18.877  0.00  0.00    +0.000 A 
ATOM      8  C   UNL     1       2.223   8.852  18.039  0.00  0.00    +0.000 A 
ATOM      9  C   UNL     1       2.456   7.536  18.454  0.00  0.00    +0.000 A 
ATOM     10  C   UNL     1       2.042   7.093  19.713  0.00  0.00    +0.000 A 
ATOM     11  C   UNL     1       1.448   8.036  20.562  0.00  0.00    +0.000 A 
ATOM     12  C   UNL     1       1.235   9.374  20.157  0.00  0.00    +0.000 A 
ATOM     13  C   UNL     1       0.647  10.256  21.182  0.00  0.00    +0.000 A 
ATOM     14  O   UNL     1       0.927  10.045  22.366  0.00  0.00    +0.000 OA
ATOM     15  C   UNL     1      -0.352  11.295  20.892  0.00  0.00    +0.000 A 
ATOM     16  C   UNL     1      -1.379  11.451  21.834  0.00  0.00    +0.000 A 
ENDROOT
BRANCH   1  20
ATOM     17  C   UNL     1      -6.690  13.690  23.712  0.00  0.00    +0.000 C 
ATOM     18  N   UNL     1      -5.376  13.135  23.499  0.00  0.00    +0.000 N 
ATOM     19  C   UNL     1      -4.668  13.133  22.332  0.00  0.00    +0.000 A 
ATOM     20  C   UNL     1      -3.440  12.574  22.623  0.00  0.00    +0.000 A 
ATOM     21  C   UNL     1      -3.531  12.246  23.995  0.00  0.00    +0.000 A 
ATOM     22  N   UNL     1      -4.709  12.583  24.527  0.00  0.00    +0.000 NA
ENDBRANCH   1  20
BRANCH  10  23
ATOM     23  C   UNL     1       2.224   5.653  20.157  0.00  0.00    +0.000 C 
BRANCH  23  24
ATOM     24  S   UNL     1       2.675   4.665  18.710  0.00  0.00    +0.000 S 
ATOM     25  O   UNL     1       2.736   3.272  19.092  0.00  0.00    +0.000 OA
ATOM     26  O   UNL     1       1.869   5.111  17.598  0.00  0.00    +0.000 OA
BRANCH  24  27
ATOM     27  N   UNL     1       4.294   5.101  18.379  0.00  0.00    +0.000 NA
ATOM     28  H   UNL     1       4.886   4.270  18.491  0.00  0.00    +0.000 HD
BRANCH  27  29
ATOM     29  C   UNL     1       4.518   5.663  16.989  0.00  0.00    +0.000 C 
ATOM     30  C   UNL     1       5.619   6.727  16.930  0.00  0.00    +0.000 C 
ATOM     31  C   UNL     1       6.982   6.145  17.290  0.00  0.00    +0.000 C 
ATOM     32  C   UNL     1       7.358   5.050  16.301  0.00  0.00    +0.000 C 
ATOM     33  C   UNL     1       6.287   3.962  16.224  0.00  0.00    +0.000 C 
ATOM     34  C   UNL     1       4.878   4.526  16.015  0.00  0.00    +0.000 C 
ENDBRANCH  27  29
ENDBRANCH  24  27
ENDBRANCH  23  24
ENDBRANCH  10  23
TORSDOF 5
ENDMDL
MODEL 6
REMARK VINA RESULT:      -8.4      4.409      9.385
REMARK  Name = 
REMARK  6 active torsions:
REMARK  status: ('A' for Active; 'I' for Inactive)
REMARK    1  A    between atoms: C_1  and  N_2
REMARK    2  A    between atoms: C_4  and  C_5
REMARK    3  A    between atoms: C_14  and  C_15
REMARK    4  A    between atoms: C_15  and  S_16
REMARK    5  A    between atoms: S_16  and  N_19
REMARK    6  A    between atoms: N_19  and  C_20
REMARK                            x       y       z     vdW  Elec       q    Type
REMARK                         _______ _______ _______ _____ _____    ______ ____
ROOT
ATOM      1  C   UNL     1       0.738   9.638  20.170  0.00  0.00    +0.000 A 
ATOM      2  C   UNL     1       0.735   9.173  21.476  0.00  0.00    +0.000 A 
ATOM      3  N   UNL     1      -0.010   9.712  22.475  0.00  0.00    +0.000 NA
ATOM      4  C   UNL     1      -0.810  10.774  22.180  0.00  0.00    +0.000 A 
ATOM      5  C   UNL     1      -1.516  11.285  23.348  0.00  0.00    +0.000 A 
ATOM      6  C   UNL     1      -2.624  12.037  23.403  0.00  0.00    +0.000 A 
ATOM      7  C   UNL     1      -3.433  12.564  22.299  0.00  0.00    +0.000 A 
ATOM      8  C   UNL     1      -4.744  12.957  22.616  0.00  0.00    +0.000 A 
ATOM      9  C   UNL     1      -5.584  13.555  21.670  0.00  0.00    +0.000 A 
ATOM     10  C   UNL     1      -5.162  13.750  20.351  0.00  0.00    +0.000 A 
ATOM     11  C   UNL     1      -3.847  13.384  20.038  0.00  0.00    +0.000 A 
ATOM     12  C   UNL     1      -2.986  12.805  20.998  0.00  0.00    +0.000 A 
ATOM     13  C   UNL     1      -1.617  12.524  20.526  0.00  0.00    +0.000 A 
ATOM     14  O   UNL     1      -1.123  13.277  19.682  0.00  0.00    +0.000 OA
ATOM     15  C   UNL     1      -0.849  11.330  20.908  0.00  0.00    +0.000 A 
ATOM     16  C   UNL     1      -0.068  10.743  19.901  0.00  0.00    +0.000 A 
ENDROOT
BRANCH   1  20
ATOM     17  C   UNL     1       3.733   6.507  17.771  0.00  0.00    +0.000 C 
ATOM     18  N   UNL     1       2.833   7.591  18.080  0.00  0.00    +0.000 N 
ATOM     19  C   UNL     1       2.184   7.804  19.261  0.00  0.00    +0.000 A 
ATOM     20  C   UNL     1       1.506   8.997  19.123  0.00  0.00    +0.000 A 
ATOM     21  C   UNL     1       1.794   9.402  17.800  0.00  0.00    +0.000 A 
ATOM     22  N   UNL     1       2.598   8.546  17.164  0.00  0.00    +0.000 NA
ENDBRANCH   1  20
BRANCH  10  23
ATOM     23  C   UNL     1      -6.081  14.335  19.293  0.00  0.00    +0.000 C 
BRANCH  23  24
ATOM     24  S   UNL     1      -6.393  13.063  18.045  0.00  0.00    +0.000 S 
ATOM     25  O   UNL     1      -7.279  12.065  18.602  0.00  0.00    +0.000 OA
ATOM     26  O   UNL     1      -6.690  13.728  16.797  0.00  0.00    +0.000 OA
BRANCH  24  27
ATOM     27  N   UNL     1      -4.894  12.266  17.859  0.00  0.00    +0.000 NA
ATOM     28  H   UNL     1      -4.479  12.129  18.788  0.00  0.00    +0.000 HD
BRANCH  27  29
ATOM     29  C   UNL     1      -4.984  10.917  17.171  0.00  0.00    +0.000 C 
ATOM     30  C   UNL     1      -4.386  10.910  15.761  0.00  0.00    +0.000 C 
ATOM     31  C   UNL     1      -2.885  11.185  15.785  0.00  0.00    +0.000 C 
ATOM     32  C   UNL     1      -2.171  10.104  16.585  0.00  0.00    +0.000 C 
ATOM     33  C   UNL     1      -2.740   9.974  17.998  0.00  0.00    +0.000 C 
ATOM     34  C   UNL     1      -4.266   9.849  18.017  0.00  0.00    +0.000 C 
ENDBRANCH  27  29
ENDBRANCH  24  27
ENDBRANCH  23  24
ENDBRANCH  10  23
TORSDOF 5
ENDMDL
MODEL 7
REMARK VINA RESULT:      -8.3      2.790      4.655
REMARK  Name = 
REMARK  6 active torsions:
REMARK  status: ('A' for Active; 'I' for Inactive)
REMARK    1  A    between atoms: C_1  and  N_2
REMARK    2  A    between atoms: C_4  and  C_5
REMARK    3  A    between atoms: C_14  and  C_15
REMARK    4  A    between atoms: C_15  and  S_16
REMARK    5  A    between atoms: S_16  and  N_19
REMARK    6  A    between atoms: N_19  and  C_20
REMARK                            x       y       z     vdW  Elec       q    Type
REMARK                         _______ _______ _______ _____ _____    ______ ____
ROOT
ATOM      1  C   UNL     1      -0.652  14.249  21.032  0.00  0.00    +0.000 A 
ATOM      2  C   UNL     1      -0.936  13.912  22.347  0.00  0.00    +0.000 A 
ATOM      3  N   UNL     1      -0.950  12.640  22.822  0.00  0.00    +0.000 NA
ATOM      4  C   UNL     1      -0.666  11.627  21.956  0.00  0.00    +0.000 A 
ATOM      5  C   UNL     1      -0.764  10.313  22.579  0.00  0.00    +0.000 A 
ATOM      6  C   UNL     1      -0.222   9.151  22.190  0.00  0.00    +0.000 A 
ATOM      7  C   UNL     1       0.615   8.875  21.018  0.00  0.00    +0.000 A 
ATOM      8  C   UNL     1       1.382   7.698  21.060  0.00  0.00    +0.000 A 
ATOM      9  C   UNL     1       2.153   7.280  19.970  0.00  0.00    +0.000 A 
ATOM     10  C   UNL     1       2.223   8.043  18.800  0.00  0.00    +0.000 A 
ATOM     11  C   UNL     1       1.438   9.203  18.744  0.00  0.00    +0.000 A 
ATOM     12  C   UNL     1       0.637   9.614  19.833  0.00  0.00    +0.000 A 
ATOM     13  C   UNL     1      -0.169  10.827  19.598  0.00  0.00    +0.000 A 
ATOM     14  O   UNL     1      -0.587  11.040  18.456  0.00  0.00    +0.000 OA
ATOM     15  C   UNL     1      -0.402  11.864  20.614  0.00  0.00    +0.000 A 
ATOM     16  C   UNL     1      -0.391  13.192  20.162  0.00  0.00    +0.000 A 
ENDROOT
BRANCH   1  20
ATOM     17  C   UNL     1      -0.339  18.241  18.118  0.00  0.00    +0.000 C 
ATOM     18  N   UNL     1      -0.458  17.379  19.269  0.00  0.00    +0.000 N 
ATOM     19  C   UNL     1      -0.607  16.023  19.262  0.00  0.00    +0.000 A 
ATOM     20  C   UNL     1      -0.592  15.624  20.583  0.00  0.00    +0.000 A 
ATOM     21  C   UNL     1      -0.459  16.833  21.303  0.00  0.00    +0.000 A 
ATOM     22  N   UNL     1      -0.381  17.901  20.505  0.00  0.00    +0.000 NA
ENDBRANCH   1  20
BRANCH  10  23
ATOM     23  C   UNL     1       3.105   7.643  17.632  0.00  0.00    +0.000 C 
BRANCH  23  24
ATOM     24  S   UNL     1       3.775   5.995  17.964  0.00  0.00    +0.000 S 
ATOM     25  O   UNL     1       4.315   5.452  16.739  0.00  0.00    +0.000 OA
ATOM     26  O   UNL     1       4.564   6.071  19.172  0.00  0.00    +0.000 OA
BRANCH  24  27
ATOM     27  N   UNL     1       2.404   5.035  18.305  0.00  0.00    +0.000 NA
ATOM     28  H   UNL     1       1.741   5.124  17.526  0.00  0.00    +0.000 HD
BRANCH  27  29
ATOM     29  C   UNL     1       2.707   3.563  18.509  0.00  0.00    +0.000 C 
ATOM     30  C   UNL     1       3.440   3.267  19.822  0.00  0.00    +0.000 C 
ATOM     31  C   UNL     1       2.581   3.613  21.035  0.00  0.00    +0.000 C 
ATOM     32  C   UNL     1       1.309   2.777  21.027  0.00  0.00    +0.000 C 
ATOM     33  C   UNL     1       0.528   2.942  19.724  0.00  0.00    +0.000 C 
ATOM     34  C   UNL     1       1.399   2.749  18.479  0.00  0.00    +0.000 C 
ENDBRANCH  27  29
ENDBRANCH  24  27
ENDBRANCH  23  24
ENDBRANCH  10  23
TORSDOF 5
ENDMDL
MODEL 8
REMARK VINA RESULT:      -8.3      1.093      1.685
REMARK  Name = 
REMARK  6 active torsions:
REMARK  status: ('A' for Active; 'I' for Inactive)
REMARK    1  A    between atoms: C_1  and  N_2
REMARK    2  A    between atoms: C_4  and  C_5
REMARK    3  A    between atoms: C_14  and  C_15
REMARK    4  A    between atoms: C_15  and  S_16
REMARK    5  A    between atoms: S_16  and  N_19
REMARK    6  A    between atoms: N_19  and  C_20
REMARK                            x       y       z     vdW  Elec       q    Type
REMARK                         _______ _______ _______ _____ _____    ______ ____
ROOT
ATOM      1  C   UNL     1      -1.949  12.355  21.571  0.00  0.00    +0.000 A 
ATOM      2  C   UNL     1      -1.774  13.236  20.515  0.00  0.00    +0.000 A 
ATOM      3  N   UNL     1      -0.795  13.122  19.582  0.00  0.00    +0.000 NA
ATOM      4  C   UNL     1       0.071  12.075  19.682  0.00  0.00    +0.000 A 
ATOM      5  C   UNL     1       1.099  12.097  18.649  0.00  0.00    +0.000 A 
ATOM      6  C   UNL     1       1.865  11.095  18.199  0.00  0.00    +0.000 A 
ATOM      7  C   UNL     1       1.890   9.693  18.628  0.00  0.00    +0.000 A 
ATOM      8  C   UNL     1       2.470   8.776  17.736  0.00  0.00    +0.000 A 
ATOM      9  C   UNL     1       2.630   7.425  18.066  0.00  0.00    +0.000 A 
ATOM     10  C   UNL     1       2.181   6.924  19.291  0.00  0.00    +0.000 A 
ATOM     11  C   UNL     1       1.628   7.841  20.195  0.00  0.00    +0.000 A 
ATOM     12  C   UNL     1       1.488   9.210  19.876  0.00  0.00    +0.000 A 
ATOM     13  C   UNL     1       0.935  10.054  20.952  0.00  0.00    +0.000 A 
ATOM     14  O   UNL     1       1.191   9.753  22.121  0.00  0.00    +0.000 OA
ATOM     15  C   UNL     1      -0.006  11.159  20.722  0.00  0.00    +0.000 A 
ATOM     16  C   UNL     1      -1.034  11.308  21.666  0.00  0.00    +0.000 A 
ENDROOT
BRANCH   1  20
ATOM     17  C   UNL     1      -6.159  13.826  23.727  0.00  0.00    +0.000 C 
ATOM     18  N   UNL     1      -4.918  13.147  23.444  0.00  0.00    +0.000 N 
ATOM     19  C   UNL     1      -4.183  13.230  22.298  0.00  0.00    +0.000 A 
ATOM     20  C   UNL     1      -3.043  12.483  22.511  0.00  0.00    +0.000 A 
ATOM     21  C   UNL     1      -3.212  11.968  23.817  0.00  0.00    +0.000 A 
ATOM     22  N   UNL     1      -4.354  12.369  24.383  0.00  0.00    +0.000 NA
ENDBRANCH   1  20
BRANCH  10  23
ATOM     23  C   UNL     1       2.285   5.451  19.642  0.00  0.00    +0.000 C 
BRANCH  23  24
ATOM     24  S   UNL     1       3.964   4.893  19.265  0.00  0.00    +0.000 S 
ATOM     25  O   UNL     1       4.910   5.788  19.893  0.00  0.00    +0.000 OA
ATOM     26  O   UNL     1       4.017   3.465  19.475  0.00  0.00    +0.000 OA
BRANCH  24  27
ATOM     27  N   UNL     1       4.143   5.171  17.588  0.00  0.00    +0.000 NA
ATOM     28  H   UNL     1       3.431   5.848  17.292  0.00  0.00    +0.000 HD
BRANCH  27  29
ATOM     29  C   UNL     1       5.505   5.703  17.185  0.00  0.00    +0.000 C 
ATOM     30  C   UNL     1       6.567   4.610  17.032  0.00  0.00    +0.000 C 
ATOM     31  C   UNL     1       6.224   3.647  15.899  0.00  0.00    +0.000 C 
ATOM     32  C   UNL     1       6.157   4.401  14.578  0.00  0.00    +0.000 C 
ATOM     33  C   UNL     1       5.172   5.568  14.639  0.00  0.00    +0.000 C 
ATOM     34  C   UNL     1       5.394   6.473  15.855  0.00  0.00    +0.000 C 
ENDBRANCH  27  29
ENDBRANCH  24  27
ENDBRANCH  23  24
ENDBRANCH  10  23
TORSDOF 5
ENDMDL
MODEL 9
REMARK VINA RESULT:      -8.3      3.023      4.838
REMARK  Name = 
REMARK  6 active torsions:
REMARK  status: ('A' for Active; 'I' for Inactive)
REMARK    1  A    between atoms: C_1  and  N_2
REMARK    2  A    between atoms: C_4  and  C_5
REMARK    3  A    between atoms: C_14  and  C_15
REMARK    4  A    between atoms: C_15  and  S_16
REMARK    5  A    between atoms: S_16  and  N_19
REMARK    6  A    between atoms: N_19  and  C_20
REMARK                            x       y       z     vdW  Elec       q    Type
REMARK                         _______ _______ _______ _____ _____    ______ ____
ROOT
ATOM      1  C   UNL     1       1.762  12.700  19.164  0.00  0.00    +0.000 A 
ATOM      2  C   UNL     1       0.843  12.784  20.199  0.00  0.00    +0.000 A 
ATOM      3  N   UNL     1       0.244  11.711  20.775  0.00  0.00    +0.000 NA
ATOM      4  C   UNL     1       0.564  10.470  20.314  0.00  0.00    +0.000 A 
ATOM      5  C   UNL     1      -0.183   9.413  20.982  0.00  0.00    +0.000 A 
ATOM      6  C   UNL     1       0.101   8.107  21.076  0.00  0.00    +0.000 A 
ATOM      7  C   UNL     1       1.244   7.373  20.523  0.00  0.00    +0.000 A 
ATOM      8  C   UNL     1       1.525   6.124  21.101  0.00  0.00    +0.000 A 
ATOM      9  C   UNL     1       2.534   5.291  20.605  0.00  0.00    +0.000 A 
ATOM     10  C   UNL     1       3.334   5.689  19.530  0.00  0.00    +0.000 A 
ATOM     11  C   UNL     1       3.039   6.922  18.933  0.00  0.00    +0.000 A 
ATOM     12  C   UNL     1       2.004   7.754  19.415  0.00  0.00    +0.000 A 
ATOM     13  C   UNL     1       1.785   8.994  18.647  0.00  0.00    +0.000 A 
ATOM     14  O   UNL     1       1.997   8.975  17.430  0.00  0.00    +0.000 OA
ATOM     15  C   UNL     1       1.449  10.288  19.259  0.00  0.00    +0.000 A 
ATOM     16  C   UNL     1       2.052  11.420  18.692  0.00  0.00    +0.000 A 
ENDROOT
BRANCH   1  20
ATOM     17  C   UNL     1       2.561  17.245  17.366  0.00  0.00    +0.000 C 
ATOM     18  N   UNL     1       2.750  15.892  17.829  0.00  0.00    +0.000 N 
ATOM     19  C   UNL     1       1.819  15.095  18.429  0.00  0.00    +0.000 A 
ATOM     20  C   UNL     1       2.420  13.868  18.618  0.00  0.00    +0.000 A 
ATOM     21  C   UNL     1       3.730  14.050  18.120  0.00  0.00    +0.000 A 
ATOM     22  N   UNL     1       3.933  15.281  17.643  0.00  0.00    +0.000 NA
ENDBRANCH   1  20
BRANCH  10  23
ATOM     23  C   UNL     1       4.477   4.830  19.019  0.00  0.00    +0.000 C 
BRANCH  23  24
ATOM     24  S   UNL     1       3.789   3.548  17.944  0.00  0.00    +0.000 S 
ATOM     25  O   UNL     1       3.932   2.264  18.593  0.00  0.00    +0.000 OA
ATOM     26  O   UNL     1       2.511   4.014  17.458  0.00  0.00    +0.000 OA
BRANCH  24  27
ATOM     27  N   UNL     1       4.855   3.488  16.611  0.00  0.00    +0.000 NA
ATOM     28  H   UNL     1       4.707   2.603  16.113  0.00  0.00    +0.000 HD
BRANCH  27  29
ATOM     29  C   UNL     1       4.686   4.626  15.623  0.00  0.00    +0.000 C 
ATOM     30  C   UNL     1       5.512   5.868  15.974  0.00  0.00    +0.000 C 
ATOM     31  C   UNL     1       7.010   5.581  15.915  0.00  0.00    +0.000 C 
ATOM     32  C   UNL     1       7.403   5.158  14.506  0.00  0.00    +0.000 C 
ATOM     33  C   UNL     1       6.585   3.962  14.022  0.00  0.00    +0.000 C 
ATOM     34  C   UNL     1       5.077   4.156  14.209  0.00  0.00    +0.000 C 
ENDBRANCH  27  29
ENDBRANCH  24  27
ENDBRANCH  23  24
ENDBRANCH  10  23
TORSDOF 5
ENDMDL
