MODEL 1
REMARK VINA RESULT:      -9.8      0.000      0.000
REMARK  Name = 
REMARK  8 active torsions:
REMARK  status: ('A' for Active; 'I' for Inactive)
REMARK    1  A    between atoms: N_1  and  C_2
REMARK    2  A    between atoms: C_5  and  C_6
REMARK    3  A    between atoms: C_6  and  C_7
REMARK    4  A    between atoms: C_7  and  S_8
REMARK    5  A    between atoms: S_8  and  N_11
REMARK    6  A    between atoms: N_11  and  C_12
REMARK    7  A    between atoms: C_15  and  N_16
REMARK    8  A    between atoms: N_16  and  C_17
REMARK                            x       y       z     vdW  Elec       q    Type
REMARK                         _______ _______ _______ _____ _____    ______ ____
ROOT
ATOM      1  C   UNL     1       0.632   9.591  20.054  0.00  0.00    +0.000 A 
ATOM      2  C   UNL     1       1.276   9.303  18.856  0.00  0.00    +0.000 A 
ATOM      3  C   UNL     1       2.105   8.171  18.769  0.00  0.00    +0.000 A 
ATOM      4  C   UNL     1       2.245   7.308  19.865  0.00  0.00    +0.000 A 
ATOM      5  C   UNL     1       1.366   7.459  20.932  0.00  0.00    +0.000 A 
ATOM      6  C   UNL     1       0.618   8.644  21.070  0.00  0.00    +0.000 A 
ENDROOT
BRANCH   1   7
ATOM      7  N   UNL     1       0.030  10.876  20.278  0.00  0.00    +0.000 N 
ATOM      8  H   UNL     1       0.713  11.621  20.430  0.00  0.00    +0.000 HD
BRANCH   7   9
ATOM      9  S   UNL     1      -1.106  11.443  19.149  0.00  0.00    +0.000 S 
ATOM     10  O   UNL     1      -1.838  10.317  18.603  0.00  0.00    +0.000 OA
ATOM     11  O   UNL     1      -0.371  12.345  18.289  0.00  0.00    +0.000 OA
BRANCH   9  12
ATOM     12  C   UNL     1      -2.239  12.409  20.147  0.00  0.00    +0.000 C 
BRANCH  12  13
ATOM     13  C   UNL     1      -2.038  12.261  21.654  0.00  0.00    +0.000 C 
BRANCH  13  17
ATOM     14  C   UNL     1      -5.742  12.970  23.828  0.00  0.00    +0.000 A 
ATOM     15  C   UNL     1      -4.573  12.600  24.501  0.00  0.00    +0.000 A 
ATOM     16  C   UNL     1      -3.385  12.363  23.796  0.00  0.00    +0.000 A 
ATOM     17  C   UNL     1      -3.325  12.536  22.407  0.00  0.00    +0.000 A 
ATOM     18  C   UNL     1      -4.484  12.959  21.740  0.00  0.00    +0.000 A 
ATOM     19  C   UNL     1      -5.671  13.200  22.452  0.00  0.00    +0.000 A 
BRANCH  14  20
ATOM     20  N   UNL     1      -6.886  13.327  24.550  0.00  0.00    +0.000 N 
ATOM     21  H   UNL     1      -7.673  12.700  24.416  0.00  0.00    +0.000 HD
ATOM     22  H   UNL     1      -7.147  14.306  24.458  0.00  0.00    +0.000 HD
ENDBRANCH  14  20
ENDBRANCH  13  17
ENDBRANCH  12  13
ENDBRANCH   9  12
ENDBRANCH   7   9
ENDBRANCH   1   7
BRANCH   4  23
ATOM     23  N   UNL     1       3.321   6.394  19.917  0.00  0.00    +0.000 N 
ATOM     24  H   UNL     1       3.693   6.287  20.857  0.00  0.00    +0.000 HD
BRANCH  23  25
ATOM     25  C   UNL     1       3.624   5.222  19.124  0.00  0.00    +0.000 A 
ATOM     26  C   UNL     1       4.258   5.226  17.822  0.00  0.00    +0.000 A 
ATOM     27  C   UNL     1       4.382   6.291  16.897  0.00  0.00    +0.000 A 
ATOM     28  C   UNL     1       5.182   6.202  15.758  0.00  0.00    +0.000 A 
ATOM     29  C   UNL     1       5.842   5.014  15.484  0.00  0.00    +0.000 A 
ATOM     30  C   UNL     1       5.540   3.897  16.248  0.00  0.00    +0.000 A 
ATOM     31  C   UNL     1       4.655   3.985  17.314  0.00  0.00    +0.000 A 
ATOM     32  N   UNL     1       4.045   2.877  17.710  0.00  0.00    +0.000 NA
ATOM     33  C   UNL     1       3.047   3.053  18.577  0.00  0.00    +0.000 A 
ATOM     34  C   UNL     1       1.740   2.764  18.222  0.00  0.00    +0.000 A 
ATOM     35  C   UNL     1       0.684   3.052  19.091  0.00  0.00    +0.000 A 
ATOM     36  C   UNL     1       0.986   3.404  20.401  0.00  0.00    +0.000 A 
ATOM     37  C   UNL     1       2.285   3.792  20.690  0.00  0.00    +0.000 A 
ATOM     38  C   UNL     1       3.140   3.969  19.593  0.00  0.00    +0.000 A 
ENDBRANCH  23  25
ENDBRANCH   4  23
TORSDOF 8
ENDMDL
MODEL 2
REMARK VINA RESULT:      -9.7      2.343      3.034
REMARK  Name = 
REMARK  8 active torsions:
REMARK  status: ('A' for Active; 'I' for Inactive)
REMARK    1  A    between atoms: N_1  and  C_2
REMARK    2  A    between atoms: C_5  and  C_6
REMARK    3  A    between atoms: C_6  and  C_7
REMARK    4  A    between atoms: C_7  and  S_8
REMARK    5  A    between atoms: S_8  and  N_11
REMARK    6  A    between atoms: N_11  and  C_12
REMARK    7  A    between atoms: C_15  and  N_16
REMARK    8  A    between atoms: N_16  and  C_17
REMARK                            x       y       z     vdW  Elec       q    Type
REMARK                         _______ _______ _______ _____ _____    ______ ____
ROOT
ATOM      1  C   UNL     1       0.283   9.692  20.227  0.00  0.00    +0.000 A 
ATOM      2  C   UNL     1       0.983   8.738  20.957  0.00  0.00    +0.000 A 
ATOM      3  C   UNL     1       1.845   7.850  20.290  0.00  0.00    +0.000 A 
ATOM      4  C   UNL     1       2.037   7.952  18.906  0.00  0.00    +0.000 A 
ATOM      5  C   UNL     1       1.559   9.090  18.262  0.00  0.00    +0.000 A 
ATOM      6  C   UNL     1       0.613   9.917  18.897  0.00  0.00    +0.000 A 
ENDROOT
BRANCH   1   7
ATOM      7  N   UNL     1      -0.818  10.407  20.812  0.00  0.00    +0.000 N 
ATOM      8  H   UNL     1      -1.559   9.794  21.161  0.00  0.00    +0.000 HD
BRANCH   7   9
ATOM      9  S   UNL     1      -0.485  11.550  22.023  0.00  0.00    +0.000 S 
ATOM     10  O   UNL     1       0.611  12.396  21.592  0.00  0.00    +0.000 OA
ATOM     11  O   UNL     1      -0.405  10.791  23.252  0.00  0.00    +0.000 OA
BRANCH   9  12
ATOM     12  C   UNL     1      -1.972  12.551  22.071  0.00  0.00    +0.000 C 
BRANCH  12  13
ATOM     13  C   UNL     1      -2.261  13.315  20.781  0.00  0.00    +0.000 C 
BRANCH  13  17
ATOM     14  C   UNL     1      -5.620  11.497  18.692  0.00  0.00    +0.000 A 
ATOM     15  C   UNL     1      -5.822  12.281  19.833  0.00  0.00    +0.000 A 
ATOM     16  C   UNL     1      -4.737  12.856  20.507  0.00  0.00    +0.000 A 
ATOM     17  C   UNL     1      -3.428  12.702  20.032  0.00  0.00    +0.000 A 
ATOM     18  C   UNL     1      -3.231  11.959  18.859  0.00  0.00    +0.000 A 
ATOM     19  C   UNL     1      -4.323  11.388  18.182  0.00  0.00    +0.000 A 
BRANCH  14  20
ATOM     20  N   UNL     1      -6.714  11.033  17.954  0.00  0.00    +0.000 N 
ATOM     21  H   UNL     1      -7.604  11.112  18.437  0.00  0.00    +0.000 HD
ATOM     22  H   UNL     1      -6.575  10.115  17.538  0.00  0.00    +0.000 HD
ENDBRANCH  14  20
ENDBRANCH  13  17
ENDBRANCH  12  13
ENDBRANCH   9  12
ENDBRANCH   7   9
ENDBRANCH   1   7
BRANCH   4  23
ATOM     23  N   UNL     1       2.600   6.877  18.184  0.00  0.00    +0.000 N 
ATOM     24  H   UNL     1       2.602   7.042  17.181  0.00  0.00    +0.000 HD
BRANCH  23  25
ATOM     25  C   UNL     1       3.627   5.919  18.534  0.00  0.00    +0.000 A 
ATOM     26  C   UNL     1       5.044   6.070  18.275  0.00  0.00    +0.000 A 
ATOM     27  C   UNL     1       5.693   6.927  17.353  0.00  0.00    +0.000 A 
ATOM     28  C   UNL     1       7.077   7.100  17.342  0.00  0.00    +0.000 A 
ATOM     29  C   UNL     1       7.859   6.373  18.224  0.00  0.00    +0.000 A 
ATOM     30  C   UNL     1       7.261   5.362  18.962  0.00  0.00    +0.000 A 
ATOM     31  C   UNL     1       5.894   5.135  18.876  0.00  0.00    +0.000 A 
ATOM     32  N   UNL     1       5.441   3.932  19.198  0.00  0.00    +0.000 NA
ATOM     33  C   UNL     1       4.166   3.700  18.884  0.00  0.00    +0.000 A 
ATOM     34  C   UNL     1       3.830   2.758  17.925  0.00  0.00    +0.000 A 
ATOM     35  C   UNL     1       2.504   2.593  17.519  0.00  0.00    +0.000 A 
ATOM     36  C   UNL     1       1.506   3.213  18.262  0.00  0.00    +0.000 A 
ATOM     37  C   UNL     1       1.873   4.228  19.131  0.00  0.00    +0.000 A 
ATOM     38  C   UNL     1       3.204   4.663  19.051  0.00  0.00    +0.000 A 
ENDBRANCH  23  25
ENDBRANCH   4  23
TORSDOF 8
ENDMDL
MODEL 3
REMARK VINA RESULT:      -9.7      1.528      2.123
REMARK  Name = 
REMARK  8 active torsions:
REMARK  status: ('A' for Active; 'I' for Inactive)
REMARK    1  A    between atoms: N_1  and  C_2
REMARK    2  A    between atoms: C_5  and  C_6
REMARK    3  A    between atoms: C_6  and  C_7
REMARK    4  A    between atoms: C_7  and  S_8
REMARK    5  A    between atoms: S_8  and  N_11
REMARK    6  A    between atoms: N_11  and  C_12
REMARK    7  A    between atoms: C_15  and  N_16
REMARK    8  A    between atoms: N_16  and  C_17
REMARK                            x       y       z     vdW  Elec       q    Type
REMARK                         _______ _______ _______ _____ _____    ______ ____
ROOT
ATOM      1  C   UNL     1       0.550  10.029  20.101  0.00  0.00    +0.000 A 
ATOM      2  C   UNL     1       1.001   9.021  20.946  0.00  0.00    +0.000 A 
ATOM      3  C   UNL     1       1.695   7.924  20.408  0.00  0.00    +0.000 A 
ATOM      4  C   UNL     1       1.977   7.866  19.036  0.00  0.00    +0.000 A 
ATOM      5  C   UNL     1       1.777   9.016  18.279  0.00  0.00    +0.000 A 
ATOM      6  C   UNL     1       0.989  10.068  18.784  0.00  0.00    +0.000 A 
ENDROOT
BRANCH   1   7
ATOM      7  N   UNL     1      -0.409  10.998  20.555  0.00  0.00    +0.000 N 
ATOM      8  H   UNL     1      -0.936  10.692  21.376  0.00  0.00    +0.000 HD
BRANCH   7   9
ATOM      9  S   UNL     1       0.123  12.585  20.848  0.00  0.00    +0.000 S 
ATOM     10  O   UNL     1      -0.252  13.428  19.730  0.00  0.00    +0.000 OA
ATOM     11  O   UNL     1       1.506  12.453  21.255  0.00  0.00    +0.000 OA
BRANCH   9  12
ATOM     12  C   UNL     1      -0.841  13.091  22.272  0.00  0.00    +0.000 C 
BRANCH  12  13
ATOM     13  C   UNL     1      -1.639  11.965  22.928  0.00  0.00    +0.000 C 
BRANCH  13  17
ATOM     14  C   UNL     1      -5.835  13.085  23.224  0.00  0.00    +0.000 A 
ATOM     15  C   UNL     1      -5.180  13.073  21.988  0.00  0.00    +0.000 A 
ATOM     16  C   UNL     1      -3.827  12.721  21.899  0.00  0.00    +0.000 A 
ATOM     17  C   UNL     1      -3.108  12.328  23.035  0.00  0.00    +0.000 A 
ATOM     18  C   UNL     1      -3.779  12.290  24.266  0.00  0.00    +0.000 A 
ATOM     19  C   UNL     1      -5.138  12.638  24.349  0.00  0.00    +0.000 A 
BRANCH  14  20
ATOM     20  N   UNL     1      -7.214  13.314  23.287  0.00  0.00    +0.000 N 
ATOM     21  H   UNL     1      -7.485  14.272  23.089  0.00  0.00    +0.000 HD
ATOM     22  H   UNL     1      -7.658  12.947  24.125  0.00  0.00    +0.000 HD
ENDBRANCH  14  20
ENDBRANCH  13  17
ENDBRANCH  12  13
ENDBRANCH   9  12
ENDBRANCH   7   9
ENDBRANCH   1   7
BRANCH   4  23
ATOM     23  N   UNL     1       2.343   6.641  18.436  0.00  0.00    +0.000 N 
ATOM     24  H   UNL     1       2.077   6.595  17.456  0.00  0.00    +0.000 HD
BRANCH  23  25
ATOM     25  C   UNL     1       3.439   5.733  18.700  0.00  0.00    +0.000 A 
ATOM     26  C   UNL     1       4.824   5.958  18.342  0.00  0.00    +0.000 A 
ATOM     27  C   UNL     1       5.361   6.854  17.385  0.00  0.00    +0.000 A 
ATOM     28  C   UNL     1       6.730   7.098  17.277  0.00  0.00    +0.000 A 
ATOM     29  C   UNL     1       7.610   6.403  18.092  0.00  0.00    +0.000 A 
ATOM     30  C   UNL     1       7.118   5.357  18.858  0.00  0.00    +0.000 A 
ATOM     31  C   UNL     1       5.761   5.063  18.868  0.00  0.00    +0.000 A 
ATOM     32  N   UNL     1       5.393   3.836  19.207  0.00  0.00    +0.000 NA
ATOM     33  C   UNL     1       4.111   3.542  18.984  0.00  0.00    +0.000 A 
ATOM     34  C   UNL     1       3.755   2.592  18.040  0.00  0.00    +0.000 A 
ATOM     35  C   UNL     1       2.412   2.364  17.728  0.00  0.00    +0.000 A 
ATOM     36  C   UNL     1       1.441   2.927  18.548  0.00  0.00    +0.000 A 
ATOM     37  C   UNL     1       1.820   3.951  19.401  0.00  0.00    +0.000 A 
ATOM     38  C   UNL     1       3.118   4.454  19.231  0.00  0.00    +0.000 A 
ENDBRANCH  23  25
ENDBRANCH   4  23
TORSDOF 8
ENDMDL
MODEL 4
REMARK VINA RESULT:      -9.6      1.365      1.760
REMARK  Name = 
REMARK  8 active torsions:
REMARK  status: ('A' for Active; 'I' for Inactive)
REMARK    1  A    between atoms: N_1  and  C_2
REMARK    2  A    between atoms: C_5  and  C_6
REMARK    3  A    between atoms: C_6  and  C_7
REMARK    4  A    between atoms: C_7  and  S_8
REMARK    5  A    between atoms: S_8  and  N_11
REMARK    6  A    between atoms: N_11  and  C_12
REMARK    7  A    between atoms: C_15  and  N_16
REMARK    8  A    between atoms: N_16  and  C_17
REMARK                            x       y       z     vdW  Elec       q    Type
REMARK                         _______ _______ _______ _____ _____    ______ ____
ROOT
ATOM      1  C   UNL     1       0.602   9.718  19.768  0.00  0.00    +0.000 A 
ATOM      2  C   UNL     1       1.209   9.317  18.582  0.00  0.00    +0.000 A 
ATOM      3  C   UNL     1       2.045   8.187  18.579  0.00  0.00    +0.000 A 
ATOM      4  C   UNL     1       2.231   7.438  19.748  0.00  0.00    +0.000 A 
ATOM      5  C   UNL     1       1.387   7.688  20.826  0.00  0.00    +0.000 A 
ATOM      6  C   UNL     1       0.632   8.876  20.872  0.00  0.00    +0.000 A 
ENDROOT
BRANCH   1   7
ATOM      7  N   UNL     1      -0.004  11.015  19.884  0.00  0.00    +0.000 N 
ATOM      8  H   UNL     1      -0.762  11.047  20.570  0.00  0.00    +0.000 HD
BRANCH   7   9
ATOM      9  S   UNL     1       1.003  12.354  20.168  0.00  0.00    +0.000 S 
ATOM     10  O   UNL     1       1.652  12.733  18.928  0.00  0.00    +0.000 OA
ATOM     11  O   UNL     1       1.775  12.008  21.342  0.00  0.00    +0.000 OA
BRANCH   9  12
ATOM     12  C   UNL     1      -0.149  13.655  20.611  0.00  0.00    +0.000 C 
BRANCH  12  13
ATOM     13  C   UNL     1      -0.036  14.134  22.057  0.00  0.00    +0.000 C 
BRANCH  13  17
ATOM     14  C   UNL     1      -3.609  13.042  24.292  0.00  0.00    +0.000 A 
ATOM     15  C   UNL     1      -3.122  12.222  23.269  0.00  0.00    +0.000 A 
ATOM     16  C   UNL     1      -1.977  12.582  22.546  0.00  0.00    +0.000 A 
ATOM     17  C   UNL     1      -1.264  13.747  22.858  0.00  0.00    +0.000 A 
ATOM     18  C   UNL     1      -1.723  14.542  23.918  0.00  0.00    +0.000 A 
ATOM     19  C   UNL     1      -2.869  14.174  24.644  0.00  0.00    +0.000 A 
BRANCH  14  20
ATOM     20  N   UNL     1      -4.675  12.614  25.091  0.00  0.00    +0.000 N 
ATOM     21  H   UNL     1      -5.271  13.366  25.425  0.00  0.00    +0.000 HD
ATOM     22  H   UNL     1      -4.407  11.970  25.831  0.00  0.00    +0.000 HD
ENDBRANCH  14  20
ENDBRANCH  13  17
ENDBRANCH  12  13
ENDBRANCH   9  12
ENDBRANCH   7   9
ENDBRANCH   1   7
BRANCH   4  23
ATOM     23  N   UNL     1       3.316   6.540  19.854  0.00  0.00    +0.000 N 
ATOM     24  H   UNL     1       3.674   6.475  20.803  0.00  0.00    +0.000 HD
BRANCH  23  25
ATOM     25  C   UNL     1       3.646   5.342  19.112  0.00  0.00    +0.000 A 
ATOM     26  C   UNL     1       4.294   5.303  17.818  0.00  0.00    +0.000 A 
ATOM     27  C   UNL     1       4.409   6.332  16.850  0.00  0.00    +0.000 A 
ATOM     28  C   UNL     1       5.222   6.209  15.724  0.00  0.00    +0.000 A 
ATOM     29  C   UNL     1       5.904   5.022  15.505  0.00  0.00    +0.000 A 
ATOM     30  C   UNL     1       5.613   3.932  16.312  0.00  0.00    +0.000 A 
ATOM     31  C   UNL     1       4.715   4.049  17.365  0.00  0.00    +0.000 A 
ATOM     32  N   UNL     1       4.120   2.948  17.800  0.00  0.00    +0.000 NA
ATOM     33  C   UNL     1       3.110   3.144  18.649  0.00  0.00    +0.000 A 
ATOM     34  C   UNL     1       1.811   2.819  18.294  0.00  0.00    +0.000 A 
ATOM     35  C   UNL     1       0.742   3.125  19.140  0.00  0.00    +0.000 A 
ATOM     36  C   UNL     1       1.025   3.534  20.437  0.00  0.00    +0.000 A 
ATOM     37  C   UNL     1       2.314   3.955  20.723  0.00  0.00    +0.000 A 
ATOM     38  C   UNL     1       3.177   4.102  19.627  0.00  0.00    +0.000 A 
ENDBRANCH  23  25
ENDBRANCH   4  23
TORSDOF 8
ENDMDL
MODEL 5
REMARK VINA RESULT:      -9.6      2.494      3.530
REMARK  Name = 
REMARK  8 active torsions:
REMARK  status: ('A' for Active; 'I' for Inactive)
REMARK    1  A    between atoms: N_1  and  C_2
REMARK    2  A    between atoms: C_5  and  C_6
REMARK    3  A    between atoms: C_6  and  C_7
REMARK    4  A    between atoms: C_7  and  S_8
REMARK    5  A    between atoms: S_8  and  N_11
REMARK    6  A    between atoms: N_11  and  C_12
REMARK    7  A    between atoms: C_15  and  N_16
REMARK    8  A    between atoms: N_16  and  C_17
REMARK                            x       y       z     vdW  Elec       q    Type
REMARK                         _______ _______ _______ _____ _____    ______ ____
ROOT
ATOM      1  C   UNL     1       0.455   9.362  20.428  0.00  0.00    +0.000 A 
ATOM      2  C   UNL     1       1.089   9.251  19.196  0.00  0.00    +0.000 A 
ATOM      3  C   UNL     1       1.995   8.199  18.975  0.00  0.00    +0.000 A 
ATOM      4  C   UNL     1       2.223   7.238  19.969  0.00  0.00    +0.000 A 
ATOM      5  C   UNL     1       1.361   7.210  21.061  0.00  0.00    +0.000 A 
ATOM      6  C   UNL     1       0.533   8.315  21.338  0.00  0.00    +0.000 A 
ENDROOT
BRANCH   1   7
ATOM      7  N   UNL     1      -0.232  10.569  20.798  0.00  0.00    +0.000 N 
ATOM      8  H   UNL     1      -0.430  10.631  21.800  0.00  0.00    +0.000 HD
BRANCH   7   9
ATOM      9  S   UNL     1       0.430  12.056  20.312  0.00  0.00    +0.000 S 
ATOM     10  O   UNL     1       1.475  11.816  19.336  0.00  0.00    +0.000 OA
ATOM     11  O   UNL     1       0.703  12.771  21.540  0.00  0.00    +0.000 OA
BRANCH   9  12
ATOM     12  C   UNL     1      -0.934  12.866  19.476  0.00  0.00    +0.000 C 
BRANCH  12  13
ATOM     13  C   UNL     1      -2.281  12.165  19.640  0.00  0.00    +0.000 C 
BRANCH  13  17
ATOM     14  C   UNL     1      -3.646  10.626  15.803  0.00  0.00    +0.000 A 
ATOM     15  C   UNL     1      -2.351  10.365  16.263  0.00  0.00    +0.000 A 
ATOM     16  C   UNL     1      -1.913  10.870  17.494  0.00  0.00    +0.000 A 
ATOM     17  C   UNL     1      -2.773  11.609  18.317  0.00  0.00    +0.000 A 
ATOM     18  C   UNL     1      -4.088  11.827  17.879  0.00  0.00    +0.000 A 
ATOM     19  C   UNL     1      -4.524  11.313  16.646  0.00  0.00    +0.000 A 
BRANCH  14  20
ATOM     20  N   UNL     1      -4.115  10.014  14.636  0.00  0.00    +0.000 N 
ATOM     21  H   UNL     1      -4.973   9.486  14.761  0.00  0.00    +0.000 HD
ATOM     22  H   UNL     1      -3.406   9.493  14.126  0.00  0.00    +0.000 HD
ENDBRANCH  14  20
ENDBRANCH  13  17
ENDBRANCH  12  13
ENDBRANCH   9  12
ENDBRANCH   7   9
ENDBRANCH   1   7
BRANCH   4  23
ATOM     23  N   UNL     1       3.362   6.405  19.905  0.00  0.00    +0.000 N 
ATOM     24  H   UNL     1       3.836   6.328  20.802  0.00  0.00    +0.000 HD
BRANCH  23  25
ATOM     25  C   UNL     1       3.667   5.258  19.079  0.00  0.00    +0.000 A 
ATOM     26  C   UNL     1       4.279   5.302  17.767  0.00  0.00    +0.000 A 
ATOM     27  C   UNL     1       4.371   6.391  16.866  0.00  0.00    +0.000 A 
ATOM     28  C   UNL     1       5.152   6.340  15.711  0.00  0.00    +0.000 A 
ATOM     29  C   UNL     1       5.823   5.169  15.397  0.00  0.00    +0.000 A 
ATOM     30  C   UNL     1       5.550   4.029  16.139  0.00  0.00    +0.000 A 
ATOM     31  C   UNL     1       4.683   4.079  17.222  0.00  0.00    +0.000 A 
ATOM     32  N   UNL     1       4.095   2.953  17.601  0.00  0.00    +0.000 NA
ATOM     33  C   UNL     1       3.111   3.095  18.489  0.00  0.00    +0.000 A 
ATOM     34  C   UNL     1       1.801   2.796  18.150  0.00  0.00    +0.000 A 
ATOM     35  C   UNL     1       0.756   3.048  19.043  0.00  0.00    +0.000 A 
ATOM     36  C   UNL     1       1.077   3.372  20.356  0.00  0.00    +0.000 A 
ATOM     37  C   UNL     1       2.375   3.771  20.633  0.00  0.00    +0.000 A 
ATOM     38  C   UNL     1       3.208   3.987  19.525  0.00  0.00    +0.000 A 
ENDBRANCH  23  25
ENDBRANCH   4  23
TORSDOF 8
ENDMDL
MODEL 6
REMARK VINA RESULT:      -9.5      1.033      1.502
REMARK  Name = 
REMARK  8 active torsions:
REMARK  status: ('A' for Active; 'I' for Inactive)
REMARK    1  A    between atoms: N_1  and  C_2
REMARK    2  A    between atoms: C_5  and  C_6
REMARK    3  A    between atoms: C_6  and  C_7
REMARK    4  A    between atoms: C_7  and  S_8
REMARK    5  A    between atoms: S_8  and  N_11
REMARK    6  A    between atoms: N_11  and  C_12
REMARK    7  A    between atoms: C_15  and  N_16
REMARK    8  A    between atoms: N_16  and  C_17
REMARK                            x       y       z     vdW  Elec       q    Type
REMARK                         _______ _______ _______ _____ _____    ______ ____
ROOT
ATOM      1  C   UNL     1       0.498   9.607  20.006  0.00  0.00    +0.000 A 
ATOM      2  C   UNL     1       1.144   9.341  18.803  0.00  0.00    +0.000 A 
ATOM      3  C   UNL     1       2.023   8.248  18.715  0.00  0.00    +0.000 A 
ATOM      4  C   UNL     1       2.213   7.399  19.813  0.00  0.00    +0.000 A 
ATOM      5  C   UNL     1       1.338   7.516  20.889  0.00  0.00    +0.000 A 
ATOM      6  C   UNL     1       0.537   8.666  21.028  0.00  0.00    +0.000 A 
ENDROOT
BRANCH   1   7
ATOM      7  N   UNL     1      -0.160  10.864  20.229  0.00  0.00    +0.000 N 
ATOM      8  H   UNL     1      -0.745  10.872  21.067  0.00  0.00    +0.000 HD
BRANCH   7   9
ATOM      9  S   UNL     1       0.785  12.277  20.249  0.00  0.00    +0.000 S 
ATOM     10  O   UNL     1       1.278  12.540  18.911  0.00  0.00    +0.000 OA
ATOM     11  O   UNL     1       1.693  12.111  21.363  0.00  0.00    +0.000 OA
BRANCH   9  12
ATOM     12  C   UNL     1      -0.395  13.561  20.667  0.00  0.00    +0.000 C 
BRANCH  12  13
ATOM     13  C   UNL     1      -1.830  13.266  20.232  0.00  0.00    +0.000 C 
BRANCH  13  17
ATOM     14  C   UNL     1      -4.399  12.641  23.690  0.00  0.00    +0.000 A 
ATOM     15  C   UNL     1      -4.907  13.185  22.506  0.00  0.00    +0.000 A 
ATOM     16  C   UNL     1      -4.074  13.393  21.399  0.00  0.00    +0.000 A 
ATOM     17  C   UNL     1      -2.725  13.020  21.431  0.00  0.00    +0.000 A 
ATOM     18  C   UNL     1      -2.228  12.426  22.601  0.00  0.00    +0.000 A 
ATOM     19  C   UNL     1      -3.069  12.214  23.707  0.00  0.00    +0.000 A 
BRANCH  14  20
ATOM     20  N   UNL     1      -5.262  12.319  24.744  0.00  0.00    +0.000 N 
ATOM     21  H   UNL     1      -5.800  11.471  24.595  0.00  0.00    +0.000 HD
ATOM     22  H   UNL     1      -5.836  13.096  25.062  0.00  0.00    +0.000 HD
ENDBRANCH  14  20
ENDBRANCH  13  17
ENDBRANCH  12  13
ENDBRANCH   9  12
ENDBRANCH   7   9
ENDBRANCH   1   7
BRANCH   4  23
ATOM     23  N   UNL     1       3.329   6.535  19.860  0.00  0.00    +0.000 N 
ATOM     24  H   UNL     1       3.740   6.484  20.789  0.00  0.00    +0.000 HD
BRANCH  23  25
ATOM     25  C   UNL     1       3.655   5.346  19.103  0.00  0.00    +0.000 A 
ATOM     26  C   UNL     1       4.293   5.322  17.804  0.00  0.00    +0.000 A 
ATOM     27  C   UNL     1       4.400   6.361  16.847  0.00  0.00    +0.000 A 
ATOM     28  C   UNL     1       5.205   6.252  15.713  0.00  0.00    +0.000 A 
ATOM     29  C   UNL     1       5.886   5.068  15.476  0.00  0.00    +0.000 A 
ATOM     30  C   UNL     1       5.602   3.969  16.273  0.00  0.00    +0.000 A 
ATOM     31  C   UNL     1       4.713   4.074  17.334  0.00  0.00    +0.000 A 
ATOM     32  N   UNL     1       4.122   2.967  17.761  0.00  0.00    +0.000 NA
ATOM     33  C   UNL     1       3.118   3.152  18.621  0.00  0.00    +0.000 A 
ATOM     34  C   UNL     1       1.817   2.830  18.272  0.00  0.00    +0.000 A 
ATOM     35  C   UNL     1       0.754   3.125  19.129  0.00  0.00    +0.000 A 
ATOM     36  C   UNL     1       1.046   3.521  20.428  0.00  0.00    +0.000 A 
ATOM     37  C   UNL     1       2.337   3.940  20.709  0.00  0.00    +0.000 A 
ATOM     38  C   UNL     1       3.192   4.099  19.608  0.00  0.00    +0.000 A 
ENDBRANCH  23  25
ENDBRANCH   4  23
TORSDOF 8
ENDMDL
MODEL 7
REMARK VINA RESULT:      -9.4      2.660      2.907
REMARK  Name = 
REMARK  8 active torsions:
REMARK  status: ('A' for Active; 'I' for Inactive)
REMARK    1  A    between atoms: N_1  and  C_2
REMARK    2  A    between atoms: C_5  and  C_6
REMARK    3  A    between atoms: C_6  and  C_7
REMARK    4  A    between atoms: C_7  and  S_8
REMARK    5  A    between atoms: S_8  and  N_11
REMARK    6  A    between atoms: N_11  and  C_12
REMARK    7  A    between atoms: C_15  and  N_16
REMARK    8  A    between atoms: N_16  and  C_17
REMARK                            x       y       z     vdW  Elec       q    Type
REMARK                         _______ _______ _______ _____ _____    ______ ____
ROOT
ATOM      1  C   UNL     1       0.831   9.833  19.612  0.00  0.00    +0.000 A 
ATOM      2  C   UNL     1       1.429   9.322  18.466  0.00  0.00    +0.000 A 
ATOM      3  C   UNL     1       2.151   8.119  18.539  0.00  0.00    +0.000 A 
ATOM      4  C   UNL     1       2.230   7.410  19.745  0.00  0.00    +0.000 A 
ATOM      5  C   UNL     1       1.384   7.790  20.782  0.00  0.00    +0.000 A 
ATOM      6  C   UNL     1       0.747   9.045  20.752  0.00  0.00    +0.000 A 
ENDROOT
BRANCH   1   7
ATOM      7  N   UNL     1       0.350  11.187  19.652  0.00  0.00    +0.000 N 
ATOM      8  H   UNL     1       1.010  11.862  19.260  0.00  0.00    +0.000 HD
BRANCH   7   9
ATOM      9  S   UNL     1      -1.180  11.520  18.991  0.00  0.00    +0.000 S 
ATOM     10  O   UNL     1      -1.023  12.389  17.841  0.00  0.00    +0.000 OA
ATOM     11  O   UNL     1      -2.004  11.907  20.116  0.00  0.00    +0.000 OA
BRANCH   9  12
ATOM     12  C   UNL     1      -1.737   9.920  18.405  0.00  0.00    +0.000 C 
BRANCH  12  13
ATOM     13  C   UNL     1      -2.604   9.974  17.148  0.00  0.00    +0.000 C 
BRANCH  13  17
ATOM     14  C   UNL     1      -6.486  11.778  17.941  0.00  0.00    +0.000 A 
ATOM     15  C   UNL     1      -6.024  10.702  18.705  0.00  0.00    +0.000 A 
ATOM     16  C   UNL     1      -4.778  10.118  18.440  0.00  0.00    +0.000 A 
ATOM     17  C   UNL     1      -3.943  10.625  17.436  0.00  0.00    +0.000 A 
ATOM     18  C   UNL     1      -4.384  11.738  16.705  0.00  0.00    +0.000 A 
ATOM     19  C   UNL     1      -5.633  12.323  16.978  0.00  0.00    +0.000 A 
BRANCH  14  20
ATOM     20  N   UNL     1      -7.671  12.434  18.293  0.00  0.00    +0.000 N 
ATOM     21  H   UNL     1      -7.779  12.587  19.290  0.00  0.00    +0.000 HD
ATOM     22  H   UNL     1      -8.506  12.042  17.864  0.00  0.00    +0.000 HD
ENDBRANCH  14  20
ENDBRANCH  13  17
ENDBRANCH  12  13
ENDBRANCH   9  12
ENDBRANCH   7   9
ENDBRANCH   1   7
BRANCH   4  23
ATOM     23  N   UNL     1       3.220   6.418  19.924  0.00  0.00    +0.000 N 
ATOM     24  H   UNL     1       3.445   6.269  20.905  0.00  0.00    +0.000 HD
BRANCH  23  25
ATOM     25  C   UNL     1       3.551   5.242  19.151  0.00  0.00    +0.000 A 
ATOM     26  C   UNL     1       4.218   5.238  17.865  0.00  0.00    +0.000 A 
ATOM     27  C   UNL     1       4.357   6.295  16.933  0.00  0.00    +0.000 A 
ATOM     28  C   UNL     1       5.186   6.201  15.815  0.00  0.00    +0.000 A 
ATOM     29  C   UNL     1       5.861   5.015  15.569  0.00  0.00    +0.000 A 
ATOM     30  C   UNL     1       5.548   3.903  16.336  0.00  0.00    +0.000 A 
ATOM     31  C   UNL     1       4.636   3.995  17.379  0.00  0.00    +0.000 A 
ATOM     32  N   UNL     1       4.024   2.886  17.770  0.00  0.00    +0.000 NA
ATOM     33  C   UNL     1       3.004   3.064  18.610  0.00  0.00    +0.000 A 
ATOM     34  C   UNL     1       1.707   2.762  18.225  0.00  0.00    +0.000 A 
ATOM     35  C   UNL     1       0.628   3.051  19.065  0.00  0.00    +0.000 A 
ATOM     36  C   UNL     1       0.895   3.417  20.378  0.00  0.00    +0.000 A 
ATOM     37  C   UNL     1       2.183   3.817  20.696  0.00  0.00    +0.000 A 
ATOM     38  C   UNL     1       3.064   3.990  19.619  0.00  0.00    +0.000 A 
ENDBRANCH  23  25
ENDBRANCH   4  23
TORSDOF 8
ENDMDL
MODEL 8
REMARK VINA RESULT:      -9.4      3.740     10.212
REMARK  Name = 
REMARK  8 active torsions:
REMARK  status: ('A' for Active; 'I' for Inactive)
REMARK    1  A    between atoms: N_1  and  C_2
REMARK    2  A    between atoms: C_5  and  C_6
REMARK    3  A    between atoms: C_6  and  C_7
REMARK    4  A    between atoms: C_7  and  S_8
REMARK    5  A    between atoms: S_8  and  N_11
REMARK    6  A    between atoms: N_11  and  C_12
REMARK    7  A    between atoms: C_15  and  N_16
REMARK    8  A    between atoms: N_16  and  C_17
REMARK                            x       y       z     vdW  Elec       q    Type
REMARK                         _______ _______ _______ _____ _____    ______ ____
ROOT
ATOM      1  C   UNL     1       2.408   6.349  19.986  0.00  0.00    +0.000 A 
ATOM      2  C   UNL     1       1.536   7.036  20.824  0.00  0.00    +0.000 A 
ATOM      3  C   UNL     1       1.078   8.312  20.453  0.00  0.00    +0.000 A 
ATOM      4  C   UNL     1       1.455   8.872  19.225  0.00  0.00    +0.000 A 
ATOM      5  C   UNL     1       2.077   8.046  18.293  0.00  0.00    +0.000 A 
ATOM      6  C   UNL     1       2.629   6.815  18.696  0.00  0.00    +0.000 A 
ENDROOT
BRANCH   1   7
ATOM      7  N   UNL     1       3.128   5.198  20.454  0.00  0.00    +0.000 N 
ATOM      8  H   UNL     1       3.411   5.269  21.434  0.00  0.00    +0.000 HD
BRANCH   7   9
ATOM      9  S   UNL     1       2.432   3.664  20.229  0.00  0.00    +0.000 S 
ATOM     10  O   UNL     1       1.264   3.790  19.380  0.00  0.00    +0.000 OA
ATOM     11  O   UNL     1       2.335   3.092  21.555  0.00  0.00    +0.000 OA
BRANCH   9  12
ATOM     12  C   UNL     1       3.688   2.767  19.316  0.00  0.00    +0.000 C 
BRANCH  12  13
ATOM     13  C   UNL     1       3.724   3.077  17.821  0.00  0.00    +0.000 C 
BRANCH  13  17
ATOM     14  C   UNL     1       6.655   6.185  16.981  0.00  0.00    +0.000 A 
ATOM     15  C   UNL     1       6.697   5.462  18.178  0.00  0.00    +0.000 A 
ATOM     16  C   UNL     1       5.745   4.469  18.447  0.00  0.00    +0.000 A 
ATOM     17  C   UNL     1       4.758   4.142  17.509  0.00  0.00    +0.000 A 
ATOM     18  C   UNL     1       4.749   4.831  16.287  0.00  0.00    +0.000 A 
ATOM     19  C   UNL     1       5.709   5.822  16.019  0.00  0.00    +0.000 A 
BRANCH  14  20
ATOM     20  N   UNL     1       7.681   7.083  16.665  0.00  0.00    +0.000 N 
ATOM     21  H   UNL     1       7.484   7.671  15.862  0.00  0.00    +0.000 HD
ATOM     22  H   UNL     1       8.605   6.660  16.623  0.00  0.00    +0.000 HD
ENDBRANCH  14  20
ENDBRANCH  13  17
ENDBRANCH  12  13
ENDBRANCH   9  12
ENDBRANCH   7   9
ENDBRANCH   1   7
BRANCH   4  23
ATOM     23  N   UNL     1       1.305  10.258  18.999  0.00  0.00    +0.000 N 
ATOM     24  H   UNL     1       1.922  10.600  18.267  0.00  0.00    +0.000 HD
BRANCH  23  25
ATOM     25  C   UNL     1       0.162  11.135  19.139  0.00  0.00    +0.000 A 
ATOM     26  C   UNL     1      -1.122  10.956  18.493  0.00  0.00    +0.000 A 
ATOM     27  C   UNL     1      -1.444  10.173  17.357  0.00  0.00    +0.000 A 
ATOM     28  C   UNL     1      -2.760   9.948  16.955  0.00  0.00    +0.000 A 
ATOM     29  C   UNL     1      -3.796  10.551  17.651  0.00  0.00    +0.000 A 
ATOM     30  C   UNL     1      -3.483  11.504  18.610  0.00  0.00    +0.000 A 
ATOM     31  C   UNL     1      -2.160  11.791  18.919  0.00  0.00    +0.000 A 
ATOM     32  N   UNL     1      -1.888  12.971  19.456  0.00  0.00    +0.000 NA
ATOM     33  C   UNL     1      -0.593  13.283  19.523  0.00  0.00    +0.000 A 
ATOM     34  C   UNL     1      -0.076  14.331  18.778  0.00  0.00    +0.000 A 
ATOM     35  C   UNL     1       1.297  14.588  18.764  0.00  0.00    +0.000 A 
ATOM     36  C   UNL     1       2.098  13.934  19.692  0.00  0.00    +0.000 A 
ATOM     37  C   UNL     1       1.579  12.822  20.336  0.00  0.00    +0.000 A 
ATOM     38  C   UNL     1       0.349  12.346  19.860  0.00  0.00    +0.000 A 
ENDBRANCH  23  25
ENDBRANCH   4  23
TORSDOF 8
ENDMDL
MODEL 9
REMARK VINA RESULT:      -9.4      1.245      1.568
REMARK  Name = 
REMARK  8 active torsions:
REMARK  status: ('A' for Active; 'I' for Inactive)
REMARK    1  A    between atoms: N_1  and  C_2
REMARK    2  A    between atoms: C_5  and  C_6
REMARK    3  A    between atoms: C_6  and  C_7
REMARK    4  A    between atoms: C_7  and  S_8
REMARK    5  A    between atoms: S_8  and  N_11
REMARK    6  A    between atoms: N_11  and  C_12
REMARK    7  A    between atoms: C_15  and  N_16
REMARK    8  A    between atoms: N_16  and  C_17
REMARK                            x       y       z     vdW  Elec       q    Type
REMARK                         _______ _______ _______ _____ _____    ______ ____
ROOT
ATOM      1  C   UNL     1       0.883   9.829  19.540  0.00  0.00    +0.000 A 
ATOM      2  C   UNL     1       1.469   9.315  18.389  0.00  0.00    +0.000 A 
ATOM      3  C   UNL     1       2.198   8.116  18.458  0.00  0.00    +0.000 A 
ATOM      4  C   UNL     1       2.295   7.412  19.666  0.00  0.00    +0.000 A 
ATOM      5  C   UNL     1       1.460   7.792  20.712  0.00  0.00    +0.000 A 
ATOM      6  C   UNL     1       0.817   9.044  20.685  0.00  0.00    +0.000 A 
ENDROOT
BRANCH   1   7
ATOM      7  N   UNL     1       0.396  11.180  19.581  0.00  0.00    +0.000 N 
ATOM      8  H   UNL     1       1.058  11.860  19.199  0.00  0.00    +0.000 HD
BRANCH   7   9
ATOM      9  S   UNL     1      -1.127  11.510  18.905  0.00  0.00    +0.000 S 
ATOM     10  O   UNL     1      -1.757  10.263  18.517  0.00  0.00    +0.000 OA
ATOM     11  O   UNL     1      -0.895  12.564  17.941  0.00  0.00    +0.000 OA
BRANCH   9  12
ATOM     12  C   UNL     1      -2.053  12.195  20.280  0.00  0.00    +0.000 C 
BRANCH  12  13
ATOM     13  C   UNL     1      -1.564  11.748  21.656  0.00  0.00    +0.000 C 
BRANCH  13  17
ATOM     14  C   UNL     1      -2.566  14.749  24.646  0.00  0.00    +0.000 A 
ATOM     15  C   UNL     1      -3.441  13.695  24.365  0.00  0.00    +0.000 A 
ATOM     16  C   UNL     1      -3.118  12.736  23.395  0.00  0.00    +0.000 A 
ATOM     17  C   UNL     1      -1.893  12.781  22.716  0.00  0.00    +0.000 A 
ATOM     18  C   UNL     1      -0.994  13.809  23.036  0.00  0.00    +0.000 A 
ATOM     19  C   UNL     1      -1.320  14.764  24.014  0.00  0.00    +0.000 A 
BRANCH  14  20
ATOM     20  N   UNL     1      -2.838  15.626  25.702  0.00  0.00    +0.000 N 
ATOM     21  H   UNL     1      -2.010  15.960  26.187  0.00  0.00    +0.000 HD
ATOM     22  H   UNL     1      -3.559  15.298  26.339  0.00  0.00    +0.000 HD
ENDBRANCH  14  20
ENDBRANCH  13  17
ENDBRANCH  12  13
ENDBRANCH   9  12
ENDBRANCH   7   9
ENDBRANCH   1   7
BRANCH   4  23
ATOM     23  N   UNL     1       3.291   6.426  19.837  0.00  0.00    +0.000 N 
ATOM     24  H   UNL     1       3.546   6.298  20.813  0.00  0.00    +0.000 HD
BRANCH  23  25
ATOM     25  C   UNL     1       3.599   5.232  19.080  0.00  0.00    +0.000 A 
ATOM     26  C   UNL     1       4.258   5.197  17.791  0.00  0.00    +0.000 A 
ATOM     27  C   UNL     1       4.406   6.237  16.840  0.00  0.00    +0.000 A 
ATOM     28  C   UNL     1       5.227   6.112  15.719  0.00  0.00    +0.000 A 
ATOM     29  C   UNL     1       5.882   4.913  15.488  0.00  0.00    +0.000 A 
ATOM     30  C   UNL     1       5.558   3.818  16.276  0.00  0.00    +0.000 A 
ATOM     31  C   UNL     1       4.654   3.940  17.322  0.00  0.00    +0.000 A 
ATOM     32  N   UNL     1       4.029   2.847  17.735  0.00  0.00    +0.000 NA
ATOM     33  C   UNL     1       3.017   3.054  18.579  0.00  0.00    +0.000 A 
ATOM     34  C   UNL     1       1.713   2.765  18.207  0.00  0.00    +0.000 A 
ATOM     35  C   UNL     1       0.644   3.083  19.048  0.00  0.00    +0.000 A 
ATOM     36  C   UNL     1       0.925   3.466  20.354  0.00  0.00    +0.000 A 
ATOM     37  C   UNL     1       2.221   3.852  20.658  0.00  0.00    +0.000 A 
ATOM     38  C   UNL     1       3.097   3.995  19.572  0.00  0.00    +0.000 A 
ENDBRANCH  23  25
ENDBRANCH   4  23
TORSDOF 8
ENDMDL
