MODEL 1
REMARK VINA RESULT:      -7.8      0.000      0.000
REMARK  Name = 
REMARK  6 active torsions:
REMARK  status: ('A' for Active; 'I' for Inactive)
REMARK    1  A    between atoms: C_1  and  C_2
REMARK    2  A    between atoms: C_5  and  C_6
REMARK    3  A    between atoms: C_13  and  N_14
REMARK    4  A    between atoms: C_15  and  C_17
REMARK    5  A    between atoms: C_17  and  O_18
REMARK    6  A    between atoms: O_18  and  C_19
REMARK                            x       y       z     vdW  Elec       q    Type
REMARK                         _______ _______ _______ _____ _____    ______ ____
ROOT
ATOM      1  C   UNL     1       7.411   6.915  17.501  0.00  0.00    +0.000 C 
ATOM      2  C   UNL     1       6.852   5.864  16.583  0.00  0.00    +0.000 A 
ATOM      3  N   UNL     1       7.498   5.805  15.372  0.00  0.00    +0.000 NA
ATOM      4  C   UNL     1       7.026   5.033  14.442  0.00  0.00    +0.000 A 
ATOM      5  C   UNL     1       7.709   5.014  13.100  0.00  0.00    +0.000 A 
ATOM      6  C   UNL     1       8.965   5.809  12.907  0.00  0.00    +0.000 C 
ATOM      7  C   UNL     1       7.160   4.284  12.115  0.00  0.00    +0.000 A 
ATOM      8  C   UNL     1       5.977   3.500  12.337  0.00  0.00    +0.000 A 
ATOM      9  C   UNL     1       5.405   3.482  13.547  0.00  0.00    +0.000 A 
ATOM     10  N   UNL     1       5.901   4.239  14.603  0.00  0.00    +0.000 N 
ATOM     11  C   UNL     1       5.225   4.236  15.814  0.00  0.00    +0.000 A 
ATOM     12  O   UNL     1       4.197   3.593  16.049  0.00  0.00    +0.000 OA
ATOM     13  C   UNL     1       5.765   5.124  16.885  0.00  0.00    +0.000 A 
ENDROOT
BRANCH  13  14
ATOM     14  N   UNL     1       5.052   5.210  18.074  0.00  0.00    +0.000 N 
ATOM     15  C   UNL     1       4.079   6.202  18.218  0.00  0.00    +0.000 C 
ATOM     16  O   UNL     1       3.657   6.898  17.297  0.00  0.00    +0.000 OA
ATOM     17  H   UNL     1       5.669   5.249  18.885  0.00  0.00    +0.000 HD
BRANCH  15  18
ATOM     18  C   UNL     1       3.572   6.357  19.659  0.00  0.00    +0.000 C 
BRANCH  18  19
ATOM     19  O   UNL     1       2.181   6.056  19.699  0.00  0.00    +0.000 OA
BRANCH  19  20
ATOM     20  C   UNL     1       1.823   4.737  19.826  0.00  0.00    +0.000 A 
ATOM     21  C   UNL     1       1.492   4.113  18.617  0.00  0.00    +0.000 A 
ATOM     22  C   UNL     1       1.117   2.770  18.589  0.00  0.00    +0.000 A 
ATOM     23  C   UNL     1       1.083   2.032  19.770  0.00  0.00    +0.000 A 
ATOM     24  C   UNL     1       1.429   2.642  20.974  0.00  0.00    +0.000 A 
ATOM     25  C   UNL     1       1.802   3.993  21.005  0.00  0.00    +0.000 A 
ENDBRANCH  19  20
ENDBRANCH  18  19
ENDBRANCH  15  18
ENDBRANCH  13  14
TORSDOF 4
ENDMDL
MODEL 2
REMARK VINA RESULT:      -7.7      3.638      7.705
REMARK  Name = 
REMARK  6 active torsions:
REMARK  status: ('A' for Active; 'I' for Inactive)
REMARK    1  A    between atoms: C_1  and  C_2
REMARK    2  A    between atoms: C_5  and  C_6
REMARK    3  A    between atoms: C_13  and  N_14
REMARK    4  A    between atoms: C_15  and  C_17
REMARK    5  A    between atoms: C_17  and  O_18
REMARK    6  A    between atoms: O_18  and  C_19
REMARK                            x       y       z     vdW  Elec       q    Type
REMARK                         _______ _______ _______ _____ _____    ______ ____
ROOT
ATOM      1  C   UNL     1       7.606   4.471  16.860  0.00  0.00    +0.000 C 
ATOM      2  C   UNL     1       6.230   4.901  17.287  0.00  0.00    +0.000 A 
ATOM      3  N   UNL     1       5.388   3.845  17.540  0.00  0.00    +0.000 NA
ATOM      4  C   UNL     1       4.137   4.080  17.786  0.00  0.00    +0.000 A 
ATOM      5  C   UNL     1       3.210   2.915  18.010  0.00  0.00    +0.000 A 
ATOM      6  C   UNL     1       3.775   1.526  18.040  0.00  0.00    +0.000 C 
ATOM      7  C   UNL     1       1.900   3.162  18.171  0.00  0.00    +0.000 A 
ATOM      8  C   UNL     1       1.389   4.505  18.177  0.00  0.00    +0.000 A 
ATOM      9  C   UNL     1       2.226   5.538  18.027  0.00  0.00    +0.000 A 
ATOM     10  N   UNL     1       3.589   5.354  17.825  0.00  0.00    +0.000 N 
ATOM     11  C   UNL     1       4.397   6.459  17.605  0.00  0.00    +0.000 A 
ATOM     12  O   UNL     1       4.004   7.630  17.584  0.00  0.00    +0.000 OA
ATOM     13  C   UNL     1       5.838   6.191  17.321  0.00  0.00    +0.000 A 
ENDROOT
BRANCH  13  14
ATOM     14  N   UNL     1       6.647   7.276  17.005  0.00  0.00    +0.000 N 
ATOM     15  C   UNL     1       7.662   7.652  17.889  0.00  0.00    +0.000 C 
ATOM     16  O   UNL     1       8.033   6.976  18.846  0.00  0.00    +0.000 OA
ATOM     17  H   UNL     1       6.098   8.105  16.779  0.00  0.00    +0.000 HD
BRANCH  15  18
ATOM     18  C   UNL     1       8.288   9.014  17.557  0.00  0.00    +0.000 C 
BRANCH  18  19
ATOM     19  O   UNL     1       8.639   9.673  18.768  0.00  0.00    +0.000 OA
BRANCH  19  20
ATOM     20  C   UNL     1       9.362  10.836  18.669  0.00  0.00    +0.000 A 
ATOM     21  C   UNL     1       8.773  11.810  17.854  0.00  0.00    +0.000 A 
ATOM     22  C   UNL     1       9.388  13.048  17.666  0.00  0.00    +0.000 A 
ATOM     23  C   UNL     1      10.594  13.329  18.304  0.00  0.00    +0.000 A 
ATOM     24  C   UNL     1      11.176  12.370  19.132  0.00  0.00    +0.000 A 
ATOM     25  C   UNL     1      10.561  11.125  19.319  0.00  0.00    +0.000 A 
ENDBRANCH  19  20
ENDBRANCH  18  19
ENDBRANCH  15  18
ENDBRANCH  13  14
TORSDOF 4
ENDMDL
MODEL 3
REMARK VINA RESULT:      -7.5      2.655      7.602
REMARK  Name = 
REMARK  6 active torsions:
REMARK  status: ('A' for Active; 'I' for Inactive)
REMARK    1  A    between atoms: C_1  and  C_2
REMARK    2  A    between atoms: C_5  and  C_6
REMARK    3  A    between atoms: C_13  and  N_14
REMARK    4  A    between atoms: C_15  and  C_17
REMARK    5  A    between atoms: C_17  and  O_18
REMARK    6  A    between atoms: O_18  and  C_19
REMARK                            x       y       z     vdW  Elec       q    Type
REMARK                         _______ _______ _______ _____ _____    ______ ____
ROOT
ATOM      1  C   UNL     1       2.643   4.655  20.281  0.00  0.00    +0.000 C 
ATOM      2  C   UNL     1       2.651   6.006  19.622  0.00  0.00    +0.000 A 
ATOM      3  N   UNL     1       1.900   6.939  20.295  0.00  0.00    +0.000 NA
ATOM      4  C   UNL     1       1.716   8.106  19.759  0.00  0.00    +0.000 A 
ATOM      5  C   UNL     1       0.850   9.105  20.479  0.00  0.00    +0.000 A 
ATOM      6  C   UNL     1       0.306   8.761  21.833  0.00  0.00    +0.000 C 
ATOM      7  C   UNL     1       0.587  10.276  19.874  0.00  0.00    +0.000 A 
ATOM      8  C   UNL     1       1.152  10.597  18.593  0.00  0.00    +0.000 A 
ATOM      9  C   UNL     1       1.962   9.724  17.982  0.00  0.00    +0.000 A 
ATOM     10  N   UNL     1       2.251   8.481  18.536  0.00  0.00    +0.000 N 
ATOM     11  C   UNL     1       3.040   7.590  17.825  0.00  0.00    +0.000 A 
ATOM     12  O   UNL     1       3.533   7.812  16.715  0.00  0.00    +0.000 OA
ATOM     13  C   UNL     1       3.253   6.245  18.439  0.00  0.00    +0.000 A 
ENDROOT
BRANCH  13  14
ATOM     14  N   UNL     1       3.961   5.304  17.703  0.00  0.00    +0.000 N 
ATOM     15  C   UNL     1       5.327   5.135  17.943  0.00  0.00    +0.000 C 
ATOM     16  O   UNL     1       5.927   5.619  18.900  0.00  0.00    +0.000 OA
ATOM     17  H   UNL     1       3.827   5.429  16.699  0.00  0.00    +0.000 HD
BRANCH  15  18
ATOM     18  C   UNL     1       6.032   4.276  16.884  0.00  0.00    +0.000 C 
BRANCH  18  19
ATOM     19  O   UNL     1       5.285   4.319  15.674  0.00  0.00    +0.000 OA
BRANCH  19  20
ATOM     20  C   UNL     1       5.988   4.344  14.496  0.00  0.00    +0.000 A 
ATOM     21  C   UNL     1       5.432   3.559  13.478  0.00  0.00    +0.000 A 
ATOM     22  C   UNL     1       6.032   3.494  12.221  0.00  0.00    +0.000 A 
ATOM     23  C   UNL     1       7.189   4.225  11.963  0.00  0.00    +0.000 A 
ATOM     24  C   UNL     1       7.738   5.023  12.967  0.00  0.00    +0.000 A 
ATOM     25  C   UNL     1       7.138   5.086  14.232  0.00  0.00    +0.000 A 
ENDBRANCH  19  20
ENDBRANCH  18  19
ENDBRANCH  15  18
ENDBRANCH  13  14
TORSDOF 4
ENDMDL
MODEL 4
REMARK VINA RESULT:      -7.5      2.955      7.947
REMARK  Name = 
REMARK  6 active torsions:
REMARK  status: ('A' for Active; 'I' for Inactive)
REMARK    1  A    between atoms: C_1  and  C_2
REMARK    2  A    between atoms: C_5  and  C_6
REMARK    3  A    between atoms: C_13  and  N_14
REMARK    4  A    between atoms: C_15  and  C_17
REMARK    5  A    between atoms: C_17  and  O_18
REMARK    6  A    between atoms: O_18  and  C_19
REMARK                            x       y       z     vdW  Elec       q    Type
REMARK                         _______ _______ _______ _____ _____    ______ ____
ROOT
ATOM      1  C   UNL     1       2.185   4.935  20.562  0.00  0.00    +0.000 C 
ATOM      2  C   UNL     1       2.190   6.295  19.923  0.00  0.00    +0.000 A 
ATOM      3  N   UNL     1       1.639   7.269  20.720  0.00  0.00    +0.000 NA
ATOM      4  C   UNL     1       1.462   8.458  20.232  0.00  0.00    +0.000 A 
ATOM      5  C   UNL     1       0.809   9.505  21.095  0.00  0.00    +0.000 A 
ATOM      6  C   UNL     1       0.472   9.175  22.518  0.00  0.00    +0.000 C 
ATOM      7  C   UNL     1       0.544  10.705  20.553  0.00  0.00    +0.000 A 
ATOM      8  C   UNL     1       0.912  11.009  19.198  0.00  0.00    +0.000 A 
ATOM      9  C   UNL     1       1.537  10.090  18.453  0.00  0.00    +0.000 A 
ATOM     10  N   UNL     1       1.814   8.817  18.940  0.00  0.00    +0.000 N 
ATOM     11  C   UNL     1       2.400   7.883  18.099  0.00  0.00    +0.000 A 
ATOM     12  O   UNL     1       2.719   8.090  16.924  0.00  0.00    +0.000 OA
ATOM     13  C   UNL     1       2.605   6.513  18.658  0.00  0.00    +0.000 A 
ENDROOT
BRANCH  13  14
ATOM     14  N   UNL     1       3.104   5.536  17.805  0.00  0.00    +0.000 N 
ATOM     15  C   UNL     1       4.485   5.357  17.706  0.00  0.00    +0.000 C 
ATOM     16  O   UNL     1       5.307   5.866  18.465  0.00  0.00    +0.000 OA
ATOM     17  H   UNL     1       2.726   5.627  16.862  0.00  0.00    +0.000 HD
BRANCH  15  18
ATOM     18  C   UNL     1       4.902   4.450  16.539  0.00  0.00    +0.000 C 
BRANCH  18  19
ATOM     19  O   UNL     1       6.070   4.985  15.927  0.00  0.00    +0.000 OA
BRANCH  19  20
ATOM     20  C   UNL     1       6.307   4.651  14.616  0.00  0.00    +0.000 A 
ATOM     21  C   UNL     1       7.432   5.273  14.060  0.00  0.00    +0.000 A 
ATOM     22  C   UNL     1       7.803   5.023  12.739  0.00  0.00    +0.000 A 
ATOM     23  C   UNL     1       7.059   4.137  11.963  0.00  0.00    +0.000 A 
ATOM     24  C   UNL     1       5.950   3.500  12.517  0.00  0.00    +0.000 A 
ATOM     25  C   UNL     1       5.573   3.753  13.843  0.00  0.00    +0.000 A 
ENDBRANCH  19  20
ENDBRANCH  18  19
ENDBRANCH  15  18
ENDBRANCH  13  14
TORSDOF 4
ENDMDL
MODEL 5
REMARK VINA RESULT:      -7.4      2.025      7.221
REMARK  Name = 
REMARK  6 active torsions:
REMARK  status: ('A' for Active; 'I' for Inactive)
REMARK    1  A    between atoms: C_1  and  C_2
REMARK    2  A    between atoms: C_5  and  C_6
REMARK    3  A    between atoms: C_13  and  N_14
REMARK    4  A    between atoms: C_15  and  C_17
REMARK    5  A    between atoms: C_17  and  O_18
REMARK    6  A    between atoms: O_18  and  C_19
REMARK                            x       y       z     vdW  Elec       q    Type
REMARK                         _______ _______ _______ _____ _____    ______ ____
ROOT
ATOM      1  C   UNL     1       4.434   7.144  17.069  0.00  0.00    +0.000 C 
ATOM      2  C   UNL     1       3.879   5.826  17.532  0.00  0.00    +0.000 A 
ATOM      3  N   UNL     1       3.084   5.936  18.648  0.00  0.00    +0.000 NA
ATOM      4  C   UNL     1       2.653   4.858  19.225  0.00  0.00    +0.000 A 
ATOM      5  C   UNL     1       1.826   4.986  20.476  0.00  0.00    +0.000 A 
ATOM      6  C   UNL     1       1.443   6.351  20.963  0.00  0.00    +0.000 C 
ATOM      7  C   UNL     1       1.463   3.864  21.120  0.00  0.00    +0.000 A 
ATOM      8  C   UNL     1       1.811   2.566  20.612  0.00  0.00    +0.000 A 
ATOM      9  C   UNL     1       2.503   2.459  19.471  0.00  0.00    +0.000 A 
ATOM     10  N   UNL     1       2.938   3.578  18.770  0.00  0.00    +0.000 N 
ATOM     11  C   UNL     1       3.712   3.407  17.633  0.00  0.00    +0.000 A 
ATOM     12  O   UNL     1       4.051   2.315  17.166  0.00  0.00    +0.000 OA
ATOM     13  C   UNL     1       4.210   4.647  16.967  0.00  0.00    +0.000 A 
ENDROOT
BRANCH  13  14
ATOM     14  N   UNL     1       5.064   4.499  15.881  0.00  0.00    +0.000 N 
ATOM     15  C   UNL     1       6.445   4.537  16.088  0.00  0.00    +0.000 C 
ATOM     16  O   UNL     1       6.982   4.496  17.193  0.00  0.00    +0.000 OA
ATOM     17  H   UNL     1       4.837   5.148  15.128  0.00  0.00    +0.000 HD
BRANCH  15  18
ATOM     18  C   UNL     1       7.256   4.639  14.788  0.00  0.00    +0.000 C 
BRANCH  18  19
ATOM     19  O   UNL     1       6.361   4.758  13.688  0.00  0.00    +0.000 OA
BRANCH  19  20
ATOM     20  C   UNL     1       6.363   3.747  12.759  0.00  0.00    +0.000 A 
ATOM     21  C   UNL     1       5.086   3.297  12.398  0.00  0.00    +0.000 A 
ATOM     22  C   UNL     1       4.930   2.280  11.457  0.00  0.00    +0.000 A 
ATOM     23  C   UNL     1       6.050   1.711  10.855  0.00  0.00    +0.000 A 
ATOM     24  C   UNL     1       7.322   2.168  11.196  0.00  0.00    +0.000 A 
ATOM     25  C   UNL     1       7.481   3.187  12.145  0.00  0.00    +0.000 A 
ENDBRANCH  19  20
ENDBRANCH  18  19
ENDBRANCH  15  18
ENDBRANCH  13  14
TORSDOF 4
ENDMDL
MODEL 6
REMARK VINA RESULT:      -7.4      2.419      7.391
REMARK  Name = 
REMARK  6 active torsions:
REMARK  status: ('A' for Active; 'I' for Inactive)
REMARK    1  A    between atoms: C_1  and  C_2
REMARK    2  A    between atoms: C_5  and  C_6
REMARK    3  A    between atoms: C_13  and  N_14
REMARK    4  A    between atoms: C_15  and  C_17
REMARK    5  A    between atoms: C_17  and  O_18
REMARK    6  A    between atoms: O_18  and  C_19
REMARK                            x       y       z     vdW  Elec       q    Type
REMARK                         _______ _______ _______ _____ _____    ______ ____
ROOT
ATOM      1  C   UNL     1       3.721   4.270  19.871  0.00  0.00    +0.000 C 
ATOM      2  C   UNL     1       3.530   5.623  19.245  0.00  0.00    +0.000 A 
ATOM      3  N   UNL     1       2.620   6.405  19.915  0.00  0.00    +0.000 NA
ATOM      4  C   UNL     1       2.266   7.542  19.401  0.00  0.00    +0.000 A 
ATOM      5  C   UNL     1       1.230   8.369  20.115  0.00  0.00    +0.000 A 
ATOM      6  C   UNL     1       0.711   7.904  21.443  0.00  0.00    +0.000 C 
ATOM      7  C   UNL     1       0.801   9.499  19.530  0.00  0.00    +0.000 A 
ATOM      8  C   UNL     1       1.342   9.942  18.276  0.00  0.00    +0.000 A 
ATOM      9  C   UNL     1       2.299   9.228  17.672  0.00  0.00    +0.000 A 
ATOM     10  N   UNL     1       2.768   8.032  18.205  0.00  0.00    +0.000 N 
ATOM     11  C   UNL     1       3.710   7.299  17.500  0.00  0.00    +0.000 A 
ATOM     12  O   UNL     1       4.192   7.628  16.411  0.00  0.00    +0.000 OA
ATOM     13  C   UNL     1       4.119   5.989  18.088  0.00  0.00    +0.000 A 
ENDROOT
BRANCH  13  14
ATOM     14  N   UNL     1       4.990   5.194  17.354  0.00  0.00    +0.000 N 
ATOM     15  C   UNL     1       6.366   5.329  17.547  0.00  0.00    +0.000 C 
ATOM     16  O   UNL     1       6.878   5.964  18.467  0.00  0.00    +0.000 OA
ATOM     17  H   UNL     1       4.802   5.251  16.353  0.00  0.00    +0.000 HD
BRANCH  15  18
ATOM     18  C   UNL     1       7.207   4.602  16.488  0.00  0.00    +0.000 C 
BRANCH  18  19
ATOM     19  O   UNL     1       7.352   5.443  15.349  0.00  0.00    +0.000 OA
BRANCH  19  20
ATOM     20  C   UNL     1       7.097   4.891  14.119  0.00  0.00    +0.000 A 
ATOM     21  C   UNL     1       5.996   4.026  14.095  0.00  0.00    +0.000 A 
ATOM     22  C   UNL     1       5.610   3.398  12.911  0.00  0.00    +0.000 A 
ATOM     23  C   UNL     1       6.314   3.640  11.733  0.00  0.00    +0.000 A 
ATOM     24  C   UNL     1       7.399   4.515  11.747  0.00  0.00    +0.000 A 
ATOM     25  C   UNL     1       7.791   5.143  12.936  0.00  0.00    +0.000 A 
ENDBRANCH  19  20
ENDBRANCH  18  19
ENDBRANCH  15  18
ENDBRANCH  13  14
TORSDOF 4
ENDMDL
MODEL 7
REMARK VINA RESULT:      -7.4      2.488      7.403
REMARK  Name = 
REMARK  6 active torsions:
REMARK  status: ('A' for Active; 'I' for Inactive)
REMARK    1  A    between atoms: C_1  and  C_2
REMARK    2  A    between atoms: C_5  and  C_6
REMARK    3  A    between atoms: C_13  and  N_14
REMARK    4  A    between atoms: C_15  and  C_17
REMARK    5  A    between atoms: C_17  and  O_18
REMARK    6  A    between atoms: O_18  and  C_19
REMARK                            x       y       z     vdW  Elec       q    Type
REMARK                         _______ _______ _______ _____ _____    ______ ____
ROOT
ATOM      1  C   UNL     1       3.556   4.398  20.014  0.00  0.00    +0.000 C 
ATOM      2  C   UNL     1       3.384   5.744  19.367  0.00  0.00    +0.000 A 
ATOM      3  N   UNL     1       2.471   6.542  20.013  0.00  0.00    +0.000 NA
ATOM      4  C   UNL     1       2.133   7.674  19.478  0.00  0.00    +0.000 A 
ATOM      5  C   UNL     1       1.093   8.519  20.165  0.00  0.00    +0.000 A 
ATOM      6  C   UNL     1       0.552   8.077  21.492  0.00  0.00    +0.000 C 
ATOM      7  C   UNL     1       0.681   9.644  19.559  0.00  0.00    +0.000 A 
ATOM      8  C   UNL     1       1.243  10.066  18.306  0.00  0.00    +0.000 A 
ATOM      9  C   UNL     1       2.204   9.336  17.726  0.00  0.00    +0.000 A 
ATOM     10  N   UNL     1       2.656   8.144  18.282  0.00  0.00    +0.000 N 
ATOM     11  C   UNL     1       3.602   7.394  17.600  0.00  0.00    +0.000 A 
ATOM     12  O   UNL     1       4.102   7.705  16.515  0.00  0.00    +0.000 OA
ATOM     13  C   UNL     1       3.992   6.090  18.213  0.00  0.00    +0.000 A 
ENDROOT
BRANCH  13  14
ATOM     14  N   UNL     1       4.867   5.278  17.502  0.00  0.00    +0.000 N 
ATOM     15  C   UNL     1       6.232   5.323  17.796  0.00  0.00    +0.000 C 
ATOM     16  O   UNL     1       6.711   5.885  18.778  0.00  0.00    +0.000 OA
ATOM     17  H   UNL     1       4.754   5.390  16.495  0.00  0.00    +0.000 HD
BRANCH  15  18
ATOM     18  C   UNL     1       7.104   4.595  16.763  0.00  0.00    +0.000 C 
BRANCH  18  19
ATOM     19  O   UNL     1       7.225   5.406  15.600  0.00  0.00    +0.000 OA
BRANCH  19  20
ATOM     20  C   UNL     1       6.912   4.832  14.393  0.00  0.00    +0.000 A 
ATOM     21  C   UNL     1       7.746   5.223  13.338  0.00  0.00    +0.000 A 
ATOM     22  C   UNL     1       7.556   4.714  12.053  0.00  0.00    +0.000 A 
ATOM     23  C   UNL     1       6.536   3.796  11.813  0.00  0.00    +0.000 A 
ATOM     24  C   UNL     1       5.714   3.388  12.863  0.00  0.00    +0.000 A 
ATOM     25  C   UNL     1       5.901   3.902  14.153  0.00  0.00    +0.000 A 
ENDBRANCH  19  20
ENDBRANCH  18  19
ENDBRANCH  15  18
ENDBRANCH  13  14
TORSDOF 4
ENDMDL
MODEL 8
REMARK VINA RESULT:      -7.3      3.573      7.321
REMARK  Name = 
REMARK  6 active torsions:
REMARK  status: ('A' for Active; 'I' for Inactive)
REMARK    1  A    between atoms: C_1  and  C_2
REMARK    2  A    between atoms: C_5  and  C_6
REMARK    3  A    between atoms: C_13  and  N_14
REMARK    4  A    between atoms: C_15  and  C_17
REMARK    5  A    between atoms: C_17  and  O_18
REMARK    6  A    between atoms: O_18  and  C_19
REMARK                            x       y       z     vdW  Elec       q    Type
REMARK                         _______ _______ _______ _____ _____    ______ ____
ROOT
ATOM      1  C   UNL     1       1.886   5.514  20.683  0.00  0.00    +0.000 C 
ATOM      2  C   UNL     1       1.835   6.923  20.163  0.00  0.00    +0.000 A 
ATOM      3  N   UNL     1       1.267   7.806  21.050  0.00  0.00    +0.000 NA
ATOM      4  C   UNL     1       1.042   9.025  20.669  0.00  0.00    +0.000 A 
ATOM      5  C   UNL     1       0.372   9.972  21.628  0.00  0.00    +0.000 A 
ATOM      6  C   UNL     1       0.072   9.510  23.023  0.00  0.00    +0.000 C 
ATOM      7  C   UNL     1       0.058  11.204  21.195  0.00  0.00    +0.000 A 
ATOM      8  C   UNL     1       0.390  11.635  19.866  0.00  0.00    +0.000 A 
ATOM      9  C   UNL     1       1.031  10.805  19.035  0.00  0.00    +0.000 A 
ATOM     10  N   UNL     1       1.358   9.505  19.407  0.00  0.00    +0.000 N 
ATOM     11  C   UNL     1       1.960   8.667  18.480  0.00  0.00    +0.000 A 
ATOM     12  O   UNL     1       2.249   8.984  17.322  0.00  0.00    +0.000 OA
ATOM     13  C   UNL     1       2.219   7.262  18.916  0.00  0.00    +0.000 A 
ENDROOT
BRANCH  13  14
ATOM     14  N   UNL     1       2.733   6.379  17.975  0.00  0.00    +0.000 N 
ATOM     15  C   UNL     1       4.101   6.094  17.981  0.00  0.00    +0.000 C 
ATOM     16  O   UNL     1       4.871   6.413  18.884  0.00  0.00    +0.000 OA
ATOM     17  H   UNL     1       2.467   6.639  17.025  0.00  0.00    +0.000 HD
BRANCH  15  18
ATOM     18  C   UNL     1       4.573   5.333  16.734  0.00  0.00    +0.000 C 
BRANCH  18  19
ATOM     19  O   UNL     1       4.841   3.981  17.086  0.00  0.00    +0.000 OA
BRANCH  19  20
ATOM     20  C   UNL     1       3.880   3.311  17.800  0.00  0.00    +0.000 A 
ATOM     21  C   UNL     1       4.276   2.942  19.092  0.00  0.00    +0.000 A 
ATOM     22  C   UNL     1       3.401   2.263  19.939  0.00  0.00    +0.000 A 
ATOM     23  C   UNL     1       2.113   1.957  19.507  0.00  0.00    +0.000 A 
ATOM     24  C   UNL     1       1.705   2.337  18.229  0.00  0.00    +0.000 A 
ATOM     25  C   UNL     1       2.585   3.016  17.375  0.00  0.00    +0.000 A 
ENDBRANCH  19  20
ENDBRANCH  18  19
ENDBRANCH  15  18
ENDBRANCH  13  14
TORSDOF 4
ENDMDL
MODEL 9
REMARK VINA RESULT:      -7.3      3.103      7.673
REMARK  Name = 
REMARK  6 active torsions:
REMARK  status: ('A' for Active; 'I' for Inactive)
REMARK    1  A    between atoms: C_1  and  C_2
REMARK    2  A    between atoms: C_5  and  C_6
REMARK    3  A    between atoms: C_13  and  N_14
REMARK    4  A    between atoms: C_15  and  C_17
REMARK    5  A    between atoms: C_17  and  O_18
REMARK    6  A    between atoms: O_18  and  C_19
REMARK                            x       y       z     vdW  Elec       q    Type
REMARK                         _______ _______ _______ _____ _____    ______ ____
ROOT
ATOM      1  C   UNL     1       1.978   4.992  21.078  0.00  0.00    +0.000 C 
ATOM      2  C   UNL     1       2.024   6.307  20.353  0.00  0.00    +0.000 A 
ATOM      3  N   UNL     1       1.334   7.305  20.999  0.00  0.00    +0.000 NA
ATOM      4  C   UNL     1       1.185   8.451  20.410  0.00  0.00    +0.000 A 
ATOM      5  C   UNL     1       0.384   9.522  21.102  0.00  0.00    +0.000 A 
ATOM      6  C   UNL     1      -0.134   9.269  22.487  0.00  0.00    +0.000 C 
ATOM      7  C   UNL     1       0.154  10.672  20.447  0.00  0.00    +0.000 A 
ATOM      8  C   UNL     1       0.693  10.905  19.136  0.00  0.00    +0.000 A 
ATOM      9  C   UNL     1       1.447   9.968  18.549  0.00  0.00    +0.000 A 
ATOM     10  N   UNL     1       1.698   8.742  19.155  0.00  0.00    +0.000 N 
ATOM     11  C   UNL     1       2.427   7.783  18.469  0.00  0.00    +0.000 A 
ATOM     12  O   UNL     1       2.896   7.928  17.336  0.00  0.00    +0.000 OA
ATOM     13  C   UNL     1       2.600   6.462  19.143  0.00  0.00    +0.000 A 
ENDROOT
BRANCH  13  14
ATOM     14  N   UNL     1       3.245   5.455  18.436  0.00  0.00    +0.000 N 
ATOM     15  C   UNL     1       2.483   4.510  17.745  0.00  0.00    +0.000 C 
ATOM     16  O   UNL     1       1.275   4.606  17.545  0.00  0.00    +0.000 OA
ATOM     17  H   UNL     1       3.921   4.958  19.015  0.00  0.00    +0.000 HD
BRANCH  15  18
ATOM     18  C   UNL     1       3.303   3.311  17.245  0.00  0.00    +0.000 C 
BRANCH  18  19
ATOM     19  O   UNL     1       4.686   3.573  17.453  0.00  0.00    +0.000 OA
BRANCH  19  20
ATOM     20  C   UNL     1       5.424   3.973  16.367  0.00  0.00    +0.000 A 
ATOM     21  C   UNL     1       6.584   4.688  16.693  0.00  0.00    +0.000 A 
ATOM     22  C   UNL     1       7.438   5.152  15.693  0.00  0.00    +0.000 A 
ATOM     23  C   UNL     1       7.149   4.893  14.355  0.00  0.00    +0.000 A 
ATOM     24  C   UNL     1       6.006   4.166  14.025  0.00  0.00    +0.000 A 
ATOM     25  C   UNL     1       5.144   3.703  15.028  0.00  0.00    +0.000 A 
ENDBRANCH  19  20
ENDBRANCH  18  19
ENDBRANCH  15  18
ENDBRANCH  13  14
TORSDOF 4
ENDMDL
