MODEL 1
REMARK VINA RESULT:      -7.8      0.000      0.000
REMARK  Name = 
REMARK  8 active torsions:
REMARK  status: ('A' for Active; 'I' for Inactive)
REMARK    1  A    between atoms: C_1  and  C_2
REMARK    2  A    between atoms: C_2  and  C_3
REMARK    3  A    between atoms: C_2  and  C_4
REMARK    4  A    between atoms: C_4  and  O_5
REMARK    5  A    between atoms: O_5  and  C_6
REMARK    6  A    between atoms: C_11  and  C_12
REMARK    7  A    between atoms: C_15  and  C_16
REMARK    8  A    between atoms: C_21  and  O_22
REMARK                            x       y       z     vdW  Elec       q    Type
REMARK                         _______ _______ _______ _____ _____    ______ ____
ROOT
ATOM      1  C   UNL     1       2.461   6.917  18.855  0.00  0.00    +0.000 A 
ATOM      2  N   UNL     1       2.119   7.012  20.152  0.00  0.00    +0.000 NA
ATOM      3  C   UNL     1       1.605   8.198  20.562  0.00  0.00    +0.000 A 
ATOM      4  C   UNL     1       1.392   9.283  19.738  0.00  0.00    +0.000 A 
ATOM      5  C   UNL     1       1.790   9.081  18.433  0.00  0.00    +0.000 A 
ATOM      6  N   UNL     1       2.320   7.935  17.978  0.00  0.00    +0.000 NA
ENDROOT
BRANCH   1  12
ATOM      7  C   UNL     1       4.192   5.161  18.097  0.00  0.00    +0.000 A 
ATOM      8  C   UNL     1       4.422   3.878  17.551  0.00  0.00    +0.000 A 
ATOM      9  C   UNL     1       3.376   3.038  17.179  0.00  0.00    +0.000 A 
ATOM     10  C   UNL     1       2.071   3.458  17.348  0.00  0.00    +0.000 A 
ATOM     11  C   UNL     1       1.823   4.720  17.891  0.00  0.00    +0.000 A 
ATOM     12  C   UNL     1       2.862   5.608  18.282  0.00  0.00    +0.000 A 
BRANCH   7  13
ATOM     13  O   UNL     1       5.230   6.003  18.438  0.00  0.00    +0.000 OA
BRANCH  13  14
ATOM     14  C   UNL     1       5.928   6.616  17.346  0.00  0.00    +0.000 C 
BRANCH  14  16
ATOM     15  C   UNL     1       7.825   8.216  17.620  0.00  0.00    +0.000 C 
ATOM     16  C   UNL     1       7.434   6.734  17.612  0.00  0.00    +0.000 C 
ATOM     17  C   UNL     1       7.825   6.073  18.931  0.00  0.00    +0.000 C 
ENDBRANCH  14  16
ENDBRANCH  13  14
ENDBRANCH   7  13
ENDBRANCH   1  12
BRANCH   4  18
ATOM     18  C   UNL     1       0.774  10.499  20.212  0.00  0.00    +0.000 A 
ATOM     19  N   UNL     1       0.971  11.003  21.473  0.00  0.00    +0.000 NA
ATOM     20  N   UNL     1       0.222  12.092  21.573  0.00  0.00    +0.000 NA
ATOM     21  N   UNL     1      -0.389  12.197  20.389  0.00  0.00    +0.000 N 
ATOM     22  N   UNL     1      -0.087  11.242  19.486  0.00  0.00    +0.000 NA
ATOM     23  H   UNL     1      -1.044  12.950  20.191  0.00  0.00    +0.000 HD
ENDBRANCH   4  18
BRANCH   5  24
ATOM     24  O   UNL     1       1.651  10.033  17.457  0.00  0.00    +0.000 OA
ATOM     25  H   UNL     1       0.712  10.044  17.184  0.00  0.00    +0.000 HD
ENDBRANCH   5  24
TORSDOF 6
ENDMDL
MODEL 2
REMARK VINA RESULT:      -7.7      0.680      1.023
REMARK  Name = 
REMARK  8 active torsions:
REMARK  status: ('A' for Active; 'I' for Inactive)
REMARK    1  A    between atoms: C_1  and  C_2
REMARK    2  A    between atoms: C_2  and  C_3
REMARK    3  A    between atoms: C_2  and  C_4
REMARK    4  A    between atoms: C_4  and  O_5
REMARK    5  A    between atoms: O_5  and  C_6
REMARK    6  A    between atoms: C_11  and  C_12
REMARK    7  A    between atoms: C_15  and  C_16
REMARK    8  A    between atoms: C_21  and  O_22
REMARK                            x       y       z     vdW  Elec       q    Type
REMARK                         _______ _______ _______ _____ _____    ______ ____
ROOT
ATOM      1  C   UNL     1       2.360   6.665  18.958  0.00  0.00    +0.000 A 
ATOM      2  N   UNL     1       2.002   6.807  20.247  0.00  0.00    +0.000 NA
ATOM      3  C   UNL     1       1.546   8.029  20.622  0.00  0.00    +0.000 A 
ATOM      4  C   UNL     1       1.406   9.104  19.770  0.00  0.00    +0.000 A 
ATOM      5  C   UNL     1       1.814   8.851  18.477  0.00  0.00    +0.000 A 
ATOM      6  N   UNL     1       2.289   7.669  18.057  0.00  0.00    +0.000 NA
ENDROOT
BRANCH   1  12
ATOM      7  C   UNL     1       3.991   4.890  18.038  0.00  0.00    +0.000 A 
ATOM      8  C   UNL     1       4.166   3.574  17.556  0.00  0.00    +0.000 A 
ATOM      9  C   UNL     1       3.100   2.685  17.437  0.00  0.00    +0.000 A 
ATOM     10  C   UNL     1       1.830   3.091  17.803  0.00  0.00    +0.000 A 
ATOM     11  C   UNL     1       1.639   4.386  18.286  0.00  0.00    +0.000 A 
ATOM     12  C   UNL     1       2.699   5.323  18.421  0.00  0.00    +0.000 A 
BRANCH   7  13
ATOM     13  O   UNL     1       5.043   5.778  18.128  0.00  0.00    +0.000 OA
BRANCH  13  14
ATOM     14  C   UNL     1       6.030   5.486  19.126  0.00  0.00    +0.000 C 
BRANCH  14  16
ATOM     15  C   UNL     1       7.732   4.543  17.561  0.00  0.00    +0.000 C 
ATOM     16  C   UNL     1       7.460   5.642  18.594  0.00  0.00    +0.000 C 
ATOM     17  C   UNL     1       7.680   7.020  17.976  0.00  0.00    +0.000 C 
ENDBRANCH  14  16
ENDBRANCH  13  14
ENDBRANCH   7  13
ENDBRANCH   1  12
BRANCH   4  18
ATOM     18  C   UNL     1       0.847  10.362  20.206  0.00  0.00    +0.000 A 
ATOM     19  N   UNL     1       1.043  10.880  21.462  0.00  0.00    +0.000 NA
ATOM     20  N   UNL     1       0.355  12.011  21.524  0.00  0.00    +0.000 NA
ATOM     21  N   UNL     1      -0.222  12.126  20.324  0.00  0.00    +0.000 N 
ATOM     22  N   UNL     1       0.046  11.138  19.446  0.00  0.00    +0.000 NA
ATOM     23  H   UNL     1      -0.829  12.910  20.096  0.00  0.00    +0.000 HD
ENDBRANCH   4  18
BRANCH   5  24
ATOM     24  O   UNL     1       1.743   9.788  17.478  0.00  0.00    +0.000 OA
ATOM     25  H   UNL     1       1.685   9.310  16.627  0.00  0.00    +0.000 HD
ENDBRANCH   5  24
TORSDOF 6
ENDMDL
MODEL 3
REMARK VINA RESULT:      -7.6      4.534      7.165
REMARK  Name = 
REMARK  8 active torsions:
REMARK  status: ('A' for Active; 'I' for Inactive)
REMARK    1  A    between atoms: C_1  and  C_2
REMARK    2  A    between atoms: C_2  and  C_3
REMARK    3  A    between atoms: C_2  and  C_4
REMARK    4  A    between atoms: C_4  and  O_5
REMARK    5  A    between atoms: O_5  and  C_6
REMARK    6  A    between atoms: C_11  and  C_12
REMARK    7  A    between atoms: C_15  and  C_16
REMARK    8  A    between atoms: C_21  and  O_22
REMARK                            x       y       z     vdW  Elec       q    Type
REMARK                         _______ _______ _______ _____ _____    ______ ____
ROOT
ATOM      1  C   UNL     1       4.349   4.280  17.903  0.00  0.00    +0.000 A 
ATOM      2  N   UNL     1       3.759   4.270  16.694  0.00  0.00    +0.000 NA
ATOM      3  C   UNL     1       4.568   4.436  15.619  0.00  0.00    +0.000 A 
ATOM      4  C   UNL     1       5.938   4.587  15.689  0.00  0.00    +0.000 A 
ATOM      5  C   UNL     1       6.435   4.596  16.975  0.00  0.00    +0.000 A 
ATOM      6  N   UNL     1       5.678   4.454  18.073  0.00  0.00    +0.000 NA
ENDROOT
BRANCH   1  12
ATOM      7  C   UNL     1       3.058   4.849  20.063  0.00  0.00    +0.000 A 
ATOM      8  C   UNL     1       2.320   4.367  21.167  0.00  0.00    +0.000 A 
ATOM      9  C   UNL     1       2.087   3.008  21.361  0.00  0.00    +0.000 A 
ATOM     10  C   UNL     1       2.582   2.095  20.450  0.00  0.00    +0.000 A 
ATOM     11  C   UNL     1       3.310   2.552  19.350  0.00  0.00    +0.000 A 
ATOM     12  C   UNL     1       3.572   3.929  19.117  0.00  0.00    +0.000 A 
BRANCH   7  13
ATOM     13  O   UNL     1       3.313   6.193  19.888  0.00  0.00    +0.000 OA
BRANCH  13  14
ATOM     14  C   UNL     1       2.179   7.015  19.583  0.00  0.00    +0.000 C 
BRANCH  14  16
ATOM     15  C   UNL     1       1.596   8.974  18.150  0.00  0.00    +0.000 C 
ATOM     16  C   UNL     1       2.238   7.583  18.160  0.00  0.00    +0.000 C 
ATOM     17  C   UNL     1       3.673   7.654  17.644  0.00  0.00    +0.000 C 
ENDBRANCH  14  16
ENDBRANCH  13  14
ENDBRANCH   7  13
ENDBRANCH   1  12
BRANCH   4  18
ATOM     18  C   UNL     1       6.761   4.688  14.506  0.00  0.00    +0.000 A 
ATOM     19  N   UNL     1       7.845   5.525  14.411  0.00  0.00    +0.000 NA
ATOM     20  N   UNL     1       8.328   5.389  13.184  0.00  0.00    +0.000 NA
ATOM     21  N   UNL     1       7.527   4.495  12.597  0.00  0.00    +0.000 N 
ATOM     22  N   UNL     1       6.531   4.006  13.364  0.00  0.00    +0.000 NA
ATOM     23  H   UNL     1       7.663   4.209  11.631  0.00  0.00    +0.000 HD
ENDBRANCH   4  18
BRANCH   5  24
ATOM     24  O   UNL     1       7.771   4.723  17.255  0.00  0.00    +0.000 OA
ATOM     25  H   UNL     1       7.968   5.678  17.335  0.00  0.00    +0.000 HD
ENDBRANCH   5  24
TORSDOF 6
ENDMDL
MODEL 4
REMARK VINA RESULT:      -7.6      4.633      7.208
REMARK  Name = 
REMARK  8 active torsions:
REMARK  status: ('A' for Active; 'I' for Inactive)
REMARK    1  A    between atoms: C_1  and  C_2
REMARK    2  A    between atoms: C_2  and  C_3
REMARK    3  A    between atoms: C_2  and  C_4
REMARK    4  A    between atoms: C_4  and  O_5
REMARK    5  A    between atoms: O_5  and  C_6
REMARK    6  A    between atoms: C_11  and  C_12
REMARK    7  A    between atoms: C_15  and  C_16
REMARK    8  A    between atoms: C_21  and  O_22
REMARK                            x       y       z     vdW  Elec       q    Type
REMARK                         _______ _______ _______ _____ _____    ______ ____
ROOT
ATOM      1  C   UNL     1       4.428   4.053  18.017  0.00  0.00    +0.000 A 
ATOM      2  N   UNL     1       3.838   3.951  16.813  0.00  0.00    +0.000 NA
ATOM      3  C   UNL     1       4.612   4.212  15.730  0.00  0.00    +0.000 A 
ATOM      4  C   UNL     1       5.949   4.544  15.789  0.00  0.00    +0.000 A 
ATOM      5  C   UNL     1       6.448   4.634  17.072  0.00  0.00    +0.000 A 
ATOM      6  N   UNL     1       5.723   4.404  18.177  0.00  0.00    +0.000 NA
ENDROOT
BRANCH   1  12
ATOM      7  C   UNL     1       2.491   4.150  19.717  0.00  0.00    +0.000 A 
ATOM      8  C   UNL     1       1.915   3.620  20.893  0.00  0.00    +0.000 A 
ATOM      9  C   UNL     1       2.517   2.586  21.607  0.00  0.00    +0.000 A 
ATOM     10  C   UNL     1       3.709   2.053  21.158  0.00  0.00    +0.000 A 
ATOM     11  C   UNL     1       4.291   2.560  19.996  0.00  0.00    +0.000 A 
ATOM     12  C   UNL     1       3.711   3.615  19.240  0.00  0.00    +0.000 A 
BRANCH   7  13
ATOM     13  O   UNL     1       1.908   5.193  19.029  0.00  0.00    +0.000 OA
BRANCH  13  14
ATOM     14  C   UNL     1       2.415   6.502  19.320  0.00  0.00    +0.000 C 
BRANCH  14  16
ATOM     15  C   UNL     1       1.913   8.798  18.478  0.00  0.00    +0.000 C 
ATOM     16  C   UNL     1       2.429   7.410  18.084  0.00  0.00    +0.000 C 
ATOM     17  C   UNL     1       3.826   7.512  17.480  0.00  0.00    +0.000 C 
ENDBRANCH  14  16
ENDBRANCH  13  14
ENDBRANCH   7  13
ENDBRANCH   1  12
BRANCH   4  18
ATOM     18  C   UNL     1       6.745   4.741  14.600  0.00  0.00    +0.000 A 
ATOM     19  N   UNL     1       6.501   4.097  13.412  0.00  0.00    +0.000 NA
ATOM     20  N   UNL     1       7.444   4.483  12.565  0.00  0.00    +0.000 NA
ATOM     21  N   UNL     1       8.209   5.326  13.264  0.00  0.00    +0.000 N 
ATOM     22  N   UNL     1       7.829   5.543  14.540  0.00  0.00    +0.000 NA
ATOM     23  H   UNL     1       9.028   5.769  12.855  0.00  0.00    +0.000 HD
ENDBRANCH   4  18
BRANCH   5  24
ATOM     24  O   UNL     1       7.757   4.940  17.341  0.00  0.00    +0.000 OA
ATOM     25  H   UNL     1       8.125   5.386  16.553  0.00  0.00    +0.000 HD
ENDBRANCH   5  24
TORSDOF 6
ENDMDL
MODEL 5
REMARK VINA RESULT:      -7.6      1.790      3.609
REMARK  Name = 
REMARK  8 active torsions:
REMARK  status: ('A' for Active; 'I' for Inactive)
REMARK    1  A    between atoms: C_1  and  C_2
REMARK    2  A    between atoms: C_2  and  C_3
REMARK    3  A    between atoms: C_2  and  C_4
REMARK    4  A    between atoms: C_4  and  O_5
REMARK    5  A    between atoms: O_5  and  C_6
REMARK    6  A    between atoms: C_11  and  C_12
REMARK    7  A    between atoms: C_15  and  C_16
REMARK    8  A    between atoms: C_21  and  O_22
REMARK                            x       y       z     vdW  Elec       q    Type
REMARK                         _______ _______ _______ _____ _____    ______ ____
ROOT
ATOM      1  C   UNL     1       2.524   7.303  18.419  0.00  0.00    +0.000 A 
ATOM      2  N   UNL     1       2.045   8.334  17.700  0.00  0.00    +0.000 NA
ATOM      3  C   UNL     1       1.359   9.286  18.380  0.00  0.00    +0.000 A 
ATOM      4  C   UNL     1       1.151   9.273  19.743  0.00  0.00    +0.000 A 
ATOM      5  C   UNL     1       1.672   8.165  20.378  0.00  0.00    +0.000 A 
ATOM      6  N   UNL     1       2.342   7.186  19.752  0.00  0.00    +0.000 NA
ENDROOT
BRANCH   1  12
ATOM      7  C   UNL     1       3.143   4.944  17.580  0.00  0.00    +0.000 A 
ATOM      8  C   UNL     1       4.105   4.120  16.953  0.00  0.00    +0.000 A 
ATOM      9  C   UNL     1       5.341   4.613  16.542  0.00  0.00    +0.000 A 
ATOM     10  C   UNL     1       5.644   5.946  16.743  0.00  0.00    +0.000 A 
ATOM     11  C   UNL     1       4.704   6.776  17.355  0.00  0.00    +0.000 A 
ATOM     12  C   UNL     1       3.433   6.313  17.791  0.00  0.00    +0.000 A 
BRANCH   7  13
ATOM     13  O   UNL     1       1.931   4.447  18.013  0.00  0.00    +0.000 OA
BRANCH  13  14
ATOM     14  C   UNL     1       1.902   3.050  18.335  0.00  0.00    +0.000 C 
BRANCH  14  16
ATOM     15  C   UNL     1       3.152   2.640  20.457  0.00  0.00    +0.000 C 
ATOM     16  C   UNL     1       1.758   2.804  19.842  0.00  0.00    +0.000 C 
ATOM     17  C   UNL     1       1.004   3.941  20.527  0.00  0.00    +0.000 C 
ENDBRANCH  14  16
ENDBRANCH  13  14
ENDBRANCH   7  13
ENDBRANCH   1  12
BRANCH   4  18
ATOM     18  C   UNL     1       0.475  10.350  20.427  0.00  0.00    +0.000 A 
ATOM     19  N   UNL     1       0.921  10.894  21.606  0.00  0.00    +0.000 NA
ATOM     20  N   UNL     1       0.040  11.819  21.961  0.00  0.00    +0.000 NA
ATOM     21  N   UNL     1      -0.888  11.793  21.000  0.00  0.00    +0.000 N 
ATOM     22  N   UNL     1      -0.680  10.908  20.004  0.00  0.00    +0.000 NA
ATOM     23  H   UNL     1      -1.702  12.404  21.027  0.00  0.00    +0.000 HD
ENDBRANCH   4  18
BRANCH   5  24
ATOM     24  O   UNL     1       1.579   7.973  21.733  0.00  0.00    +0.000 OA
ATOM     25  H   UNL     1       2.464   8.132  22.116  0.00  0.00    +0.000 HD
ENDBRANCH   5  24
TORSDOF 6
ENDMDL
MODEL 6
REMARK VINA RESULT:      -7.4      1.725      3.275
REMARK  Name = 
REMARK  8 active torsions:
REMARK  status: ('A' for Active; 'I' for Inactive)
REMARK    1  A    between atoms: C_1  and  C_2
REMARK    2  A    between atoms: C_2  and  C_3
REMARK    3  A    between atoms: C_2  and  C_4
REMARK    4  A    between atoms: C_4  and  O_5
REMARK    5  A    between atoms: O_5  and  C_6
REMARK    6  A    between atoms: C_11  and  C_12
REMARK    7  A    between atoms: C_15  and  C_16
REMARK    8  A    between atoms: C_21  and  O_22
REMARK                            x       y       z     vdW  Elec       q    Type
REMARK                         _______ _______ _______ _____ _____    ______ ____
ROOT
ATOM      1  C   UNL     1       2.736   7.125  18.549  0.00  0.00    +0.000 A 
ATOM      2  N   UNL     1       2.375   6.981  19.836  0.00  0.00    +0.000 NA
ATOM      3  C   UNL     1       1.680   8.004  20.394  0.00  0.00    +0.000 A 
ATOM      4  C   UNL     1       1.308   9.150  19.723  0.00  0.00    +0.000 A 
ATOM      5  C   UNL     1       1.741   9.199  18.414  0.00  0.00    +0.000 A 
ATOM      6  N   UNL     1       2.445   8.224  17.820  0.00  0.00    +0.000 NA
ENDROOT
BRANCH   1  12
ATOM      7  C   UNL     1       2.794   4.685  17.714  0.00  0.00    +0.000 A 
ATOM      8  C   UNL     1       3.475   3.703  16.959  0.00  0.00    +0.000 A 
ATOM      9  C   UNL     1       4.677   3.975  16.311  0.00  0.00    +0.000 A 
ATOM     10  C   UNL     1       5.226   5.240  16.396  0.00  0.00    +0.000 A 
ATOM     11  C   UNL     1       4.565   6.224  17.132  0.00  0.00    +0.000 A 
ATOM     12  C   UNL     1       3.338   5.987  17.810  0.00  0.00    +0.000 A 
BRANCH   7  13
ATOM     13  O   UNL     1       1.618   4.405  18.379  0.00  0.00    +0.000 OA
BRANCH  13  14
ATOM     14  C   UNL     1       1.600   3.191  19.142  0.00  0.00    +0.000 C 
BRANCH  14  16
ATOM     15  C   UNL     1       1.497   2.859  21.614  0.00  0.00    +0.000 C 
ATOM     16  C   UNL     1       2.386   3.316  20.453  0.00  0.00    +0.000 C 
ATOM     17  C   UNL     1       3.674   2.499  20.414  0.00  0.00    +0.000 C 
ENDBRANCH  14  16
ENDBRANCH  13  14
ENDBRANCH   7  13
ENDBRANCH   1  12
BRANCH   4  18
ATOM     18  C   UNL     1       0.506  10.177  20.345  0.00  0.00    +0.000 A 
ATOM     19  N   UNL     1       0.871  10.825  21.499  0.00  0.00    +0.000 NA
ATOM     20  N   UNL     1      -0.113  11.662  21.798  0.00  0.00    +0.000 NA
ATOM     21  N   UNL     1      -1.018  11.485  20.831  0.00  0.00    +0.000 N 
ATOM     22  N   UNL     1      -0.697  10.581  19.884  0.00  0.00    +0.000 NA
ATOM     23  H   UNL     1      -1.895  12.001  20.819  0.00  0.00    +0.000 HD
ENDBRANCH   4  18
BRANCH   5  24
ATOM     24  O   UNL     1       1.463  10.249  17.578  0.00  0.00    +0.000 OA
ATOM     25  H   UNL     1       1.243  11.022  18.135  0.00  0.00    +0.000 HD
ENDBRANCH   5  24
TORSDOF 6
ENDMDL
MODEL 7
REMARK VINA RESULT:      -7.4      0.849      1.149
REMARK  Name = 
REMARK  8 active torsions:
REMARK  status: ('A' for Active; 'I' for Inactive)
REMARK    1  A    between atoms: C_1  and  C_2
REMARK    2  A    between atoms: C_2  and  C_3
REMARK    3  A    between atoms: C_2  and  C_4
REMARK    4  A    between atoms: C_4  and  O_5
REMARK    5  A    between atoms: O_5  and  C_6
REMARK    6  A    between atoms: C_11  and  C_12
REMARK    7  A    between atoms: C_15  and  C_16
REMARK    8  A    between atoms: C_21  and  O_22
REMARK                            x       y       z     vdW  Elec       q    Type
REMARK                         _______ _______ _______ _____ _____    ______ ____
ROOT
ATOM      1  C   UNL     1       2.381   6.638  18.931  0.00  0.00    +0.000 A 
ATOM      2  N   UNL     1       2.011   6.784  20.216  0.00  0.00    +0.000 NA
ATOM      3  C   UNL     1       1.563   8.010  20.585  0.00  0.00    +0.000 A 
ATOM      4  C   UNL     1       1.443   9.087  19.732  0.00  0.00    +0.000 A 
ATOM      5  C   UNL     1       1.862   8.829  18.444  0.00  0.00    +0.000 A 
ATOM      6  N   UNL     1       2.330   7.642  18.029  0.00  0.00    +0.000 NA
ENDROOT
BRANCH   1  12
ATOM      7  C   UNL     1       3.995   4.862  17.984  0.00  0.00    +0.000 A 
ATOM      8  C   UNL     1       4.163   3.542  17.510  0.00  0.00    +0.000 A 
ATOM      9  C   UNL     1       3.099   2.648  17.428  0.00  0.00    +0.000 A 
ATOM     10  C   UNL     1       1.838   3.051  17.824  0.00  0.00    +0.000 A 
ATOM     11  C   UNL     1       1.653   4.349  18.300  0.00  0.00    +0.000 A 
ATOM     12  C   UNL     1       2.712   5.293  18.398  0.00  0.00    +0.000 A 
BRANCH   7  13
ATOM     13  O   UNL     1       5.045   5.756  18.037  0.00  0.00    +0.000 OA
BRANCH  13  14
ATOM     14  C   UNL     1       5.559   6.199  16.774  0.00  0.00    +0.000 C 
BRANCH  14  16
ATOM     15  C   UNL     1       7.541   5.101  17.821  0.00  0.00    +0.000 C 
ATOM     16  C   UNL     1       6.996   5.723  16.531  0.00  0.00    +0.000 C 
ATOM     17  C   UNL     1       7.068   4.720  15.384  0.00  0.00    +0.000 C 
ENDBRANCH  14  16
ENDBRANCH  13  14
ENDBRANCH   7  13
ENDBRANCH   1  12
BRANCH   4  18
ATOM     18  C   UNL     1       0.892  10.350  20.162  0.00  0.00    +0.000 A 
ATOM     19  N   UNL     1       1.010  10.828  21.444  0.00  0.00    +0.000 NA
ATOM     20  N   UNL     1       0.354  11.979  21.487  0.00  0.00    +0.000 NA
ATOM     21  N   UNL     1      -0.128  12.145  20.252  0.00  0.00    +0.000 N 
ATOM     22  N   UNL     1       0.175  11.172  19.368  0.00  0.00    +0.000 NA
ATOM     23  H   UNL     1      -0.691  12.954  20.003  0.00  0.00    +0.000 HD
ENDBRANCH   4  18
BRANCH   5  24
ATOM     24  O   UNL     1       1.811   9.766  17.444  0.00  0.00    +0.000 OA
ATOM     25  H   UNL     1       2.658  10.255  17.452  0.00  0.00    +0.000 HD
ENDBRANCH   5  24
TORSDOF 6
ENDMDL
MODEL 8
REMARK VINA RESULT:      -7.4      4.621      5.898
REMARK  Name = 
REMARK  8 active torsions:
REMARK  status: ('A' for Active; 'I' for Inactive)
REMARK    1  A    between atoms: C_1  and  C_2
REMARK    2  A    between atoms: C_2  and  C_3
REMARK    3  A    between atoms: C_2  and  C_4
REMARK    4  A    between atoms: C_4  and  O_5
REMARK    5  A    between atoms: O_5  and  C_6
REMARK    6  A    between atoms: C_11  and  C_12
REMARK    7  A    between atoms: C_15  and  C_16
REMARK    8  A    between atoms: C_21  and  O_22
REMARK                            x       y       z     vdW  Elec       q    Type
REMARK                         _______ _______ _______ _____ _____    ______ ____
ROOT
ATOM      1  C   UNL     1       4.606   4.015  16.266  0.00  0.00    +0.000 A 
ATOM      2  N   UNL     1       3.974   5.057  16.836  0.00  0.00    +0.000 NA
ATOM      3  C   UNL     1       3.268   4.799  17.965  0.00  0.00    +0.000 A 
ATOM      4  C   UNL     1       3.182   3.560  18.565  0.00  0.00    +0.000 A 
ATOM      5  C   UNL     1       3.855   2.563  17.891  0.00  0.00    +0.000 A 
ATOM      6  N   UNL     1       4.553   2.759  16.762  0.00  0.00    +0.000 NA
ENDROOT
BRANCH   1  12
ATOM      7  C   UNL     1       6.736   4.995  15.190  0.00  0.00    +0.000 A 
ATOM      8  C   UNL     1       7.539   5.105  14.034  0.00  0.00    +0.000 A 
ATOM      9  C   UNL     1       7.188   4.495  12.832  0.00  0.00    +0.000 A 
ATOM     10  C   UNL     1       6.025   3.752  12.759  0.00  0.00    +0.000 A 
ATOM     11  C   UNL     1       5.221   3.627  13.892  0.00  0.00    +0.000 A 
ATOM     12  C   UNL     1       5.542   4.236  15.136  0.00  0.00    +0.000 A 
BRANCH   7  13
ATOM     13  O   UNL     1       7.070   5.624  16.371  0.00  0.00    +0.000 OA
BRANCH  13  14
ATOM     14  C   UNL     1       7.655   4.795  17.383  0.00  0.00    +0.000 C 
BRANCH  14  16
ATOM     15  C   UNL     1       8.038   6.973  18.542  0.00  0.00    +0.000 C 
ATOM     16  C   UNL     1       7.705   5.491  18.749  0.00  0.00    +0.000 C 
ATOM     17  C   UNL     1       6.388   5.340  19.504  0.00  0.00    +0.000 C 
ENDBRANCH  14  16
ENDBRANCH  13  14
ENDBRANCH   7  13
ENDBRANCH   1  12
BRANCH   4  18
ATOM     18  C   UNL     1       2.475   3.356  19.808  0.00  0.00    +0.000 A 
ATOM     19  N   UNL     1       3.071   2.871  20.945  0.00  0.00    +0.000 NA
ATOM     20  N   UNL     1       2.122   2.774  21.866  0.00  0.00    +0.000 NA
ATOM     21  N   UNL     1       1.009   3.193  21.255  0.00  0.00    +0.000 N 
ATOM     22  N   UNL     1       1.154   3.581  19.971  0.00  0.00    +0.000 NA
ATOM     23  H   UNL     1       0.112   3.211  21.734  0.00  0.00    +0.000 HD
ENDBRANCH   4  18
BRANCH   5  24
ATOM     24  O   UNL     1       3.900   1.266  18.333  0.00  0.00    +0.000 OA
ATOM     25  H   UNL     1       3.408   0.717  17.691  0.00  0.00    +0.000 HD
ENDBRANCH   5  24
TORSDOF 6
ENDMDL
MODEL 9
REMARK VINA RESULT:      -7.4      1.580      3.432
REMARK  Name = 
REMARK  8 active torsions:
REMARK  status: ('A' for Active; 'I' for Inactive)
REMARK    1  A    between atoms: C_1  and  C_2
REMARK    2  A    between atoms: C_2  and  C_3
REMARK    3  A    between atoms: C_2  and  C_4
REMARK    4  A    between atoms: C_4  and  O_5
REMARK    5  A    between atoms: O_5  and  C_6
REMARK    6  A    between atoms: C_11  and  C_12
REMARK    7  A    between atoms: C_15  and  C_16
REMARK    8  A    between atoms: C_21  and  O_22
REMARK                            x       y       z     vdW  Elec       q    Type
REMARK                         _______ _______ _______ _____ _____    ______ ____
ROOT
ATOM      1  C   UNL     1       2.953   7.122  18.428  0.00  0.00    +0.000 A 
ATOM      2  N   UNL     1       2.533   6.945  19.693  0.00  0.00    +0.000 NA
ATOM      3  C   UNL     1       1.774   7.934  20.228  0.00  0.00    +0.000 A 
ATOM      4  C   UNL     1       1.394   9.076  19.555  0.00  0.00    +0.000 A 
ATOM      5  C   UNL     1       1.890   9.160  18.271  0.00  0.00    +0.000 A 
ATOM      6  N   UNL     1       2.659   8.221  17.700  0.00  0.00    +0.000 NA
ENDROOT
BRANCH   1  12
ATOM      7  C   UNL     1       3.119   4.714  17.519  0.00  0.00    +0.000 A 
ATOM      8  C   UNL     1       3.877   3.768  16.793  0.00  0.00    +0.000 A 
ATOM      9  C   UNL     1       5.126   4.077  16.259  0.00  0.00    +0.000 A 
ATOM     10  C   UNL     1       5.646   5.345  16.433  0.00  0.00    +0.000 A 
ATOM     11  C   UNL     1       4.910   6.295  17.143  0.00  0.00    +0.000 A 
ATOM     12  C   UNL     1       3.634   6.019  17.705  0.00  0.00    +0.000 A 
BRANCH   7  13
ATOM     13  O   UNL     1       1.896   4.396  18.071  0.00  0.00    +0.000 OA
BRANCH  13  14
ATOM     14  C   UNL     1       1.686   3.013  18.382  0.00  0.00    +0.000 C 
BRANCH  14  16
ATOM     15  C   UNL     1       3.163   2.572  20.346  0.00  0.00    +0.000 C 
ATOM     16  C   UNL     1       1.710   2.745  19.892  0.00  0.00    +0.000 C 
ATOM     17  C   UNL     1       1.039   3.872  20.672  0.00  0.00    +0.000 C 
ENDBRANCH  14  16
ENDBRANCH  13  14
ENDBRANCH   7  13
ENDBRANCH   1  12
BRANCH   4  18
ATOM     18  C   UNL     1       0.524  10.064  20.149  0.00  0.00    +0.000 A 
ATOM     19  N   UNL     1      -0.650  10.480  19.573  0.00  0.00    +0.000 NA
ATOM     20  N   UNL     1      -1.158  11.414  20.365  0.00  0.00    +0.000 NA
ATOM     21  N   UNL     1      -0.281  11.525  21.368  0.00  0.00    +0.000 N 
ATOM     22  N   UNL     1       0.789  10.707  21.305  0.00  0.00    +0.000 NA
ATOM     23  H   UNL     1      -0.418  12.190  22.125  0.00  0.00    +0.000 HD
ENDBRANCH   4  18
BRANCH   5  24
ATOM     24  O   UNL     1       1.616  10.212  17.436  0.00  0.00    +0.000 OA
ATOM     25  H   UNL     1       2.436  10.427  16.949  0.00  0.00    +0.000 HD
ENDBRANCH   5  24
TORSDOF 6
ENDMDL
