MODEL 1
REMARK VINA RESULT:      -8.5      0.000      0.000
REMARK  Name = 
REMARK  6 active torsions:
REMARK  status: ('A' for Active; 'I' for Inactive)
REMARK    1  A    between atoms: C_1  and  C_2
REMARK    2  A    between atoms: C_4  and  N_5
REMARK    3  A    between atoms: N_5  and  C_6
REMARK    4  A    between atoms: C_12  and  C_13
REMARK    5  A    between atoms: C_18  and  C_19
REMARK    6  A    between atoms: C_21  and  C_22
REMARK                            x       y       z     vdW  Elec       q    Type
REMARK                         _______ _______ _______ _____ _____    ______ ____
ROOT
ATOM      1  C   UNL     1       1.118   2.711  18.488  0.00  0.00    +0.000 C 
ATOM      2  C   UNL     1       2.019   3.905  18.415  0.00  0.00    +0.000 A 
ATOM      3  C   UNL     1       1.875   4.962  19.289  0.00  0.00    +0.000 A 
ATOM      4  C   UNL     1       2.829   5.957  19.231  0.00  0.00    +0.000 A 
ATOM      5  N   UNL     1       3.823   5.928  18.329  0.00  0.00    +0.000 NA
ATOM      6  C   UNL     1       3.867   4.899  17.459  0.00  0.00    +0.000 A 
ATOM      7  N   UNL     1       4.884   4.917  16.429  0.00  0.00    +0.000 N 
ATOM      8  N   UNL     1       4.922   3.952  15.457  0.00  0.00    +0.000 NA
ATOM      9  C   UNL     1       5.898   4.325  14.626  0.00  0.00    +0.000 A 
ATOM     10  C   UNL     1       6.200   3.533  13.409  0.00  0.00    +0.000 C 
ATOM     11  C   UNL     1       6.539   5.497  15.062  0.00  0.00    +0.000 A 
ATOM     12  C   UNL     1       5.897   5.857  16.229  0.00  0.00    +0.000 A 
ATOM     13  C   UNL     1       6.182   6.998  17.134  0.00  0.00    +0.000 C 
ATOM     14  N   UNL     1       2.993   3.869  17.486  0.00  0.00    +0.000 NA
ENDROOT
BRANCH   4  15
ATOM     15  N   UNL     1       2.762   7.010  20.175  0.00  0.00    +0.000 N 
ATOM     16  H   UNL     1       3.139   6.715  21.066  0.00  0.00    +0.000 HD
BRANCH  15  17
ATOM     17  C   UNL     1       1.722   7.966  20.267  0.00  0.00    +0.000 A 
ATOM     18  C   UNL     1       0.898   7.977  21.408  0.00  0.00    +0.000 A 
ATOM     19  C   UNL     1      -0.127   8.903  21.539  0.00  0.00    +0.000 A 
ATOM     20  F   UNL     1      -0.886   8.896  22.641  0.00  0.00    +0.000 F 
ATOM     21  C   UNL     1      -0.372   9.834  20.544  0.00  0.00    +0.000 A 
ATOM     22  C   UNL     1       0.411   9.825  19.393  0.00  0.00    +0.000 A 
ATOM     23  C   UNL     1       1.450   8.885  19.232  0.00  0.00    +0.000 A 
ATOM     24  C   UNL     1       2.256   8.920  17.962  0.00  0.00    +0.000 C 
ENDBRANCH  15  17
ENDBRANCH   4  15
TORSDOF 2
ENDMDL
MODEL 2
REMARK VINA RESULT:      -8.4      2.998      6.706
REMARK  Name = 
REMARK  6 active torsions:
REMARK  status: ('A' for Active; 'I' for Inactive)
REMARK    1  A    between atoms: C_1  and  C_2
REMARK    2  A    between atoms: C_4  and  N_5
REMARK    3  A    between atoms: N_5  and  C_6
REMARK    4  A    between atoms: C_12  and  C_13
REMARK    5  A    between atoms: C_18  and  C_19
REMARK    6  A    between atoms: C_21  and  C_22
REMARK                            x       y       z     vdW  Elec       q    Type
REMARK                         _______ _______ _______ _____ _____    ______ ____
ROOT
ATOM      1  C   UNL     1       1.841   2.703  21.894  0.00  0.00    +0.000 C 
ATOM      2  C   UNL     1       2.532   3.554  20.874  0.00  0.00    +0.000 A 
ATOM      3  C   UNL     1       3.577   3.059  20.121  0.00  0.00    +0.000 A 
ATOM      4  C   UNL     1       4.067   3.871  19.119  0.00  0.00    +0.000 A 
ATOM      5  N   UNL     1       3.588   5.110  18.919  0.00  0.00    +0.000 NA
ATOM      6  C   UNL     1       2.611   5.557  19.734  0.00  0.00    +0.000 A 
ATOM      7  N   UNL     1       2.161   6.924  19.575  0.00  0.00    +0.000 N 
ATOM      8  N   UNL     1       1.242   7.469  20.434  0.00  0.00    +0.000 NA
ATOM      9  C   UNL     1       1.136   8.749  20.073  0.00  0.00    +0.000 A 
ATOM     10  C   UNL     1       0.254   9.677  20.822  0.00  0.00    +0.000 C 
ATOM     11  C   UNL     1       1.935   9.046  18.956  0.00  0.00    +0.000 A 
ATOM     12  C   UNL     1       2.571   7.867  18.631  0.00  0.00    +0.000 A 
ATOM     13  C   UNL     1       3.510   7.592  17.515  0.00  0.00    +0.000 C 
ATOM     14  N   UNL     1       2.055   4.802  20.707  0.00  0.00    +0.000 NA
ENDROOT
BRANCH   4  15
ATOM     15  N   UNL     1       5.077   3.359  18.270  0.00  0.00    +0.000 N 
ATOM     16  H   UNL     1       5.758   2.834  18.802  0.00  0.00    +0.000 HD
BRANCH  15  17
ATOM     17  C   UNL     1       5.603   4.014  17.131  0.00  0.00    +0.000 A 
ATOM     18  C   UNL     1       5.053   3.738  15.865  0.00  0.00    +0.000 A 
ATOM     19  C   UNL     1       5.535   4.366  14.725  0.00  0.00    +0.000 A 
ATOM     20  F   UNL     1       4.984   4.091  13.537  0.00  0.00    +0.000 F 
ATOM     21  C   UNL     1       6.579   5.273  14.804  0.00  0.00    +0.000 A 
ATOM     22  C   UNL     1       7.159   5.540  16.040  0.00  0.00    +0.000 A 
ATOM     23  C   UNL     1       6.693   4.906  17.211  0.00  0.00    +0.000 A 
ATOM     24  C   UNL     1       7.365   5.230  18.516  0.00  0.00    +0.000 C 
ENDBRANCH  15  17
ENDBRANCH   4  15
TORSDOF 2
ENDMDL
MODEL 3
REMARK VINA RESULT:      -8.1      3.043      4.891
REMARK  Name = 
REMARK  6 active torsions:
REMARK  status: ('A' for Active; 'I' for Inactive)
REMARK    1  A    between atoms: C_1  and  C_2
REMARK    2  A    between atoms: C_4  and  N_5
REMARK    3  A    between atoms: N_5  and  C_6
REMARK    4  A    between atoms: C_12  and  C_13
REMARK    5  A    between atoms: C_18  and  C_19
REMARK    6  A    between atoms: C_21  and  C_22
REMARK                            x       y       z     vdW  Elec       q    Type
REMARK                         _______ _______ _______ _____ _____    ______ ____
ROOT
ATOM      1  C   UNL     1       8.288   7.626  18.618  0.00  0.00    +0.000 C 
ATOM      2  C   UNL     1       7.534   6.423  18.142  0.00  0.00    +0.000 A 
ATOM      3  C   UNL     1       6.878   5.596  19.030  0.00  0.00    +0.000 A 
ATOM      4  C   UNL     1       6.104   4.588  18.491  0.00  0.00    +0.000 A 
ATOM      5  N   UNL     1       6.036   4.384  17.166  0.00  0.00    +0.000 NA
ATOM      6  C   UNL     1       6.756   5.188  16.358  0.00  0.00    +0.000 A 
ATOM      7  N   UNL     1       6.753   4.909  14.937  0.00  0.00    +0.000 N 
ATOM      8  N   UNL     1       7.540   5.627  14.074  0.00  0.00    +0.000 NA
ATOM      9  C   UNL     1       7.377   5.049  12.883  0.00  0.00    +0.000 A 
ATOM     10  C   UNL     1       8.123   5.535  11.697  0.00  0.00    +0.000 C 
ATOM     11  C   UNL     1       6.455   3.989  12.935  0.00  0.00    +0.000 A 
ATOM     12  C   UNL     1       6.045   3.921  14.250  0.00  0.00    +0.000 A 
ATOM     13  C   UNL     1       5.053   3.007  14.870  0.00  0.00    +0.000 C 
ATOM     14  N   UNL     1       7.500   6.221  16.812  0.00  0.00    +0.000 NA
ENDROOT
BRANCH   4  15
ATOM     15  N   UNL     1       5.346   3.779  19.371  0.00  0.00    +0.000 N 
ATOM     16  H   UNL     1       5.767   2.864  19.466  0.00  0.00    +0.000 HD
BRANCH  15  17
ATOM     17  C   UNL     1       3.935   3.789  19.485  0.00  0.00    +0.000 A 
ATOM     18  C   UNL     1       3.304   4.885  20.102  0.00  0.00    +0.000 A 
ATOM     19  C   UNL     1       1.923   4.936  20.226  0.00  0.00    +0.000 A 
ATOM     20  F   UNL     1       1.351   5.998  20.807  0.00  0.00    +0.000 F 
ATOM     21  C   UNL     1       1.131   3.903  19.755  0.00  0.00    +0.000 A 
ATOM     22  C   UNL     1       1.733   2.795  19.167  0.00  0.00    +0.000 A 
ATOM     23  C   UNL     1       3.135   2.715  19.041  0.00  0.00    +0.000 A 
ATOM     24  C   UNL     1       3.728   1.488  18.404  0.00  0.00    +0.000 C 
ENDBRANCH  15  17
ENDBRANCH   4  15
TORSDOF 2
ENDMDL
MODEL 4
REMARK VINA RESULT:      -8.0      2.752      6.599
REMARK  Name = 
REMARK  6 active torsions:
REMARK  status: ('A' for Active; 'I' for Inactive)
REMARK    1  A    between atoms: C_1  and  C_2
REMARK    2  A    between atoms: C_4  and  N_5
REMARK    3  A    between atoms: N_5  and  C_6
REMARK    4  A    between atoms: C_12  and  C_13
REMARK    5  A    between atoms: C_18  and  C_19
REMARK    6  A    between atoms: C_21  and  C_22
REMARK                            x       y       z     vdW  Elec       q    Type
REMARK                         _______ _______ _______ _____ _____    ______ ____
ROOT
ATOM      1  C   UNL     1       1.668   2.479  22.023  0.00  0.00    +0.000 C 
ATOM      2  C   UNL     1       2.289   3.471  21.089  0.00  0.00    +0.000 A 
ATOM      3  C   UNL     1       3.336   3.114  20.263  0.00  0.00    +0.000 A 
ATOM      4  C   UNL     1       3.759   4.056  19.347  0.00  0.00    +0.000 A 
ATOM      5  N   UNL     1       3.216   5.282  19.296  0.00  0.00    +0.000 NA
ATOM      6  C   UNL     1       2.241   5.587  20.177  0.00  0.00    +0.000 A 
ATOM      7  N   UNL     1       1.722   6.939  20.181  0.00  0.00    +0.000 N 
ATOM      8  N   UNL     1       0.801   7.339  21.114  0.00  0.00    +0.000 NA
ATOM      9  C   UNL     1       0.625   8.644  20.900  0.00  0.00    +0.000 A 
ATOM     10  C   UNL     1      -0.280   9.439  21.766  0.00  0.00    +0.000 C 
ATOM     11  C   UNL     1       1.378   9.103  19.806  0.00  0.00    +0.000 A 
ATOM     12  C   UNL     1       2.061   7.999  19.338  0.00  0.00    +0.000 A 
ATOM     13  C   UNL     1       2.981   7.896  18.178  0.00  0.00    +0.000 C 
ATOM     14  N   UNL     1       1.749   4.703  21.072  0.00  0.00    +0.000 NA
ENDROOT
BRANCH   4  15
ATOM     15  N   UNL     1       4.768   3.691  18.425  0.00  0.00    +0.000 N 
ATOM     16  H   UNL     1       5.121   2.765  18.629  0.00  0.00    +0.000 HD
BRANCH  15  17
ATOM     17  C   UNL     1       5.725   4.570  17.864  0.00  0.00    +0.000 A 
ATOM     18  C   UNL     1       6.574   5.297  18.719  0.00  0.00    +0.000 A 
ATOM     19  C   UNL     1       7.530   6.164  18.208  0.00  0.00    +0.000 A 
ATOM     20  F   UNL     1       8.330   6.832  19.046  0.00  0.00    +0.000 F 
ATOM     21  C   UNL     1       7.666   6.343  16.841  0.00  0.00    +0.000 A 
ATOM     22  C   UNL     1       6.818   5.657  15.976  0.00  0.00    +0.000 A 
ATOM     23  C   UNL     1       5.831   4.780  16.473  0.00  0.00    +0.000 A 
ATOM     24  C   UNL     1       4.940   4.074  15.488  0.00  0.00    +0.000 C 
ENDBRANCH  15  17
ENDBRANCH   4  15
TORSDOF 2
ENDMDL
MODEL 5
REMARK VINA RESULT:      -8.0      2.708      7.186
REMARK  Name = 
REMARK  6 active torsions:
REMARK  status: ('A' for Active; 'I' for Inactive)
REMARK    1  A    between atoms: C_1  and  C_2
REMARK    2  A    between atoms: C_4  and  N_5
REMARK    3  A    between atoms: N_5  and  C_6
REMARK    4  A    between atoms: C_12  and  C_13
REMARK    5  A    between atoms: C_18  and  C_19
REMARK    6  A    between atoms: C_21  and  C_22
REMARK                            x       y       z     vdW  Elec       q    Type
REMARK                         _______ _______ _______ _____ _____    ______ ____
ROOT
ATOM      1  C   UNL     1       1.945   3.723  21.467  0.00  0.00    +0.000 C 
ATOM      2  C   UNL     1       2.204   4.939  20.631  0.00  0.00    +0.000 A 
ATOM      3  C   UNL     1       3.046   4.888  19.540  0.00  0.00    +0.000 A 
ATOM      4  C   UNL     1       3.124   6.020  18.756  0.00  0.00    +0.000 A 
ATOM      5  N   UNL     1       2.454   7.141  19.069  0.00  0.00    +0.000 NA
ATOM      6  C   UNL     1       1.700   7.144  20.187  0.00  0.00    +0.000 A 
ATOM      7  N   UNL     1       1.054   8.381  20.572  0.00  0.00    +0.000 N 
ATOM      8  N   UNL     1       0.354   8.477  21.747  0.00  0.00    +0.000 NA
ATOM      9  C   UNL     1      -0.012   9.756  21.838  0.00  0.00    +0.000 A 
ATOM     10  C   UNL     1      -0.756  10.249  23.022  0.00  0.00    +0.000 C 
ATOM     11  C   UNL     1       0.393  10.499  20.715  0.00  0.00    +0.000 A 
ATOM     12  C   UNL     1       1.055   9.605  19.900  0.00  0.00    +0.000 A 
ATOM     13  C   UNL     1       1.666   9.836  18.567  0.00  0.00    +0.000 C 
ATOM     14  N   UNL     1       1.544   6.060  20.977  0.00  0.00    +0.000 NA
ENDROOT
BRANCH   4  15
ATOM     15  N   UNL     1       3.908   5.971  17.578  0.00  0.00    +0.000 N 
ATOM     16  H   UNL     1       3.333   5.750  16.776  0.00  0.00    +0.000 HD
BRANCH  15  17
ATOM     17  C   UNL     1       5.237   5.492  17.496  0.00  0.00    +0.000 A 
ATOM     18  C   UNL     1       6.125   5.746  18.557  0.00  0.00    +0.000 A 
ATOM     19  C   UNL     1       7.434   5.286  18.517  0.00  0.00    +0.000 A 
ATOM     20  F   UNL     1       8.252   5.533  19.547  0.00  0.00    +0.000 F 
ATOM     21  C   UNL     1       7.902   4.573  17.426  0.00  0.00    +0.000 A 
ATOM     22  C   UNL     1       7.051   4.335  16.351  0.00  0.00    +0.000 A 
ATOM     23  C   UNL     1       5.720   4.802  16.364  0.00  0.00    +0.000 A 
ATOM     24  C   UNL     1       4.851   4.520  15.169  0.00  0.00    +0.000 C 
ENDBRANCH  15  17
ENDBRANCH   4  15
TORSDOF 2
ENDMDL
MODEL 6
REMARK VINA RESULT:      -7.8      3.154      6.832
REMARK  Name = 
REMARK  6 active torsions:
REMARK  status: ('A' for Active; 'I' for Inactive)
REMARK    1  A    between atoms: C_1  and  C_2
REMARK    2  A    between atoms: C_4  and  N_5
REMARK    3  A    between atoms: N_5  and  C_6
REMARK    4  A    between atoms: C_12  and  C_13
REMARK    5  A    between atoms: C_18  and  C_19
REMARK    6  A    between atoms: C_21  and  C_22
REMARK                            x       y       z     vdW  Elec       q    Type
REMARK                         _______ _______ _______ _____ _____    ______ ____
ROOT
ATOM      1  C   UNL     1       1.198   9.098  19.543  0.00  0.00    +0.000 C 
ATOM      2  C   UNL     1       2.074   7.984  19.060  0.00  0.00    +0.000 A 
ATOM      3  C   UNL     1       2.909   8.152  17.975  0.00  0.00    +0.000 A 
ATOM      4  C   UNL     1       3.771   7.116  17.681  0.00  0.00    +0.000 A 
ATOM      5  N   UNL     1       3.762   5.972  18.384  0.00  0.00    +0.000 NA
ATOM      6  C   UNL     1       2.873   5.847  19.391  0.00  0.00    +0.000 A 
ATOM      7  N   UNL     1       2.802   4.579  20.086  0.00  0.00    +0.000 N 
ATOM      8  N   UNL     1       1.856   4.356  21.053  0.00  0.00    +0.000 NA
ATOM      9  C   UNL     1       2.003   3.077  21.403  0.00  0.00    +0.000 A 
ATOM     10  C   UNL     1       1.103   2.458  22.407  0.00  0.00    +0.000 C 
ATOM     11  C   UNL     1       3.066   2.464  20.717  0.00  0.00    +0.000 A 
ATOM     12  C   UNL     1       3.585   3.440  19.893  0.00  0.00    +0.000 A 
ATOM     13  C   UNL     1       4.742   3.357  18.966  0.00  0.00    +0.000 C 
ATOM     14  N   UNL     1       2.030   6.835  19.761  0.00  0.00    +0.000 NA
ENDROOT
BRANCH   4  15
ATOM     15  N   UNL     1       4.704   7.292  16.632  0.00  0.00    +0.000 N 
ATOM     16  H   UNL     1       4.371   7.982  15.971  0.00  0.00    +0.000 HD
BRANCH  15  17
ATOM     17  C   UNL     1       5.501   6.272  16.061  0.00  0.00    +0.000 A 
ATOM     18  C   UNL     1       4.998   5.536  14.971  0.00  0.00    +0.000 A 
ATOM     19  C   UNL     1       5.752   4.533  14.379  0.00  0.00    +0.000 A 
ATOM     20  F   UNL     1       5.251   3.858  13.338  0.00  0.00    +0.000 F 
ATOM     21  C   UNL     1       7.016   4.223  14.853  0.00  0.00    +0.000 A 
ATOM     22  C   UNL     1       7.524   4.917  15.947  0.00  0.00    +0.000 A 
ATOM     23  C   UNL     1       6.771   5.932  16.573  0.00  0.00    +0.000 A 
ATOM     24  C   UNL     1       7.370   6.641  17.757  0.00  0.00    +0.000 C 
ENDBRANCH  15  17
ENDBRANCH   4  15
TORSDOF 2
ENDMDL
MODEL 7
REMARK VINA RESULT:      -7.7      3.056      7.397
REMARK  Name = 
REMARK  6 active torsions:
REMARK  status: ('A' for Active; 'I' for Inactive)
REMARK    1  A    between atoms: C_1  and  C_2
REMARK    2  A    between atoms: C_4  and  N_5
REMARK    3  A    between atoms: N_5  and  C_6
REMARK    4  A    between atoms: C_12  and  C_13
REMARK    5  A    between atoms: C_18  and  C_19
REMARK    6  A    between atoms: C_21  and  C_22
REMARK                            x       y       z     vdW  Elec       q    Type
REMARK                         _______ _______ _______ _____ _____    ______ ____
ROOT
ATOM      1  C   UNL     1       3.031   3.907  20.263  0.00  0.00    +0.000 C 
ATOM      2  C   UNL     1       3.060   5.260  19.622  0.00  0.00    +0.000 A 
ATOM      3  C   UNL     1       3.857   5.513  18.525  0.00  0.00    +0.000 A 
ATOM      4  C   UNL     1       3.723   6.748  17.924  0.00  0.00    +0.000 A 
ATOM      5  N   UNL     1       2.894   7.683  18.415  0.00  0.00    +0.000 NA
ATOM      6  C   UNL     1       2.193   7.394  19.530  0.00  0.00    +0.000 A 
ATOM      7  N   UNL     1       1.371   8.436  20.110  0.00  0.00    +0.000 N 
ATOM      8  N   UNL     1       0.711   8.238  21.294  0.00  0.00    +0.000 NA
ATOM      9  C   UNL     1       0.148   9.412  21.586  0.00  0.00    +0.000 A 
ATOM     10  C   UNL     1      -0.620   9.592  22.842  0.00  0.00    +0.000 C 
ATOM     11  C   UNL     1       0.385  10.371  20.587  0.00  0.00    +0.000 A 
ATOM     12  C   UNL     1       1.151   9.731  19.635  0.00  0.00    +0.000 A 
ATOM     13  C   UNL     1       1.666  10.257  18.346  0.00  0.00    +0.000 C 
ATOM     14  N   UNL     1       2.242   6.193  20.146  0.00  0.00    +0.000 NA
ENDROOT
BRANCH   4  15
ATOM     15  N   UNL     1       4.459   7.006  16.743  0.00  0.00    +0.000 N 
ATOM     16  H   UNL     1       3.920   7.573  16.103  0.00  0.00    +0.000 HD
BRANCH  15  17
ATOM     17  C   UNL     1       5.349   6.101  16.116  0.00  0.00    +0.000 A 
ATOM     18  C   UNL     1       4.881   5.303  15.055  0.00  0.00    +0.000 A 
ATOM     19  C   UNL     1       5.724   4.410  14.409  0.00  0.00    +0.000 A 
ATOM     20  F   UNL     1       5.254   3.672  13.396  0.00  0.00    +0.000 F 
ATOM     21  C   UNL     1       7.046   4.273  14.800  0.00  0.00    +0.000 A 
ATOM     22  C   UNL     1       7.524   5.031  15.866  0.00  0.00    +0.000 A 
ATOM     23  C   UNL     1       6.682   5.936  16.544  0.00  0.00    +0.000 A 
ATOM     24  C   UNL     1       7.255   6.720  17.693  0.00  0.00    +0.000 C 
ENDBRANCH  15  17
ENDBRANCH   4  15
TORSDOF 2
ENDMDL
MODEL 8
REMARK VINA RESULT:      -7.6      2.719      6.829
REMARK  Name = 
REMARK  6 active torsions:
REMARK  status: ('A' for Active; 'I' for Inactive)
REMARK    1  A    between atoms: C_1  and  C_2
REMARK    2  A    between atoms: C_4  and  N_5
REMARK    3  A    between atoms: N_5  and  C_6
REMARK    4  A    between atoms: C_12  and  C_13
REMARK    5  A    between atoms: C_18  and  C_19
REMARK    6  A    between atoms: C_21  and  C_22
REMARK                            x       y       z     vdW  Elec       q    Type
REMARK                         _______ _______ _______ _____ _____    ______ ____
ROOT
ATOM      1  C   UNL     1       1.419   3.134  21.684  0.00  0.00    +0.000 C 
ATOM      2  C   UNL     1       1.884   4.306  20.877  0.00  0.00    +0.000 A 
ATOM      3  C   UNL     1       2.835   4.159  19.888  0.00  0.00    +0.000 A 
ATOM      4  C   UNL     1       3.107   5.268  19.112  0.00  0.00    +0.000 A 
ATOM      5  N   UNL     1       2.516   6.451  19.342  0.00  0.00    +0.000 NA
ATOM      6  C   UNL     1       1.646   6.542  20.369  0.00  0.00    +0.000 A 
ATOM      7  N   UNL     1       1.081   7.840  20.672  0.00  0.00    +0.000 N 
ATOM      8  N   UNL     1       0.267   8.019  21.761  0.00  0.00    +0.000 NA
ATOM      9  C   UNL     1       0.017   9.329  21.804  0.00  0.00    +0.000 A 
ATOM     10  C   UNL     1      -0.805   9.908  22.895  0.00  0.00    +0.000 C 
ATOM     11  C   UNL     1       0.613  10.012  20.731  0.00  0.00    +0.000 A 
ATOM     12  C   UNL     1       1.274   9.048  19.999  0.00  0.00    +0.000 A 
ATOM     13  C   UNL     1       2.048   9.200  18.742  0.00  0.00    +0.000 C 
ATOM     14  N   UNL     1       1.300   5.490  21.142  0.00  0.00    +0.000 NA
ENDROOT
BRANCH   4  15
ATOM     15  N   UNL     1       4.009   5.127  18.030  0.00  0.00    +0.000 N 
ATOM     16  H   UNL     1       3.861   4.247  17.554  0.00  0.00    +0.000 HD
BRANCH  15  17
ATOM     17  C   UNL     1       5.348   5.584  18.013  0.00  0.00    +0.000 A 
ATOM     18  C   UNL     1       6.169   5.345  19.131  0.00  0.00    +0.000 A 
ATOM     19  C   UNL     1       7.490   5.770  19.150  0.00  0.00    +0.000 A 
ATOM     20  F   UNL     1       8.249   5.518  20.224  0.00  0.00    +0.000 F 
ATOM     21  C   UNL     1       8.031   6.449  18.072  0.00  0.00    +0.000 A 
ATOM     22  C   UNL     1       7.231   6.723  16.966  0.00  0.00    +0.000 A 
ATOM     23  C   UNL     1       5.883   6.311  16.929  0.00  0.00    +0.000 A 
ATOM     24  C   UNL     1       5.067   6.643  15.711  0.00  0.00    +0.000 C 
ENDBRANCH  15  17
ENDBRANCH   4  15
TORSDOF 2
ENDMDL
MODEL 9
REMARK VINA RESULT:      -7.6      1.518      2.086
REMARK  Name = 
REMARK  6 active torsions:
REMARK  status: ('A' for Active; 'I' for Inactive)
REMARK    1  A    between atoms: C_1  and  C_2
REMARK    2  A    between atoms: C_4  and  N_5
REMARK    3  A    between atoms: N_5  and  C_6
REMARK    4  A    between atoms: C_12  and  C_13
REMARK    5  A    between atoms: C_18  and  C_19
REMARK    6  A    between atoms: C_21  and  C_22
REMARK                            x       y       z     vdW  Elec       q    Type
REMARK                         _______ _______ _______ _____ _____    ______ ____
ROOT
ATOM      1  C   UNL     1       1.132   2.411  19.195  0.00  0.00    +0.000 C 
ATOM      2  C   UNL     1       1.818   3.728  19.002  0.00  0.00    +0.000 A 
ATOM      3  C   UNL     1       1.490   4.823  19.775  0.00  0.00    +0.000 A 
ATOM      4  C   UNL     1       2.261   5.955  19.615  0.00  0.00    +0.000 A 
ATOM      5  N   UNL     1       3.252   6.011  18.710  0.00  0.00    +0.000 NA
ATOM      6  C   UNL     1       3.476   4.927  17.940  0.00  0.00    +0.000 A 
ATOM      7  N   UNL     1       4.482   5.021  16.903  0.00  0.00    +0.000 N 
ATOM      8  N   UNL     1       4.690   3.989  16.025  0.00  0.00    +0.000 NA
ATOM      9  C   UNL     1       5.593   4.443  15.154  0.00  0.00    +0.000 A 
ATOM     10  C   UNL     1       6.034   3.603  14.013  0.00  0.00    +0.000 C 
ATOM     11  C   UNL     1       6.023   5.742  15.472  0.00  0.00    +0.000 A 
ATOM     12  C   UNL     1       5.322   6.096  16.606  0.00  0.00    +0.000 A 
ATOM     13  C   UNL     1       5.402   7.349  17.397  0.00  0.00    +0.000 C 
ATOM     14  N   UNL     1       2.789   3.771  18.071  0.00  0.00    +0.000 NA
ENDROOT
BRANCH   4  15
ATOM     15  N   UNL     1       2.010   7.065  20.456  0.00  0.00    +0.000 N 
ATOM     16  H   UNL     1       1.679   6.759  21.361  0.00  0.00    +0.000 HD
BRANCH  15  17
ATOM     17  C   UNL     1       1.493   8.314  20.036  0.00  0.00    +0.000 A 
ATOM     18  C   UNL     1       2.070   8.957  18.924  0.00  0.00    +0.000 A 
ATOM     19  C   UNL     1       1.586  10.178  18.477  0.00  0.00    +0.000 A 
ATOM     20  F   UNL     1       2.148  10.760  17.410  0.00  0.00    +0.000 F 
ATOM     21  C   UNL     1       0.530  10.801  19.120  0.00  0.00    +0.000 A 
ATOM     22  C   UNL     1      -0.038  10.199  20.238  0.00  0.00    +0.000 A 
ATOM     23  C   UNL     1       0.444   8.964  20.719  0.00  0.00    +0.000 A 
ATOM     24  C   UNL     1      -0.206   8.368  21.937  0.00  0.00    +0.000 C 
ENDBRANCH  15  17
ENDBRANCH   4  15
TORSDOF 2
ENDMDL
