MODEL 1
REMARK VINA RESULT:      -7.8      0.000      0.000
REMARK  Name = 
REMARK  10 active torsions:
REMARK  status: ('A' for Active; 'I' for Inactive)
REMARK    1  A    between atoms: C_1  and  O_2
REMARK    2  A    between atoms: O_2  and  C_3
REMARK    3  A    between atoms: C_6  and  C_7
REMARK    4  A    between atoms: C_7  and  C_8
REMARK    5  A    between atoms: C_8  and  N_9
REMARK    6  A    between atoms: C_10  and  S_11
REMARK    7  A    between atoms: C_15  and  C_16
REMARK    8  A    between atoms: C_16  and  C_17
REMARK    9  A    between atoms: C_26  and  O_27
REMARK   10  A    between atoms: O_27  and  C_28
REMARK                            x       y       z     vdW  Elec       q    Type
REMARK                         _______ _______ _______ _____ _____    ______ ____
ROOT
ATOM      1  N   UNL     1       7.307   8.092  17.313  0.00  0.00    +0.000 NA
ATOM      2  C   UNL     1       7.029   6.999  17.938  0.00  0.00    +0.000 C 
ATOM      3  N   UNL     1       5.866   6.279  17.699  0.00  0.00    +0.000 N 
ATOM      4  C   UNL     1       5.204   5.428  18.692  0.00  0.00    +0.000 C 
ATOM      5  C   UNL     1       5.099   4.014  18.131  0.00  0.00    +0.000 C 
ATOM      6  C   UNL     1       4.274   3.997  16.834  0.00  0.00    +0.000 C 
ATOM      7  C   UNL     1       4.902   5.000  15.837  0.00  0.00    +0.000 C 
ATOM      8  C   UNL     1       5.136   6.398  16.434  0.00  0.00    +0.000 C 
ENDROOT
BRANCH   2   9
ATOM      9  S   UNL     1       8.123   6.267  19.145  0.00  0.00    +0.000 S 
ATOM     10  H   UNL     1       7.575   5.057  19.245  0.00  0.00    +0.000 HD
ENDBRANCH   2   9
BRANCH   1  11
ATOM     11  C   UNL     1       8.523   8.849  17.604  0.00  0.00    +0.000 C 
BRANCH  11  12
ATOM     12  C   UNL     1       8.602   9.245  19.082  0.00  0.00    +0.000 C 
BRANCH  12  16
ATOM     13  C   UNL     1      11.309  12.600  19.561  0.00  0.00    +0.000 A 
ATOM     14  C   UNL     1      10.530  12.143  20.639  0.00  0.00    +0.000 A 
ATOM     15  C   UNL     1       9.644  11.074  20.490  0.00  0.00    +0.000 A 
ATOM     16  C   UNL     1       9.469  10.475  19.241  0.00  0.00    +0.000 A 
ATOM     17  C   UNL     1      10.180  10.993  18.150  0.00  0.00    +0.000 A 
ATOM     18  C   UNL     1      11.094  12.053  18.289  0.00  0.00    +0.000 A 
BRANCH  13  20
ATOM     19  C   UNL     1      11.759  14.913  19.803  0.00  0.00    +0.000 C 
ATOM     20  O   UNL     1      12.255  13.574  19.741  0.00  0.00    +0.000 OA
ENDBRANCH  13  20
BRANCH  18  21
ATOM     21  O   UNL     1      11.681  12.373  17.093  0.00  0.00    +0.000 OA
ATOM     22  C   UNL     1      11.291  13.555  16.413  0.00  0.00    +0.000 C 
ENDBRANCH  18  21
ENDBRANCH  12  16
ENDBRANCH  11  12
ENDBRANCH   1  11
BRANCH   6  23
ATOM     23  C   UNL     1       2.775   4.303  17.060  0.00  0.00    +0.000 C 
BRANCH  23  24
ATOM     24  C   UNL     1       2.192   3.795  18.360  0.00  0.00    +0.000 A 
ATOM     25  C   UNL     1       2.120   2.416  18.617  0.00  0.00    +0.000 A 
ATOM     26  C   UNL     1       1.649   1.942  19.844  0.00  0.00    +0.000 A 
ATOM     27  C   UNL     1       1.245   2.841  20.828  0.00  0.00    +0.000 A 
ATOM     28  C   UNL     1       1.298   4.211  20.582  0.00  0.00    +0.000 A 
ATOM     29  C   UNL     1       1.766   4.687  19.353  0.00  0.00    +0.000 A 
ENDBRANCH  23  24
ENDBRANCH   6  23
TORSDOF 8
ENDMDL
MODEL 2
REMARK VINA RESULT:      -7.8      1.247      1.600
REMARK  Name = 
REMARK  10 active torsions:
REMARK  status: ('A' for Active; 'I' for Inactive)
REMARK    1  A    between atoms: C_1  and  O_2
REMARK    2  A    between atoms: O_2  and  C_3
REMARK    3  A    between atoms: C_6  and  C_7
REMARK    4  A    between atoms: C_7  and  C_8
REMARK    5  A    between atoms: C_8  and  N_9
REMARK    6  A    between atoms: C_10  and  S_11
REMARK    7  A    between atoms: C_15  and  C_16
REMARK    8  A    between atoms: C_16  and  C_17
REMARK    9  A    between atoms: C_26  and  O_27
REMARK   10  A    between atoms: O_27  and  C_28
REMARK                            x       y       z     vdW  Elec       q    Type
REMARK                         _______ _______ _______ _____ _____    ______ ____
ROOT
ATOM      1  N   UNL     1       7.172   7.710  17.662  0.00  0.00    +0.000 NA
ATOM      2  C   UNL     1       6.895   6.580  18.218  0.00  0.00    +0.000 C 
ATOM      3  N   UNL     1       5.757   5.851  17.899  0.00  0.00    +0.000 N 
ATOM      4  C   UNL     1       5.078   4.936  18.821  0.00  0.00    +0.000 C 
ATOM      5  C   UNL     1       5.023   3.552  18.183  0.00  0.00    +0.000 C 
ATOM      6  C   UNL     1       4.245   3.588  16.858  0.00  0.00    +0.000 C 
ATOM      7  C   UNL     1       4.887   4.654  15.939  0.00  0.00    +0.000 C 
ATOM      8  C   UNL     1       5.070   6.024  16.617  0.00  0.00    +0.000 C 
ENDROOT
BRANCH   2   9
ATOM      9  S   UNL     1       7.960   5.806  19.425  0.00  0.00    +0.000 S 
ATOM     10  H   UNL     1       8.700   6.855  19.781  0.00  0.00    +0.000 HD
ENDBRANCH   2   9
BRANCH   1  11
ATOM     11  C   UNL     1       8.360   8.474  18.037  0.00  0.00    +0.000 C 
BRANCH  11  12
ATOM     12  C   UNL     1       8.370   9.860  17.384  0.00  0.00    +0.000 C 
BRANCH  12  16
ATOM     13  C   UNL     1      10.206  12.759  20.037  0.00  0.00    +0.000 A 
ATOM     14  C   UNL     1       9.963  11.442  20.466  0.00  0.00    +0.000 A 
ATOM     15  C   UNL     1       9.358  10.506  19.624  0.00  0.00    +0.000 A 
ATOM     16  C   UNL     1       8.923  10.882  18.352  0.00  0.00    +0.000 A 
ATOM     17  C   UNL     1       9.085  12.220  17.963  0.00  0.00    +0.000 A 
ATOM     18  C   UNL     1       9.714  13.168  18.789  0.00  0.00    +0.000 A 
BRANCH  13  20
ATOM     19  C   UNL     1      10.100  14.488  21.652  0.00  0.00    +0.000 C 
ATOM     20  O   UNL     1      10.898  13.639  20.826  0.00  0.00    +0.000 OA
ENDBRANCH  13  20
BRANCH  18  21
ATOM     21  O   UNL     1       9.774  14.398  18.190  0.00  0.00    +0.000 OA
ATOM     22  C   UNL     1       8.639  15.249  18.219  0.00  0.00    +0.000 C 
ENDBRANCH  18  21
ENDBRANCH  12  16
ENDBRANCH  11  12
ENDBRANCH   1  11
BRANCH   6  23
ATOM     23  C   UNL     1       2.733   3.852  17.045  0.00  0.00    +0.000 C 
BRANCH  23  24
ATOM     24  C   UNL     1       2.188   3.586  18.431  0.00  0.00    +0.000 A 
ATOM     25  C   UNL     1       1.728   4.646  19.230  0.00  0.00    +0.000 A 
ATOM     26  C   UNL     1       1.158   4.401  20.482  0.00  0.00    +0.000 A 
ATOM     27  C   UNL     1       1.040   3.094  20.949  0.00  0.00    +0.000 A 
ATOM     28  C   UNL     1       1.504   2.034  20.172  0.00  0.00    +0.000 A 
ATOM     29  C   UNL     1       2.078   2.278  18.920  0.00  0.00    +0.000 A 
ENDBRANCH  23  24
ENDBRANCH   6  23
TORSDOF 8
ENDMDL
MODEL 3
REMARK VINA RESULT:      -7.7      1.166      2.020
REMARK  Name = 
REMARK  10 active torsions:
REMARK  status: ('A' for Active; 'I' for Inactive)
REMARK    1  A    between atoms: C_1  and  O_2
REMARK    2  A    between atoms: O_2  and  C_3
REMARK    3  A    between atoms: C_6  and  C_7
REMARK    4  A    between atoms: C_7  and  C_8
REMARK    5  A    between atoms: C_8  and  N_9
REMARK    6  A    between atoms: C_10  and  S_11
REMARK    7  A    between atoms: C_15  and  C_16
REMARK    8  A    between atoms: C_16  and  C_17
REMARK    9  A    between atoms: C_26  and  O_27
REMARK   10  A    between atoms: O_27  and  C_28
REMARK                            x       y       z     vdW  Elec       q    Type
REMARK                         _______ _______ _______ _____ _____    ______ ____
ROOT
ATOM      1  N   UNL     1       7.255   7.681  17.733  0.00  0.00    +0.000 NA
ATOM      2  C   UNL     1       6.926   6.570  18.299  0.00  0.00    +0.000 C 
ATOM      3  N   UNL     1       5.773   5.875  17.962  0.00  0.00    +0.000 N 
ATOM      4  C   UNL     1       5.039   4.999  18.880  0.00  0.00    +0.000 C 
ATOM      5  C   UNL     1       4.954   3.606  18.263  0.00  0.00    +0.000 C 
ATOM      6  C   UNL     1       4.212   3.646  16.917  0.00  0.00    +0.000 C 
ATOM      7  C   UNL     1       4.914   4.675  15.999  0.00  0.00    +0.000 C 
ATOM      8  C   UNL     1       5.125   6.049  16.659  0.00  0.00    +0.000 C 
ENDROOT
BRANCH   2   9
ATOM      9  S   UNL     1       7.933   5.782  19.546  0.00  0.00    +0.000 S 
ATOM     10  H   UNL     1       7.833   4.514  19.152  0.00  0.00    +0.000 HD
ENDBRANCH   2   9
BRANCH   1  11
ATOM     11  C   UNL     1       8.459   8.411  18.128  0.00  0.00    +0.000 C 
BRANCH  11  12
ATOM     12  C   UNL     1       8.519   9.796  17.475  0.00  0.00    +0.000 C 
BRANCH  12  16
ATOM     13  C   UNL     1      10.492  12.702  20.019  0.00  0.00    +0.000 A 
ATOM     14  C   UNL     1      10.763  12.650  18.640  0.00  0.00    +0.000 A 
ATOM     15  C   UNL     1      10.145  11.707  17.816  0.00  0.00    +0.000 A 
ATOM     16  C   UNL     1       9.286  10.751  18.362  0.00  0.00    +0.000 A 
ATOM     17  C   UNL     1       9.090  10.750  19.751  0.00  0.00    +0.000 A 
ATOM     18  C   UNL     1       9.685  11.708  20.591  0.00  0.00    +0.000 A 
BRANCH  13  20
ATOM     19  C   UNL     1      10.273  14.919  20.824  0.00  0.00    +0.000 C 
ATOM     20  O   UNL     1      11.015  13.698  20.801  0.00  0.00    +0.000 OA
ENDBRANCH  13  20
BRANCH  18  21
ATOM     21  O   UNL     1       9.333  11.519  21.900  0.00  0.00    +0.000 OA
ATOM     22  C   UNL     1       8.150  12.119  22.404  0.00  0.00    +0.000 C 
ENDBRANCH  18  21
ENDBRANCH  12  16
ENDBRANCH  11  12
ENDBRANCH   1  11
BRANCH   6  23
ATOM     23  C   UNL     1       2.706   3.964  17.059  0.00  0.00    +0.000 C 
BRANCH  23  24
ATOM     24  C   UNL     1       2.091   3.637  18.403  0.00  0.00    +0.000 A 
ATOM     25  C   UNL     1       1.973   2.302  18.825  0.00  0.00    +0.000 A 
ATOM     26  C   UNL     1       1.473   1.996  20.092  0.00  0.00    +0.000 A 
ATOM     27  C   UNL     1       1.085   3.020  20.953  0.00  0.00    +0.000 A 
ATOM     28  C   UNL     1       1.184   4.348  20.542  0.00  0.00    +0.000 A 
ATOM     29  C   UNL     1       1.682   4.656  19.272  0.00  0.00    +0.000 A 
ENDBRANCH  23  24
ENDBRANCH   6  23
TORSDOF 8
ENDMDL
MODEL 4
REMARK VINA RESULT:      -7.6      1.308      1.359
REMARK  Name = 
REMARK  10 active torsions:
REMARK  status: ('A' for Active; 'I' for Inactive)
REMARK    1  A    between atoms: C_1  and  O_2
REMARK    2  A    between atoms: O_2  and  C_3
REMARK    3  A    between atoms: C_6  and  C_7
REMARK    4  A    between atoms: C_7  and  C_8
REMARK    5  A    between atoms: C_8  and  N_9
REMARK    6  A    between atoms: C_10  and  S_11
REMARK    7  A    between atoms: C_15  and  C_16
REMARK    8  A    between atoms: C_16  and  C_17
REMARK    9  A    between atoms: C_26  and  O_27
REMARK   10  A    between atoms: O_27  and  C_28
REMARK                            x       y       z     vdW  Elec       q    Type
REMARK                         _______ _______ _______ _____ _____    ______ ____
ROOT
ATOM      1  N   UNL     1       7.152   7.681  17.761  0.00  0.00    +0.000 NA
ATOM      2  C   UNL     1       6.857   6.555  18.314  0.00  0.00    +0.000 C 
ATOM      3  N   UNL     1       5.716   5.837  17.984  0.00  0.00    +0.000 N 
ATOM      4  C   UNL     1       5.018   4.930  18.899  0.00  0.00    +0.000 C 
ATOM      5  C   UNL     1       4.956   3.546  18.262  0.00  0.00    +0.000 C 
ATOM      6  C   UNL     1       4.192   3.589  16.929  0.00  0.00    +0.000 C 
ATOM      7  C   UNL     1       4.854   4.649  16.016  0.00  0.00    +0.000 C 
ATOM      8  C   UNL     1       5.044   6.016  16.694  0.00  0.00    +0.000 C 
ENDROOT
BRANCH   2   9
ATOM      9  S   UNL     1       7.903   5.771  19.533  0.00  0.00    +0.000 S 
ATOM     10  H   UNL     1       9.088   6.245  19.154  0.00  0.00    +0.000 HD
ENDBRANCH   2   9
BRANCH   1  11
ATOM     11  C   UNL     1       8.344   8.434  18.148  0.00  0.00    +0.000 C 
BRANCH  11  12
ATOM     12  C   UNL     1       8.483   9.728  17.340  0.00  0.00    +0.000 C 
BRANCH  12  16
ATOM     13  C   UNL     1      10.129  12.940  19.746  0.00  0.00    +0.000 A 
ATOM     14  C   UNL     1      10.191  11.605  20.185  0.00  0.00    +0.000 A 
ATOM     15  C   UNL     1       9.650  10.566  19.425  0.00  0.00    +0.000 A 
ATOM     16  C   UNL     1       8.976  10.844  18.234  0.00  0.00    +0.000 A 
ATOM     17  C   UNL     1       8.837  12.184  17.846  0.00  0.00    +0.000 A 
ATOM     18  C   UNL     1       9.398  13.239  18.588  0.00  0.00    +0.000 A 
BRANCH  13  20
ATOM     19  C   UNL     1      11.995  14.390  19.887  0.00  0.00    +0.000 C 
ATOM     20  O   UNL     1      10.758  13.938  20.440  0.00  0.00    +0.000 OA
ENDBRANCH  13  20
BRANCH  18  21
ATOM     21  O   UNL     1       9.149  14.453  18.005  0.00  0.00    +0.000 OA
ATOM     22  C   UNL     1       7.882  15.068  18.176  0.00  0.00    +0.000 C 
ENDBRANCH  18  21
ENDBRANCH  12  16
ENDBRANCH  11  12
ENDBRANCH   1  11
BRANCH   6  23
ATOM     23  C   UNL     1       2.680   3.869  17.100  0.00  0.00    +0.000 C 
BRANCH  23  24
ATOM     24  C   UNL     1       2.117   3.604  18.478  0.00  0.00    +0.000 A 
ATOM     25  C   UNL     1       2.092   2.300  18.998  0.00  0.00    +0.000 A 
ATOM     26  C   UNL     1       1.640   2.058  20.298  0.00  0.00    +0.000 A 
ATOM     27  C   UNL     1       1.208   3.117  21.093  0.00  0.00    +0.000 A 
ATOM     28  C   UNL     1       1.214   4.414  20.585  0.00  0.00    +0.000 A 
ATOM     29  C   UNL     1       1.664   4.658  19.283  0.00  0.00    +0.000 A 
ENDBRANCH  23  24
ENDBRANCH   6  23
TORSDOF 8
ENDMDL
MODEL 5
REMARK VINA RESULT:      -7.6      1.127      1.939
REMARK  Name = 
REMARK  10 active torsions:
REMARK  status: ('A' for Active; 'I' for Inactive)
REMARK    1  A    between atoms: C_1  and  O_2
REMARK    2  A    between atoms: O_2  and  C_3
REMARK    3  A    between atoms: C_6  and  C_7
REMARK    4  A    between atoms: C_7  and  C_8
REMARK    5  A    between atoms: C_8  and  N_9
REMARK    6  A    between atoms: C_10  and  S_11
REMARK    7  A    between atoms: C_15  and  C_16
REMARK    8  A    between atoms: C_16  and  C_17
REMARK    9  A    between atoms: C_26  and  O_27
REMARK   10  A    between atoms: O_27  and  C_28
REMARK                            x       y       z     vdW  Elec       q    Type
REMARK                         _______ _______ _______ _____ _____    ______ ____
ROOT
ATOM      1  N   UNL     1       7.409   8.162  17.295  0.00  0.00    +0.000 NA
ATOM      2  C   UNL     1       7.136   7.074  17.929  0.00  0.00    +0.000 C 
ATOM      3  N   UNL     1       5.963   6.362  17.719  0.00  0.00    +0.000 N 
ATOM      4  C   UNL     1       5.316   5.520  18.729  0.00  0.00    +0.000 C 
ATOM      5  C   UNL     1       5.188   4.105  18.176  0.00  0.00    +0.000 C 
ATOM      6  C   UNL     1       4.334   4.089  16.898  0.00  0.00    +0.000 C 
ATOM      7  C   UNL     1       4.949   5.084  15.884  0.00  0.00    +0.000 C 
ATOM      8  C   UNL     1       5.206   6.483  16.470  0.00  0.00    +0.000 C 
ENDROOT
BRANCH   2   9
ATOM      9  S   UNL     1       8.250   6.338  19.116  0.00  0.00    +0.000 S 
ATOM     10  H   UNL     1       8.376   7.353  19.969  0.00  0.00    +0.000 HD
ENDBRANCH   2   9
BRANCH   1  11
ATOM     11  C   UNL     1       8.637   8.911  17.557  0.00  0.00    +0.000 C 
BRANCH  11  12
ATOM     12  C   UNL     1       8.511   9.783  18.810  0.00  0.00    +0.000 C 
BRANCH  12  16
ATOM     13  C   UNL     1      10.932  13.348  18.320  0.00  0.00    +0.000 A 
ATOM     14  C   UNL     1      11.204  12.185  17.578  0.00  0.00    +0.000 A 
ATOM     15  C   UNL     1      10.440  11.027  17.740  0.00  0.00    +0.000 A 
ATOM     16  C   UNL     1       9.424  10.984  18.696  0.00  0.00    +0.000 A 
ATOM     17  C   UNL     1       9.216  12.117  19.497  0.00  0.00    +0.000 A 
ATOM     18  C   UNL     1       9.960  13.298  19.328  0.00  0.00    +0.000 A 
BRANCH  13  20
ATOM     19  C   UNL     1      11.000  15.400  17.139  0.00  0.00    +0.000 C 
ATOM     20  O   UNL     1      11.612  14.512  18.076  0.00  0.00    +0.000 OA
ENDBRANCH  13  20
BRANCH  18  21
ATOM     21  O   UNL     1       9.567  14.271  20.208  0.00  0.00    +0.000 OA
ATOM     22  C   UNL     1       8.419  15.054  19.924  0.00  0.00    +0.000 C 
ENDBRANCH  18  21
ENDBRANCH  12  16
ENDBRANCH  11  12
ENDBRANCH   1  11
BRANCH   6  23
ATOM     23  C   UNL     1       2.843   4.408  17.155  0.00  0.00    +0.000 C 
BRANCH  23  24
ATOM     24  C   UNL     1       2.275   3.880  18.454  0.00  0.00    +0.000 A 
ATOM     25  C   UNL     1       1.875   4.766  19.468  0.00  0.00    +0.000 A 
ATOM     26  C   UNL     1       1.284   4.289  20.640  0.00  0.00    +0.000 A 
ATOM     27  C   UNL     1       1.085   2.921  20.813  0.00  0.00    +0.000 A 
ATOM     28  C   UNL     1       1.490   2.030  19.821  0.00  0.00    +0.000 A 
ATOM     29  C   UNL     1       2.084   2.506  18.648  0.00  0.00    +0.000 A 
ENDBRANCH  23  24
ENDBRANCH   6  23
TORSDOF 8
ENDMDL
MODEL 6
REMARK VINA RESULT:      -7.6      7.956     11.123
REMARK  Name = 
REMARK  10 active torsions:
REMARK  status: ('A' for Active; 'I' for Inactive)
REMARK    1  A    between atoms: C_1  and  O_2
REMARK    2  A    between atoms: O_2  and  C_3
REMARK    3  A    between atoms: C_6  and  C_7
REMARK    4  A    between atoms: C_7  and  C_8
REMARK    5  A    between atoms: C_8  and  N_9
REMARK    6  A    between atoms: C_10  and  S_11
REMARK    7  A    between atoms: C_15  and  C_16
REMARK    8  A    between atoms: C_16  and  C_17
REMARK    9  A    between atoms: C_26  and  O_27
REMARK   10  A    between atoms: O_27  and  C_28
REMARK                            x       y       z     vdW  Elec       q    Type
REMARK                         _______ _______ _______ _____ _____    ______ ____
ROOT
ATOM      1  N   UNL     1       1.565  10.014  18.122  0.00  0.00    +0.000 NA
ATOM      2  C   UNL     1       1.146  10.549  19.218  0.00  0.00    +0.000 C 
ATOM      3  N   UNL     1       1.038  11.923  19.383  0.00  0.00    +0.000 N 
ATOM      4  C   UNL     1       1.149  12.610  20.673  0.00  0.00    +0.000 C 
ATOM      5  C   UNL     1      -0.128  13.408  20.914  0.00  0.00    +0.000 C 
ATOM      6  C   UNL     1      -0.336  14.458  19.809  0.00  0.00    +0.000 C 
ATOM      7  C   UNL     1      -0.318  13.740  18.439  0.00  0.00    +0.000 C 
ATOM      8  C   UNL     1       0.903  12.825  18.237  0.00  0.00    +0.000 C 
ENDROOT
BRANCH   2   9
ATOM      9  S   UNL     1       0.619   9.586  20.627  0.00  0.00    +0.000 S 
ATOM     10  H   UNL     1      -0.660   9.398  20.309  0.00  0.00    +0.000 HD
ENDBRANCH   2   9
BRANCH   1  11
ATOM     11  C   UNL     1       1.699   8.565  17.983  0.00  0.00    +0.000 C 
BRANCH  11  12
ATOM     12  C   UNL     1       3.152   8.155  17.724  0.00  0.00    +0.000 C 
BRANCH  12  16
ATOM     13  C   UNL     1       3.444   3.828  17.632  0.00  0.00    +0.000 A 
ATOM     14  C   UNL     1       2.328   4.463  18.206  0.00  0.00    +0.000 A 
ATOM     15  C   UNL     1       2.233   5.856  18.255  0.00  0.00    +0.000 A 
ATOM     16  C   UNL     1       3.282   6.649  17.786  0.00  0.00    +0.000 A 
ATOM     17  C   UNL     1       4.431   6.010  17.298  0.00  0.00    +0.000 A 
ATOM     18  C   UNL     1       4.532   4.610  17.220  0.00  0.00    +0.000 A 
BRANCH  13  20
ATOM     19  C   UNL     1       3.416   1.715  18.701  0.00  0.00    +0.000 C 
ATOM     20  O   UNL     1       3.480   2.466  17.488  0.00  0.00    +0.000 OA
ENDBRANCH  13  20
BRANCH  18  21
ATOM     21  O   UNL     1       5.735   4.219  16.694  0.00  0.00    +0.000 OA
ATOM     22  C   UNL     1       5.903   4.171  15.286  0.00  0.00    +0.000 C 
ENDBRANCH  18  21
ENDBRANCH  12  16
ENDBRANCH  11  12
ENDBRANCH   1  11
BRANCH   6  23
ATOM     23  C   UNL     1       0.703  15.603  19.851  0.00  0.00    +0.000 C 
BRANCH  23  24
ATOM     24  C   UNL     1       0.661  16.567  18.686  0.00  0.00    +0.000 A 
ATOM     25  C   UNL     1      -0.542  17.196  18.326  0.00  0.00    +0.000 A 
ATOM     26  C   UNL     1      -0.574  18.141  17.298  0.00  0.00    +0.000 A 
ATOM     27  C   UNL     1       0.597  18.469  16.618  0.00  0.00    +0.000 A 
ATOM     28  C   UNL     1       1.795  17.843  16.956  0.00  0.00    +0.000 A 
ATOM     29  C   UNL     1       1.828  16.894  17.983  0.00  0.00    +0.000 A 
ENDBRANCH  23  24
ENDBRANCH   6  23
TORSDOF 8
ENDMDL
MODEL 7
REMARK VINA RESULT:      -7.5      5.710      8.545
REMARK  Name = 
REMARK  10 active torsions:
REMARK  status: ('A' for Active; 'I' for Inactive)
REMARK    1  A    between atoms: C_1  and  O_2
REMARK    2  A    between atoms: O_2  and  C_3
REMARK    3  A    between atoms: C_6  and  C_7
REMARK    4  A    between atoms: C_7  and  C_8
REMARK    5  A    between atoms: C_8  and  N_9
REMARK    6  A    between atoms: C_10  and  S_11
REMARK    7  A    between atoms: C_15  and  C_16
REMARK    8  A    between atoms: C_16  and  C_17
REMARK    9  A    between atoms: C_26  and  O_27
REMARK   10  A    between atoms: O_27  and  C_28
REMARK                            x       y       z     vdW  Elec       q    Type
REMARK                         _______ _______ _______ _____ _____    ______ ____
ROOT
ATOM      1  N   UNL     1       3.365   6.367  19.119  0.00  0.00    +0.000 NA
ATOM      2  C   UNL     1       2.376   6.542  19.928  0.00  0.00    +0.000 C 
ATOM      3  N   UNL     1       1.808   7.789  20.151  0.00  0.00    +0.000 N 
ATOM      4  C   UNL     1       1.143   8.181  21.396  0.00  0.00    +0.000 C 
ATOM      5  C   UNL     1      -0.285   8.610  21.074  0.00  0.00    +0.000 C 
ATOM      6  C   UNL     1      -0.294   9.807  20.109  0.00  0.00    +0.000 C 
ATOM      7  C   UNL     1       0.526   9.432  18.851  0.00  0.00    +0.000 C 
ATOM      8  C   UNL     1       1.923   8.871  19.170  0.00  0.00    +0.000 C 
ENDROOT
BRANCH   2   9
ATOM      9  S   UNL     1       1.602   5.201  20.818  0.00  0.00    +0.000 S 
ATOM     10  H   UNL     1       1.984   4.175  20.059  0.00  0.00    +0.000 HD
ENDBRANCH   2   9
BRANCH   1  11
ATOM     11  C   UNL     1       3.967   5.049  18.924  0.00  0.00    +0.000 C 
BRANCH  11  12
ATOM     12  C   UNL     1       3.641   4.478  17.540  0.00  0.00    +0.000 C 
BRANCH  12  16
ATOM     13  C   UNL     1       6.942   5.155  14.809  0.00  0.00    +0.000 A 
ATOM     14  C   UNL     1       5.952   4.198  14.521  0.00  0.00    +0.000 A 
ATOM     15  C   UNL     1       4.895   3.962  15.401  0.00  0.00    +0.000 A 
ATOM     16  C   UNL     1       4.835   4.633  16.624  0.00  0.00    +0.000 A 
ATOM     17  C   UNL     1       5.872   5.520  16.947  0.00  0.00    +0.000 A 
ATOM     18  C   UNL     1       6.931   5.787  16.060  0.00  0.00    +0.000 A 
BRANCH  13  20
ATOM     19  C   UNL     1       7.687   4.970  12.568  0.00  0.00    +0.000 C 
ATOM     20  O   UNL     1       7.912   5.460  13.892  0.00  0.00    +0.000 OA
ENDBRANCH  13  20
BRANCH  18  21
ATOM     21  O   UNL     1       7.810   6.697  16.584  0.00  0.00    +0.000 OA
ATOM     22  C   UNL     1       7.392   7.553  17.634  0.00  0.00    +0.000 C 
ENDBRANCH  18  21
ENDBRANCH  12  16
ENDBRANCH  11  12
ENDBRANCH   1  11
BRANCH   6  23
ATOM     23  C   UNL     1       0.235  11.112  20.748  0.00  0.00    +0.000 C 
BRANCH  23  24
ATOM     24  C   UNL     1      -0.808  11.991  21.401  0.00  0.00    +0.000 A 
ATOM     25  C   UNL     1      -1.466  12.985  20.658  0.00  0.00    +0.000 A 
ATOM     26  C   UNL     1      -2.481  13.752  21.235  0.00  0.00    +0.000 A 
ATOM     27  C   UNL     1      -2.850  13.536  22.560  0.00  0.00    +0.000 A 
ATOM     28  C   UNL     1      -2.196  12.562  23.313  0.00  0.00    +0.000 A 
ATOM     29  C   UNL     1      -1.178  11.795  22.738  0.00  0.00    +0.000 A 
ENDBRANCH  23  24
ENDBRANCH   6  23
TORSDOF 8
ENDMDL
MODEL 8
REMARK VINA RESULT:      -7.5      6.328      8.920
REMARK  Name = 
REMARK  10 active torsions:
REMARK  status: ('A' for Active; 'I' for Inactive)
REMARK    1  A    between atoms: C_1  and  O_2
REMARK    2  A    between atoms: O_2  and  C_3
REMARK    3  A    between atoms: C_6  and  C_7
REMARK    4  A    between atoms: C_7  and  C_8
REMARK    5  A    between atoms: C_8  and  N_9
REMARK    6  A    between atoms: C_10  and  S_11
REMARK    7  A    between atoms: C_15  and  C_16
REMARK    8  A    between atoms: C_16  and  C_17
REMARK    9  A    between atoms: C_26  and  O_27
REMARK   10  A    between atoms: O_27  and  C_28
REMARK                            x       y       z     vdW  Elec       q    Type
REMARK                         _______ _______ _______ _____ _____    ______ ____
ROOT
ATOM      1  N   UNL     1       1.989   6.731  19.729  0.00  0.00    +0.000 NA
ATOM      2  C   UNL     1       1.681   7.951  19.449  0.00  0.00    +0.000 C 
ATOM      3  N   UNL     1       0.904   8.737  20.289  0.00  0.00    +0.000 N 
ATOM      4  C   UNL     1       0.051   9.838  19.834  0.00  0.00    +0.000 C 
ATOM      5  C   UNL     1       0.477  11.115  20.552  0.00  0.00    +0.000 C 
ATOM      6  C   UNL     1       0.325  10.966  22.074  0.00  0.00    +0.000 C 
ATOM      7  C   UNL     1       1.120   9.719  22.529  0.00  0.00    +0.000 C 
ATOM      8  C   UNL     1       0.795   8.451  21.722  0.00  0.00    +0.000 C 
ENDROOT
BRANCH   2   9
ATOM      9  S   UNL     1       2.252   8.780  17.973  0.00  0.00    +0.000 S 
ATOM     10  H   UNL     1       3.145   9.610  18.510  0.00  0.00    +0.000 HD
ENDBRANCH   2   9
BRANCH   1  11
ATOM     11  C   UNL     1       2.783   5.914  18.813  0.00  0.00    +0.000 C 
BRANCH  11  12
ATOM     12  C   UNL     1       4.141   5.544  19.418  0.00  0.00    +0.000 C 
BRANCH  12  16
ATOM     13  C   UNL     1       6.927   5.305  16.102  0.00  0.00    +0.000 A 
ATOM     14  C   UNL     1       6.167   4.186  16.488  0.00  0.00    +0.000 A 
ATOM     15  C   UNL     1       5.279   4.249  17.564  0.00  0.00    +0.000 A 
ATOM     16  C   UNL     1       5.176   5.417  18.322  0.00  0.00    +0.000 A 
ATOM     17  C   UNL     1       6.002   6.500  17.990  0.00  0.00    +0.000 A 
ATOM     18  C   UNL     1       6.882   6.461  16.895  0.00  0.00    +0.000 A 
BRANCH  13  20
ATOM     19  C   UNL     1       7.075   4.778  13.798  0.00  0.00    +0.000 C 
ATOM     20  O   UNL     1       7.711   5.269  14.980  0.00  0.00    +0.000 OA
ENDBRANCH  13  20
BRANCH  18  21
ATOM     21  O   UNL     1       7.568   7.638  16.756  0.00  0.00    +0.000 OA
ATOM     22  C   UNL     1       8.106   8.276  17.903  0.00  0.00    +0.000 C 
ENDBRANCH  18  21
ENDBRANCH  12  16
ENDBRANCH  11  12
ENDBRANCH   1  11
BRANCH   6  23
ATOM     23  C   UNL     1      -1.149  10.884  22.536  0.00  0.00    +0.000 C 
BRANCH  23  24
ATOM     24  C   UNL     1      -1.749  12.176  23.043  0.00  0.00    +0.000 A 
ATOM     25  C   UNL     1      -1.036  13.381  22.939  0.00  0.00    +0.000 A 
ATOM     26  C   UNL     1      -1.612  14.589  23.339  0.00  0.00    +0.000 A 
ATOM     27  C   UNL     1      -2.908  14.607  23.849  0.00  0.00    +0.000 A 
ATOM     28  C   UNL     1      -3.622  13.417  23.971  0.00  0.00    +0.000 A 
ATOM     29  C   UNL     1      -3.046  12.206  23.573  0.00  0.00    +0.000 A 
ENDBRANCH  23  24
ENDBRANCH   6  23
TORSDOF 8
ENDMDL
MODEL 9
REMARK VINA RESULT:      -7.5      8.033     11.156
REMARK  Name = 
REMARK  10 active torsions:
REMARK  status: ('A' for Active; 'I' for Inactive)
REMARK    1  A    between atoms: C_1  and  O_2
REMARK    2  A    between atoms: O_2  and  C_3
REMARK    3  A    between atoms: C_6  and  C_7
REMARK    4  A    between atoms: C_7  and  C_8
REMARK    5  A    between atoms: C_8  and  N_9
REMARK    6  A    between atoms: C_10  and  S_11
REMARK    7  A    between atoms: C_15  and  C_16
REMARK    8  A    between atoms: C_16  and  C_17
REMARK    9  A    between atoms: C_26  and  O_27
REMARK   10  A    between atoms: O_27  and  C_28
REMARK                            x       y       z     vdW  Elec       q    Type
REMARK                         _______ _______ _______ _____ _____    ______ ____
ROOT
ATOM      1  N   UNL     1       1.593   9.878  19.036  0.00  0.00    +0.000 NA
ATOM      2  C   UNL     1       0.863  10.518  19.885  0.00  0.00    +0.000 C 
ATOM      3  N   UNL     1       0.724  11.898  19.857  0.00  0.00    +0.000 N 
ATOM      4  C   UNL     1       0.441  12.723  21.035  0.00  0.00    +0.000 C 
ATOM      5  C   UNL     1      -0.840  13.512  20.783  0.00  0.00    +0.000 C 
ATOM      6  C   UNL     1      -0.688  14.430  19.559  0.00  0.00    +0.000 C 
ATOM      7  C   UNL     1      -0.256  13.569  18.348  0.00  0.00    +0.000 C 
ATOM      8  C   UNL     1       0.958  12.668  18.632  0.00  0.00    +0.000 C 
ENDROOT
BRANCH   2   9
ATOM      9  S   UNL     1      -0.081   9.700  21.162  0.00  0.00    +0.000 S 
ATOM     10  H   UNL     1      -1.269  10.270  20.967  0.00  0.00    +0.000 HD
ENDBRANCH   2   9
BRANCH   1  11
ATOM     11  C   UNL     1       1.749   8.425  19.105  0.00  0.00    +0.000 C 
BRANCH  11  12
ATOM     12  C   UNL     1       2.654   7.901  17.986  0.00  0.00    +0.000 C 
BRANCH  12  16
ATOM     13  C   UNL     1       3.594   3.682  18.347  0.00  0.00    +0.000 A 
ATOM     14  C   UNL     1       2.294   4.105  18.018  0.00  0.00    +0.000 A 
ATOM     15  C   UNL     1       1.978   5.461  17.915  0.00  0.00    +0.000 A 
ATOM     16  C   UNL     1       2.941   6.431  18.202  0.00  0.00    +0.000 A 
ATOM     17  C   UNL     1       4.210   6.005  18.618  0.00  0.00    +0.000 A 
ATOM     18  C   UNL     1       4.551   4.643  18.702  0.00  0.00    +0.000 A 
BRANCH  13  20
ATOM     19  C   UNL     1       4.111   1.753  19.621  0.00  0.00    +0.000 C 
ATOM     20  O   UNL     1       3.924   2.352  18.337  0.00  0.00    +0.000 OA
ENDBRANCH  13  20
BRANCH  18  21
ATOM     21  O   UNL     1       5.847   4.472  19.111  0.00  0.00    +0.000 OA
ATOM     22  C   UNL     1       6.770   5.542  18.986  0.00  0.00    +0.000 C 
ENDBRANCH  18  21
ENDBRANCH  12  16
ENDBRANCH  11  12
ENDBRANCH   1  11
BRANCH   6  23
ATOM     23  C   UNL     1       0.300  15.598  19.791  0.00  0.00    +0.000 C 
BRANCH  23  24
ATOM     24  C   UNL     1       0.454  16.564  18.638  0.00  0.00    +0.000 A 
ATOM     25  C   UNL     1      -0.661  17.255  18.135  0.00  0.00    +0.000 A 
ATOM     26  C   UNL     1      -0.515  18.202  17.118  0.00  0.00    +0.000 A 
ATOM     27  C   UNL     1       0.746  18.469  16.592  0.00  0.00    +0.000 A 
ATOM     28  C   UNL     1       1.859  17.781  17.072  0.00  0.00    +0.000 A 
ATOM     29  C   UNL     1       1.714  16.831  18.088  0.00  0.00    +0.000 A 
ENDBRANCH  23  24
ENDBRANCH   6  23
TORSDOF 8
ENDMDL
