MODEL 1
REMARK VINA RESULT:      -7.7      0.000      0.000
REMARK  Name = 
REMARK  9 active torsions:
REMARK  status: ('A' for Active; 'I' for Inactive)
REMARK    1  A    between atoms: C_1  and  O_2
REMARK    2  A    between atoms: O_2  and  C_3
REMARK    3  A    between atoms: C_7  and  C_8
REMARK    4  A    between atoms: C_14  and  C_15
REMARK    5  A    between atoms: C_15  and  O_17
REMARK    6  A    between atoms: C_18  and  C_19
REMARK    7  A    between atoms: C_19  and  O_20
REMARK    8  A    between atoms: O_20  and  C_21
REMARK    9  A    between atoms: C_21  and  C_22
REMARK                            x       y       z     vdW  Elec       q    Type
REMARK                         _______ _______ _______ _____ _____    ______ ____
ROOT
ATOM      1  C   UNL     1       6.662   5.211  15.831  0.00  0.00    +0.000 C 
ATOM      2  C   UNL     1       5.879   3.827  15.927  0.00  0.00    +0.000 C 
ATOM      3  O   UNL     1       5.602   2.908  15.196  0.00  0.00    +0.000 OA
ATOM      4  N   UNL     1       5.689   4.039  17.289  0.00  0.00    +0.000 N 
ATOM      5  C   UNL     1       4.480   4.679  17.651  0.00  0.00    +0.000 C 
ATOM      6  C   UNL     1       4.384   6.008  17.908  0.00  0.00    +0.000 C 
ATOM      7  C   UNL     1       5.545   6.885  18.316  0.00  0.00    +0.000 C 
ATOM      8  S   UNL     1       6.999   5.945  18.618  0.00  0.00    +0.000 S 
ATOM      9  O   UNL     1       6.788   5.230  19.869  0.00  0.00    +0.000 OA
ATOM     10  O   UNL     1       8.122   6.854  18.489  0.00  0.00    +0.000 OA
ATOM     11  C   UNL     1       6.993   4.816  17.283  0.00  0.00    +0.000 C 
ENDROOT
BRANCH   5  12
ATOM     12  C   UNL     1       3.233   3.820  17.477  0.00  0.00    +0.000 C 
ATOM     13  O   UNL     1       2.826   3.563  16.349  0.00  0.00    +0.000 OA
ATOM     14  N   UNL     1       2.632   3.278  18.599  0.00  0.00    +0.000 N 
ATOM     15  C   UNL     1       1.448   2.440  18.456  0.00  0.00    +0.000 C 
ATOM     16  C   UNL     1       0.521   2.942  19.543  0.00  0.00    +0.000 C 
ATOM     17  C   UNL     1       1.449   3.434  20.658  0.00  0.00    +0.000 C 
ATOM     18  C   UNL     1       2.851   3.546  20.033  0.00  0.00    +0.000 C 
BRANCH  18  19
ATOM     19  C   UNL     1       3.843   2.591  20.691  0.00  0.00    +0.000 C 
ATOM     20  O   UNL     1       4.917   2.290  20.184  0.00  0.00    +0.000 OA
BRANCH  19  21
ATOM     21  O   UNL     1       3.425   2.084  21.871  0.00  0.00    +0.000 OA
ATOM     22  H   UNL     1       2.921   2.745  22.388  0.00  0.00    +0.000 HD
ENDBRANCH  19  21
ENDBRANCH  18  19
ENDBRANCH   5  12
BRANCH   1  24
ATOM     23  C   UNL     1       7.309   5.000  13.509  0.00  0.00    +0.000 C 
ATOM     24  O   UNL     1       7.723   5.257  14.850  0.00  0.00    +0.000 OA
ENDBRANCH   1  24
BRANCH   6  25
ATOM     25  C   UNL     1       3.103   6.809  17.788  0.00  0.00    +0.000 C 
BRANCH  25  26
ATOM     26  O   UNL     1       2.594   7.097  19.100  0.00  0.00    +0.000 OA
BRANCH  26  27
ATOM     27  C   UNL     1       1.886   8.247  19.235  0.00  0.00    +0.000 C 
ATOM     28  C   UNL     1       1.803   8.963  17.925  0.00  0.00    +0.000 C 
ATOM     29  O   UNL     1       1.358   8.629  20.269  0.00  0.00    +0.000 OA
ENDBRANCH  26  27
ENDBRANCH  25  26
ENDBRANCH   6  25
TORSDOF 7
ENDMDL
MODEL 2
REMARK VINA RESULT:      -7.5      0.891      1.076
REMARK  Name = 
REMARK  9 active torsions:
REMARK  status: ('A' for Active; 'I' for Inactive)
REMARK    1  A    between atoms: C_1  and  O_2
REMARK    2  A    between atoms: O_2  and  C_3
REMARK    3  A    between atoms: C_7  and  C_8
REMARK    4  A    between atoms: C_14  and  C_15
REMARK    5  A    between atoms: C_15  and  O_17
REMARK    6  A    between atoms: C_18  and  C_19
REMARK    7  A    between atoms: C_19  and  O_20
REMARK    8  A    between atoms: O_20  and  C_21
REMARK    9  A    between atoms: C_21  and  C_22
REMARK                            x       y       z     vdW  Elec       q    Type
REMARK                         _______ _______ _______ _____ _____    ______ ____
ROOT
ATOM      1  C   UNL     1       6.560   5.148  15.834  0.00  0.00    +0.000 C 
ATOM      2  C   UNL     1       5.785   3.767  16.001  0.00  0.00    +0.000 C 
ATOM      3  O   UNL     1       5.486   2.824  15.309  0.00  0.00    +0.000 OA
ATOM      4  N   UNL     1       5.640   4.022  17.360  0.00  0.00    +0.000 N 
ATOM      5  C   UNL     1       4.441   4.671  17.742  0.00  0.00    +0.000 C 
ATOM      6  C   UNL     1       4.350   6.007  17.959  0.00  0.00    +0.000 C 
ATOM      7  C   UNL     1       5.522   6.899  18.300  0.00  0.00    +0.000 C 
ATOM      8  S   UNL     1       6.987   5.973  18.583  0.00  0.00    +0.000 S 
ATOM      9  O   UNL     1       6.820   5.298  19.863  0.00  0.00    +0.000 OA
ATOM     10  O   UNL     1       8.103   6.879  18.388  0.00  0.00    +0.000 OA
ATOM     11  C   UNL     1       6.940   4.801  17.286  0.00  0.00    +0.000 C 
ENDROOT
BRANCH   5  12
ATOM     12  C   UNL     1       3.193   3.805  17.637  0.00  0.00    +0.000 C 
ATOM     13  O   UNL     1       2.555   3.782  16.589  0.00  0.00    +0.000 OA
ATOM     14  N   UNL     1       2.849   2.994  18.704  0.00  0.00    +0.000 N 
ATOM     15  C   UNL     1       1.668   2.144  18.620  0.00  0.00    +0.000 C 
ATOM     16  C   UNL     1       0.991   2.339  19.961  0.00  0.00    +0.000 C 
ATOM     17  C   UNL     1       2.133   2.621  20.943  0.00  0.00    +0.000 C 
ATOM     18  C   UNL     1       3.368   2.948  20.084  0.00  0.00    +0.000 C 
BRANCH  18  19
ATOM     19  C   UNL     1       4.484   1.926  20.286  0.00  0.00    +0.000 C 
ATOM     20  O   UNL     1       5.153   1.861  21.310  0.00  0.00    +0.000 OA
BRANCH  19  21
ATOM     21  O   UNL     1       4.689   1.113  19.227  0.00  0.00    +0.000 OA
ATOM     22  H   UNL     1       5.356   1.481  18.613  0.00  0.00    +0.000 HD
ENDBRANCH  19  21
ENDBRANCH  18  19
ENDBRANCH   5  12
BRANCH   1  24
ATOM     23  C   UNL     1       7.124   4.897  13.495  0.00  0.00    +0.000 C 
ATOM     24  O   UNL     1       7.588   5.165  14.818  0.00  0.00    +0.000 OA
ENDBRANCH   1  24
BRANCH   6  25
ATOM     25  C   UNL     1       3.064   6.802  17.856  0.00  0.00    +0.000 C 
BRANCH  25  26
ATOM     26  O   UNL     1       2.919   7.632  19.020  0.00  0.00    +0.000 OA
BRANCH  26  27
ATOM     27  C   UNL     1       2.061   7.192  19.974  0.00  0.00    +0.000 C 
ATOM     28  C   UNL     1       1.389   8.349  20.642  0.00  0.00    +0.000 C 
ATOM     29  O   UNL     1       1.835   6.018  20.228  0.00  0.00    +0.000 OA
ENDBRANCH  26  27
ENDBRANCH  25  26
ENDBRANCH   6  25
TORSDOF 7
ENDMDL
MODEL 3
REMARK VINA RESULT:      -7.0      0.977      1.156
REMARK  Name = 
REMARK  9 active torsions:
REMARK  status: ('A' for Active; 'I' for Inactive)
REMARK    1  A    between atoms: C_1  and  O_2
REMARK    2  A    between atoms: O_2  and  C_3
REMARK    3  A    between atoms: C_7  and  C_8
REMARK    4  A    between atoms: C_14  and  C_15
REMARK    5  A    between atoms: C_15  and  O_17
REMARK    6  A    between atoms: C_18  and  C_19
REMARK    7  A    between atoms: C_19  and  O_20
REMARK    8  A    between atoms: O_20  and  C_21
REMARK    9  A    between atoms: C_21  and  C_22
REMARK                            x       y       z     vdW  Elec       q    Type
REMARK                         _______ _______ _______ _____ _____    ______ ____
ROOT
ATOM      1  C   UNL     1       6.145   5.399  15.750  0.00  0.00    +0.000 C 
ATOM      2  C   UNL     1       5.405   3.996  15.888  0.00  0.00    +0.000 C 
ATOM      3  O   UNL     1       5.039   3.106  15.159  0.00  0.00    +0.000 OA
ATOM      4  N   UNL     1       5.409   4.139  17.272  0.00  0.00    +0.000 N 
ATOM      5  C   UNL     1       4.255   4.734  17.834  0.00  0.00    +0.000 C 
ATOM      6  C   UNL     1       4.176   6.047  18.168  0.00  0.00    +0.000 C 
ATOM      7  C   UNL     1       5.371   6.930  18.450  0.00  0.00    +0.000 C 
ATOM      8  S   UNL     1       6.867   6.009  18.494  0.00  0.00    +0.000 S 
ATOM      9  O   UNL     1       6.849   5.231  19.725  0.00  0.00    +0.000 OA
ATOM     10  O   UNL     1       7.946   6.948  18.252  0.00  0.00    +0.000 OA
ATOM     11  C   UNL     1       6.687   4.944  17.119  0.00  0.00    +0.000 C 
ENDROOT
BRANCH   5  12
ATOM     12  C   UNL     1       3.009   3.857  17.797  0.00  0.00    +0.000 C 
ATOM     13  O   UNL     1       2.313   3.834  16.787  0.00  0.00    +0.000 OA
ATOM     14  N   UNL     1       2.735   3.039  18.879  0.00  0.00    +0.000 N 
ATOM     15  C   UNL     1       1.558   2.179  18.859  0.00  0.00    +0.000 C 
ATOM     16  C   UNL     1       0.958   2.363  20.237  0.00  0.00    +0.000 C 
ATOM     17  C   UNL     1       2.151   2.651  21.152  0.00  0.00    +0.000 C 
ATOM     18  C   UNL     1       3.332   2.992  20.226  0.00  0.00    +0.000 C 
BRANCH  18  19
ATOM     19  C   UNL     1       4.466   1.980  20.359  0.00  0.00    +0.000 C 
ATOM     20  O   UNL     1       5.111   1.830  21.390  0.00  0.00    +0.000 OA
BRANCH  19  21
ATOM     21  O   UNL     1       4.717   1.277  19.233  0.00  0.00    +0.000 OA
ATOM     22  H   UNL     1       3.932   0.769  18.943  0.00  0.00    +0.000 HD
ENDBRANCH  19  21
ENDBRANCH  18  19
ENDBRANCH   5  12
BRANCH   1  24
ATOM     23  C   UNL     1       6.908   4.503  13.637  0.00  0.00    +0.000 C 
ATOM     24  O   UNL     1       7.053   5.515  14.632  0.00  0.00    +0.000 OA
ENDBRANCH   1  24
BRANCH   6  25
ATOM     25  C   UNL     1       2.880   6.825  18.272  0.00  0.00    +0.000 C 
BRANCH  25  26
ATOM     26  O   UNL     1       3.007   8.064  17.558  0.00  0.00    +0.000 OA
BRANCH  26  27
ATOM     27  C   UNL     1       2.244   9.097  17.997  0.00  0.00    +0.000 C 
ATOM     28  C   UNL     1       1.520   8.712  19.248  0.00  0.00    +0.000 C 
ATOM     29  O   UNL     1       2.183  10.198  17.471  0.00  0.00    +0.000 OA
ENDBRANCH  26  27
ENDBRANCH  25  26
ENDBRANCH   6  25
TORSDOF 7
ENDMDL
MODEL 4
REMARK VINA RESULT:      -7.0      0.956      1.050
REMARK  Name = 
REMARK  9 active torsions:
REMARK  status: ('A' for Active; 'I' for Inactive)
REMARK    1  A    between atoms: C_1  and  O_2
REMARK    2  A    between atoms: O_2  and  C_3
REMARK    3  A    between atoms: C_7  and  C_8
REMARK    4  A    between atoms: C_14  and  C_15
REMARK    5  A    between atoms: C_15  and  O_17
REMARK    6  A    between atoms: C_18  and  C_19
REMARK    7  A    between atoms: C_19  and  O_20
REMARK    8  A    between atoms: O_20  and  C_21
REMARK    9  A    between atoms: C_21  and  C_22
REMARK                            x       y       z     vdW  Elec       q    Type
REMARK                         _______ _______ _______ _____ _____    ______ ____
ROOT
ATOM      1  C   UNL     1       5.973   4.714  15.893  0.00  0.00    +0.000 C 
ATOM      2  C   UNL     1       5.026   3.559  16.444  0.00  0.00    +0.000 C 
ATOM      3  O   UNL     1       4.500   2.559  16.018  0.00  0.00    +0.000 OA
ATOM      4  N   UNL     1       5.097   4.118  17.715  0.00  0.00    +0.000 N 
ATOM      5  C   UNL     1       4.071   5.034  18.046  0.00  0.00    +0.000 C 
ATOM      6  C   UNL     1       4.212   6.381  17.957  0.00  0.00    +0.000 C 
ATOM      7  C   UNL     1       5.540   7.103  17.974  0.00  0.00    +0.000 C 
ATOM      8  S   UNL     1       6.872   6.013  18.326  0.00  0.00    +0.000 S 
ATOM      9  O   UNL     1       6.771   5.665  19.737  0.00  0.00    +0.000 OA
ATOM     10  O   UNL     1       8.077   6.647  17.826  0.00  0.00    +0.000 OA
ATOM     11  C   UNL     1       6.481   4.621  17.344  0.00  0.00    +0.000 C 
ENDROOT
BRANCH   5  12
ATOM     12  C   UNL     1       2.702   4.400  18.259  0.00  0.00    +0.000 C 
ATOM     13  O   UNL     1       1.792   4.641  17.472  0.00  0.00    +0.000 OA
ATOM     14  N   UNL     1       2.537   3.495  19.293  0.00  0.00    +0.000 N 
ATOM     15  C   UNL     1       1.241   2.863  19.506  0.00  0.00    +0.000 C 
ATOM     16  C   UNL     1       1.044   2.949  21.005  0.00  0.00    +0.000 C 
ATOM     17  C   UNL     1       2.457   2.893  21.594  0.00  0.00    +0.000 C 
ATOM     18  C   UNL     1       3.421   3.154  20.423  0.00  0.00    +0.000 C 
BRANCH  18  19
ATOM     19  C   UNL     1       4.323   1.952  20.155  0.00  0.00    +0.000 C 
ATOM     20  O   UNL     1       4.234   1.262  19.147  0.00  0.00    +0.000 OA
BRANCH  19  21
ATOM     21  O   UNL     1       5.215   1.698  21.137  0.00  0.00    +0.000 OA
ATOM     22  H   UNL     1       6.044   1.320  20.781  0.00  0.00    +0.000 HD
ENDBRANCH  19  21
ENDBRANCH  18  19
ENDBRANCH   5  12
BRANCH   1  24
ATOM     23  C   UNL     1       6.185   3.936  13.612  0.00  0.00    +0.000 C 
ATOM     24  O   UNL     1       6.851   4.334  14.810  0.00  0.00    +0.000 OA
ENDBRANCH   1  24
BRANCH   6  25
ATOM     25  C   UNL     1       3.059   7.350  17.793  0.00  0.00    +0.000 C 
BRANCH  25  26
ATOM     26  O   UNL     1       2.482   7.631  19.078  0.00  0.00    +0.000 OA
BRANCH  26  27
ATOM     27  C   UNL     1       1.685   8.726  19.157  0.00  0.00    +0.000 C 
ATOM     28  C   UNL     1       1.615   9.415  17.832  0.00  0.00    +0.000 C 
ATOM     29  O   UNL     1       1.078   9.082  20.157  0.00  0.00    +0.000 OA
ENDBRANCH  26  27
ENDBRANCH  25  26
ENDBRANCH   6  25
TORSDOF 7
ENDMDL
MODEL 5
REMARK VINA RESULT:      -6.7      1.999      5.759
REMARK  Name = 
REMARK  9 active torsions:
REMARK  status: ('A' for Active; 'I' for Inactive)
REMARK    1  A    between atoms: C_1  and  O_2
REMARK    2  A    between atoms: O_2  and  C_3
REMARK    3  A    between atoms: C_7  and  C_8
REMARK    4  A    between atoms: C_14  and  C_15
REMARK    5  A    between atoms: C_15  and  O_17
REMARK    6  A    between atoms: C_18  and  C_19
REMARK    7  A    between atoms: C_19  and  O_20
REMARK    8  A    between atoms: O_20  and  C_21
REMARK    9  A    between atoms: C_21  and  C_22
REMARK                            x       y       z     vdW  Elec       q    Type
REMARK                         _______ _______ _______ _____ _____    ______ ____
ROOT
ATOM      1  C   UNL     1       2.708   2.666  20.858  0.00  0.00    +0.000 C 
ATOM      2  C   UNL     1       4.262   2.533  20.537  0.00  0.00    +0.000 C 
ATOM      3  O   UNL     1       5.264   2.183  21.113  0.00  0.00    +0.000 OA
ATOM      4  N   UNL     1       4.016   2.916  19.223  0.00  0.00    +0.000 N 
ATOM      5  C   UNL     1       4.140   4.299  18.950  0.00  0.00    +0.000 C 
ATOM      6  C   UNL     1       3.084   5.150  18.901  0.00  0.00    +0.000 C 
ATOM      7  C   UNL     1       1.655   4.725  18.650  0.00  0.00    +0.000 C 
ATOM      8  S   UNL     1       1.545   3.024  18.225  0.00  0.00    +0.000 S 
ATOM      9  O   UNL     1       2.075   2.890  16.875  0.00  0.00    +0.000 OA
ATOM     10  O   UNL     1       0.184   2.607  18.508  0.00  0.00    +0.000 OA
ATOM     11  C   UNL     1       2.642   2.285  19.367  0.00  0.00    +0.000 C 
ENDROOT
BRANCH   5  12
ATOM     12  C   UNL     1       5.570   4.822  18.972  0.00  0.00    +0.000 C 
ATOM     13  O   UNL     1       6.212   4.791  20.017  0.00  0.00    +0.000 OA
ATOM     14  N   UNL     1       6.146   5.247  17.787  0.00  0.00    +0.000 N 
ATOM     15  C   UNL     1       7.519   5.736  17.781  0.00  0.00    +0.000 C 
ATOM     16  C   UNL     1       7.450   6.982  16.924  0.00  0.00    +0.000 C 
ATOM     17  C   UNL     1       6.326   6.710  15.920  0.00  0.00    +0.000 C 
ATOM     18  C   UNL     1       5.548   5.498  16.463  0.00  0.00    +0.000 C 
BRANCH  18  19
ATOM     19  C   UNL     1       5.629   4.304  15.516  0.00  0.00    +0.000 C 
ATOM     20  O   UNL     1       5.573   4.412  14.297  0.00  0.00    +0.000 OA
BRANCH  19  21
ATOM     21  O   UNL     1       5.744   3.110  16.138  0.00  0.00    +0.000 OA
ATOM     22  H   UNL     1       4.977   2.532  15.954  0.00  0.00    +0.000 HD
ENDBRANCH  19  21
ENDBRANCH  18  19
ENDBRANCH   5  12
BRANCH   1  24
ATOM     23  C   UNL     1       1.004   2.174  22.503  0.00  0.00    +0.000 C 
ATOM     24  O   UNL     1       2.197   1.745  21.848  0.00  0.00    +0.000 OA
ENDBRANCH   1  24
BRANCH   6  25
ATOM     25  C   UNL     1       3.183   6.645  19.128  0.00  0.00    +0.000 C 
BRANCH  25  26
ATOM     26  O   UNL     1       2.685   7.339  17.973  0.00  0.00    +0.000 OA
BRANCH  26  27
ATOM     27  C   UNL     1       2.120   8.552  18.193  0.00  0.00    +0.000 C 
ATOM     28  C   UNL     1       1.574   8.627  19.583  0.00  0.00    +0.000 C 
ATOM     29  O   UNL     1       2.093   9.471  17.387  0.00  0.00    +0.000 OA
ENDBRANCH  26  27
ENDBRANCH  25  26
ENDBRANCH   6  25
TORSDOF 7
ENDMDL
MODEL 6
REMARK VINA RESULT:      -6.0      8.338     11.285
REMARK  Name = 
REMARK  9 active torsions:
REMARK  status: ('A' for Active; 'I' for Inactive)
REMARK    1  A    between atoms: C_1  and  O_2
REMARK    2  A    between atoms: O_2  and  C_3
REMARK    3  A    between atoms: C_7  and  C_8
REMARK    4  A    between atoms: C_14  and  C_15
REMARK    5  A    between atoms: C_15  and  O_17
REMARK    6  A    between atoms: C_18  and  C_19
REMARK    7  A    between atoms: C_19  and  O_20
REMARK    8  A    between atoms: O_20  and  C_21
REMARK    9  A    between atoms: C_21  and  C_22
REMARK                            x       y       z     vdW  Elec       q    Type
REMARK                         _______ _______ _______ _____ _____    ______ ____
ROOT
ATOM      1  C   UNL     1       1.000  13.286  20.015  0.00  0.00    +0.000 C 
ATOM      2  C   UNL     1      -0.162  14.230  19.473  0.00  0.00    +0.000 C 
ATOM      3  O   UNL     1      -0.277  15.366  19.083  0.00  0.00    +0.000 OA
ATOM      4  N   UNL     1      -1.049  13.161  19.538  0.00  0.00    +0.000 N 
ATOM      5  C   UNL     1      -1.787  13.043  20.739  0.00  0.00    +0.000 C 
ATOM      6  C   UNL     1      -1.442  12.209  21.752  0.00  0.00    +0.000 C 
ATOM      7  C   UNL     1      -0.567  10.986  21.591  0.00  0.00    +0.000 C 
ATOM      8  S   UNL     1      -0.215  10.654  19.902  0.00  0.00    +0.000 S 
ATOM      9  O   UNL     1      -1.443  10.148  19.305  0.00  0.00    +0.000 OA
ATOM     10  O   UNL     1       0.986   9.839  19.875  0.00  0.00    +0.000 OA
ATOM     11  C   UNL     1       0.135  12.248  19.276  0.00  0.00    +0.000 C 
ENDROOT
BRANCH   5  12
ATOM     12  C   UNL     1      -2.856  14.111  20.932  0.00  0.00    +0.000 C 
ATOM     13  O   UNL     1      -2.528  15.248  21.254  0.00  0.00    +0.000 OA
ATOM     14  N   UNL     1      -4.175  13.795  20.657  0.00  0.00    +0.000 N 
ATOM     15  C   UNL     1      -5.213  14.806  20.819  0.00  0.00    +0.000 C 
ATOM     16  C   UNL     1      -6.325  14.065  21.532  0.00  0.00    +0.000 C 
ATOM     17  C   UNL     1      -6.202  12.615  21.057  0.00  0.00    +0.000 C 
ATOM     18  C   UNL     1      -4.819  12.495  20.393  0.00  0.00    +0.000 C 
BRANCH  18  19
ATOM     19  C   UNL     1      -4.930  12.155  18.909  0.00  0.00    +0.000 C 
ATOM     20  O   UNL     1      -5.892  12.473  18.222  0.00  0.00    +0.000 OA
BRANCH  19  21
ATOM     21  O   UNL     1      -3.884  11.452  18.422  0.00  0.00    +0.000 OA
ATOM     22  H   UNL     1      -3.918  11.386  17.446  0.00  0.00    +0.000 HD
ENDBRANCH  19  21
ENDBRANCH  18  19
ENDBRANCH   5  12
BRANCH   1  24
ATOM     23  C   UNL     1       2.542  13.244  18.152  0.00  0.00    +0.000 C 
ATOM     24  O   UNL     1       2.325  13.585  19.520  0.00  0.00    +0.000 OA
ENDBRANCH   1  24
BRANCH   6  25
ATOM     25  C   UNL     1      -1.854  12.404  23.196  0.00  0.00    +0.000 C 
BRANCH  25  26
ATOM     26  O   UNL     1      -3.128  11.779  23.420  0.00  0.00    +0.000 OA
BRANCH  26  27
ATOM     27  C   UNL     1      -4.002  12.451  24.209  0.00  0.00    +0.000 C 
ATOM     28  C   UNL     1      -3.514  13.843  24.457  0.00  0.00    +0.000 C 
ATOM     29  O   UNL     1      -5.059  12.002  24.629  0.00  0.00    +0.000 OA
ENDBRANCH  26  27
ENDBRANCH  25  26
ENDBRANCH   6  25
TORSDOF 7
ENDMDL
MODEL 7
REMARK VINA RESULT:      -5.9      6.599     10.642
REMARK  Name = 
REMARK  9 active torsions:
REMARK  status: ('A' for Active; 'I' for Inactive)
REMARK    1  A    between atoms: C_1  and  O_2
REMARK    2  A    between atoms: O_2  and  C_3
REMARK    3  A    between atoms: C_7  and  C_8
REMARK    4  A    between atoms: C_14  and  C_15
REMARK    5  A    between atoms: C_15  and  O_17
REMARK    6  A    between atoms: C_18  and  C_19
REMARK    7  A    between atoms: C_19  and  O_20
REMARK    8  A    between atoms: O_20  and  C_21
REMARK    9  A    between atoms: C_21  and  C_22
REMARK                            x       y       z     vdW  Elec       q    Type
REMARK                         _______ _______ _______ _____ _____    ______ ____
ROOT
ATOM      1  C   UNL     1      -0.172   9.477  21.115  0.00  0.00    +0.000 C 
ATOM      2  C   UNL     1      -0.475  10.403  22.375  0.00  0.00    +0.000 C 
ATOM      3  O   UNL     1      -0.762  10.257  23.538  0.00  0.00    +0.000 OA
ATOM      4  N   UNL     1      -0.183  11.526  21.609  0.00  0.00    +0.000 N 
ATOM      5  C   UNL     1      -1.286  12.140  20.969  0.00  0.00    +0.000 C 
ATOM      6  C   UNL     1      -1.617  11.920  19.671  0.00  0.00    +0.000 C 
ATOM      7  C   UNL     1      -0.655  11.417  18.619  0.00  0.00    +0.000 C 
ATOM      8  S   UNL     1       0.993  11.342  19.222  0.00  0.00    +0.000 S 
ATOM      9  O   UNL     1       1.463  12.716  19.338  0.00  0.00    +0.000 OA
ATOM     10  O   UNL     1       1.709  10.406  18.376  0.00  0.00    +0.000 OA
ATOM     11  C   UNL     1       0.774  10.656  20.815  0.00  0.00    +0.000 C 
ENDROOT
BRANCH   5  12
ATOM     12  C   UNL     1      -2.239  12.867  21.910  0.00  0.00    +0.000 C 
ATOM     13  O   UNL     1      -3.201  12.269  22.381  0.00  0.00    +0.000 OA
ATOM     14  N   UNL     1      -1.951  14.169  22.279  0.00  0.00    +0.000 N 
ATOM     15  C   UNL     1      -2.840  14.879  23.192  0.00  0.00    +0.000 C 
ATOM     16  C   UNL     1      -2.984  16.246  22.558  0.00  0.00    +0.000 C 
ATOM     17  C   UNL     1      -1.658  16.487  21.830  0.00  0.00    +0.000 C 
ATOM     18  C   UNL     1      -0.954  15.120  21.754  0.00  0.00    +0.000 C 
BRANCH  18  19
ATOM     19  C   UNL     1       0.362  15.117  22.527  0.00  0.00    +0.000 C 
ATOM     20  O   UNL     1       0.567  15.833  23.499  0.00  0.00    +0.000 OA
BRANCH  19  21
ATOM     21  O   UNL     1       1.294  14.274  22.031  0.00  0.00    +0.000 OA
ATOM     22  H   UNL     1       2.183  14.470  22.388  0.00  0.00    +0.000 HD
ENDBRANCH  19  21
ENDBRANCH  18  19
ENDBRANCH   5  12
BRANCH   1  24
ATOM     23  C   UNL     1       1.592   7.870  20.716  0.00  0.00    +0.000 C 
ATOM     24  O   UNL     1       0.389   8.180  21.418  0.00  0.00    +0.000 OA
ENDBRANCH   1  24
BRANCH   6  25
ATOM     25  C   UNL     1      -3.007  12.114  19.101  0.00  0.00    +0.000 C 
BRANCH  25  26
ATOM     26  O   UNL     1      -3.315  11.029  18.212  0.00  0.00    +0.000 OA
BRANCH  26  27
ATOM     27  C   UNL     1      -3.918  11.358  17.042  0.00  0.00    +0.000 C 
ATOM     28  C   UNL     1      -3.075  10.927  15.884  0.00  0.00    +0.000 C 
ATOM     29  O   UNL     1      -5.012  11.894  16.942  0.00  0.00    +0.000 OA
ENDBRANCH  26  27
ENDBRANCH  25  26
ENDBRANCH   6  25
TORSDOF 7
ENDMDL
MODEL 8
REMARK VINA RESULT:      -5.9      7.120     10.128
REMARK  Name = 
REMARK  9 active torsions:
REMARK  status: ('A' for Active; 'I' for Inactive)
REMARK    1  A    between atoms: C_1  and  O_2
REMARK    2  A    between atoms: O_2  and  C_3
REMARK    3  A    between atoms: C_7  and  C_8
REMARK    4  A    between atoms: C_14  and  C_15
REMARK    5  A    between atoms: C_15  and  O_17
REMARK    6  A    between atoms: C_18  and  C_19
REMARK    7  A    between atoms: C_19  and  O_20
REMARK    8  A    between atoms: O_20  and  C_21
REMARK    9  A    between atoms: C_21  and  C_22
REMARK                            x       y       z     vdW  Elec       q    Type
REMARK                         _______ _______ _______ _____ _____    ______ ____
ROOT
ATOM      1  C   UNL     1      -0.972  14.821  19.668  0.00  0.00    +0.000 C 
ATOM      2  C   UNL     1       0.312  14.093  20.266  0.00  0.00    +0.000 C 
ATOM      3  O   UNL     1       1.504  14.280  20.307  0.00  0.00    +0.000 OA
ATOM      4  N   UNL     1      -0.511  13.132  20.842  0.00  0.00    +0.000 N 
ATOM      5  C   UNL     1      -0.736  11.968  20.068  0.00  0.00    +0.000 C 
ATOM      6  C   UNL     1      -1.841  11.779  19.303  0.00  0.00    +0.000 C 
ATOM      7  C   UNL     1      -3.157  12.492  19.513  0.00  0.00    +0.000 C 
ATOM      8  S   UNL     1      -3.156  13.443  20.990  0.00  0.00    +0.000 S 
ATOM      9  O   UNL     1      -3.214  12.501  22.100  0.00  0.00    +0.000 OA
ATOM     10  O   UNL     1      -4.193  14.447  20.845  0.00  0.00    +0.000 OA
ATOM     11  C   UNL     1      -1.583  14.202  20.940  0.00  0.00    +0.000 C 
ENDROOT
BRANCH   5  12
ATOM     12  C   UNL     1       0.472  11.048  19.944  0.00  0.00    +0.000 C 
ATOM     13  O   UNL     1       1.349  11.305  19.126  0.00  0.00    +0.000 OA
ATOM     14  N   UNL     1       0.595   9.983  20.819  0.00  0.00    +0.000 N 
ATOM     15  C   UNL     1       1.751   9.099  20.730  0.00  0.00    +0.000 C 
ATOM     16  C   UNL     1       1.151   7.714  20.848  0.00  0.00    +0.000 C 
ATOM     17  C   UNL     1      -0.090   7.894  21.728  0.00  0.00    +0.000 C 
ATOM     18  C   UNL     1      -0.369   9.406  21.774  0.00  0.00    +0.000 C 
BRANCH  18  19
ATOM     19  C   UNL     1      -0.238   9.964  23.189  0.00  0.00    +0.000 C 
ATOM     20  O   UNL     1       0.536   9.503  24.019  0.00  0.00    +0.000 OA
BRANCH  19  21
ATOM     21  O   UNL     1      -1.068  10.996  23.458  0.00  0.00    +0.000 OA
ATOM     22  H   UNL     1      -2.007  10.737  23.361  0.00  0.00    +0.000 HD
ENDBRANCH  19  21
ENDBRANCH  18  19
ENDBRANCH   5  12
BRANCH   1  24
ATOM     23  C   UNL     1      -0.438  16.731  18.283  0.00  0.00    +0.000 C 
ATOM     24  O   UNL     1      -0.875  16.259  19.557  0.00  0.00    +0.000 OA
ENDBRANCH   1  24
BRANCH   6  25
ATOM     25  C   UNL     1      -1.900  10.853  18.105  0.00  0.00    +0.000 C 
BRANCH  25  26
ATOM     26  O   UNL     1      -2.218  11.613  16.928  0.00  0.00    +0.000 OA
BRANCH  26  27
ATOM     27  C   UNL     1      -3.033  11.014  16.023  0.00  0.00    +0.000 C 
ATOM     28  C   UNL     1      -4.464  11.167  16.431  0.00  0.00    +0.000 C 
ATOM     29  O   UNL     1      -2.659  10.460  15.000  0.00  0.00    +0.000 OA
ENDBRANCH  26  27
ENDBRANCH  25  26
ENDBRANCH   6  25
TORSDOF 7
ENDMDL
MODEL 9
REMARK VINA RESULT:      -5.9      5.571      9.645
REMARK  Name = 
REMARK  9 active torsions:
REMARK  status: ('A' for Active; 'I' for Inactive)
REMARK    1  A    between atoms: C_1  and  O_2
REMARK    2  A    between atoms: O_2  and  C_3
REMARK    3  A    between atoms: C_7  and  C_8
REMARK    4  A    between atoms: C_14  and  C_15
REMARK    5  A    between atoms: C_15  and  O_17
REMARK    6  A    between atoms: C_18  and  C_19
REMARK    7  A    between atoms: C_19  and  O_20
REMARK    8  A    between atoms: O_20  and  C_21
REMARK    9  A    between atoms: C_21  and  C_22
REMARK                            x       y       z     vdW  Elec       q    Type
REMARK                         _______ _______ _______ _____ _____    ______ ____
ROOT
ATOM      1  C   UNL     1       0.560   8.705  20.800  0.00  0.00    +0.000 C 
ATOM      2  C   UNL     1       0.551   9.991  21.739  0.00  0.00    +0.000 C 
ATOM      3  O   UNL     1       0.447  10.233  22.917  0.00  0.00    +0.000 OA
ATOM      4  N   UNL     1       0.810  10.791  20.631  0.00  0.00    +0.000 N 
ATOM      5  C   UNL     1      -0.324  11.333  19.981  0.00  0.00    +0.000 C 
ATOM      6  C   UNL     1      -0.881  10.789  18.870  0.00  0.00    +0.000 C 
ATOM      7  C   UNL     1      -0.154   9.875  17.910  0.00  0.00    +0.000 C 
ATOM      8  S   UNL     1       1.558   9.760  18.288  0.00  0.00    +0.000 S 
ATOM      9  O   UNL     1       2.161  11.031  17.911  0.00  0.00    +0.000 OA
ATOM     10  O   UNL     1       2.040   8.530  17.689  0.00  0.00    +0.000 OA
ATOM     11  C   UNL     1       1.544   9.607  20.029  0.00  0.00    +0.000 C 
ENDROOT
BRANCH   5  12
ATOM     12  C   UNL     1      -1.042  12.424  20.766  0.00  0.00    +0.000 C 
ATOM     13  O   UNL     1      -1.886  12.116  21.600  0.00  0.00    +0.000 OA
ATOM     14  N   UNL     1      -0.664  13.742  20.577  0.00  0.00    +0.000 N 
ATOM     15  C   UNL     1      -1.325  14.801  21.329  0.00  0.00    +0.000 C 
ATOM     16  C   UNL     1      -1.585  15.869  20.288  0.00  0.00    +0.000 C 
ATOM     17  C   UNL     1      -0.445  15.722  19.276  0.00  0.00    +0.000 C 
ATOM     18  C   UNL     1       0.208  14.357  19.560  0.00  0.00    +0.000 C 
BRANCH  18  19
ATOM     19  C   UNL     1       1.660  14.506  20.006  0.00  0.00    +0.000 C 
ATOM     20  O   UNL     1       2.056  15.442  20.689  0.00  0.00    +0.000 OA
BRANCH  19  21
ATOM     21  O   UNL     1       2.480  13.528  19.562  0.00  0.00    +0.000 OA
ATOM     22  H   UNL     1       2.031  12.658  19.554  0.00  0.00    +0.000 HD
ENDBRANCH  19  21
ENDBRANCH  18  19
ENDBRANCH   5  12
BRANCH   1  24
ATOM     23  C   UNL     1       1.730   6.605  20.529  0.00  0.00    +0.000 C 
ATOM     24  O   UNL     1       1.046   7.490  21.414  0.00  0.00    +0.000 OA
ENDBRANCH   1  24
BRANCH   6  25
ATOM     25  C   UNL     1      -2.323  10.991  18.453  0.00  0.00    +0.000 C 
BRANCH  25  26
ATOM     26  O   UNL     1      -2.365  11.566  17.137  0.00  0.00    +0.000 OA
BRANCH  26  27
ATOM     27  C   UNL     1      -3.358  11.134  16.319  0.00  0.00    +0.000 C 
ATOM     28  C   UNL     1      -2.821  10.159  15.320  0.00  0.00    +0.000 C 
ATOM     29  O   UNL     1      -4.532  11.462  16.407  0.00  0.00    +0.000 OA
ENDBRANCH  26  27
ENDBRANCH  25  26
ENDBRANCH   6  25
TORSDOF 7
ENDMDL
