MODEL 1
REMARK VINA RESULT:      -7.1      0.000      0.000
REMARK  Name = 
REMARK  6 active torsions:
REMARK  status: ('A' for Active; 'I' for Inactive)
REMARK    1  A    between atoms: C_1  and  N_2
REMARK    2  A    between atoms: N_2  and  C_3
REMARK    3  A    between atoms: N_2  and  C_4
REMARK    4  A    between atoms: N_12  and  C_13
REMARK    5  A    between atoms: C_20  and  C_21
REMARK    6  A    between atoms: C_21  and  O_22
REMARK                            x       y       z     vdW  Elec       q    Type
REMARK                         _______ _______ _______ _____ _____    ______ ____
ROOT
ATOM      1  C   UNL     1       0.813   9.936  19.974  0.00  0.00    +0.000 A 
ATOM      2  N   UNL     1       0.567   9.336  21.180  0.00  0.00    +0.000 NA
ATOM      3  C   UNL     1       1.024   8.093  21.414  0.00  0.00    +0.000 A 
ATOM      4  N   UNL     1       1.743   7.312  20.598  0.00  0.00    +0.000 NA
ATOM      5  C   UNL     1       1.956   7.899  19.411  0.00  0.00    +0.000 A 
ATOM      6  C   UNL     1       1.543   9.169  19.025  0.00  0.00    +0.000 A 
ATOM      7  N   UNL     1       1.963   9.429  17.731  0.00  0.00    +0.000 NA
ATOM      8  C   UNL     1       2.596   8.344  17.347  0.00  0.00    +0.000 A 
ATOM      9  N   UNL     1       2.619   7.382  18.328  0.00  0.00    +0.000 N 
ENDROOT
BRANCH   9  10
ATOM     10  C   UNL     1       3.199   6.056  18.141  0.00  0.00    +0.000 C 
ATOM     11  C   UNL     1       3.957   5.560  19.412  0.00  0.00    +0.000 C 
ATOM     12  C   UNL     1       3.340   4.161  19.675  0.00  0.00    +0.000 C 
ATOM     13  C   UNL     1       3.858   3.230  18.559  0.00  0.00    +0.000 C 
ATOM     14 CL   UNL     1       3.646   1.511  18.948  0.00  0.00    +0.000 Cl
ATOM     15  C   UNL     1       3.025   3.666  17.344  0.00  0.00    +0.000 C 
ATOM     16  C   UNL     1       2.220   4.873  17.884  0.00  0.00    +0.000 C 
ATOM     17  C   UNL     1       1.874   4.448  19.320  0.00  0.00    +0.000 C 
BRANCH  17  18
ATOM     18  C   UNL     1       0.840   3.340  19.464  0.00  0.00    +0.000 C 
BRANCH  18  19
ATOM     19  O   UNL     1       0.692   2.999  20.839  0.00  0.00    +0.000 OA
ATOM     20  H   UNL     1       0.278   3.753  21.298  0.00  0.00    +0.000 HD
ENDBRANCH  18  19
ENDBRANCH  17  18
ENDBRANCH   9  10
BRANCH   1  22
ATOM     21  C   UNL     1      -0.895  11.391  19.043  0.00  0.00    +0.000 C 
ATOM     22  N   UNL     1       0.349  11.232  19.776  0.00  0.00    +0.000 N 
ATOM     23  C   UNL     1       1.268  12.347  19.888  0.00  0.00    +0.000 C 
ENDBRANCH   1  22
TORSDOF 4
ENDMDL
MODEL 2
REMARK VINA RESULT:      -6.9      1.151      2.012
REMARK  Name = 
REMARK  6 active torsions:
REMARK  status: ('A' for Active; 'I' for Inactive)
REMARK    1  A    between atoms: C_1  and  N_2
REMARK    2  A    between atoms: N_2  and  C_3
REMARK    3  A    between atoms: N_2  and  C_4
REMARK    4  A    between atoms: N_12  and  C_13
REMARK    5  A    between atoms: C_20  and  C_21
REMARK    6  A    between atoms: C_21  and  O_22
REMARK                            x       y       z     vdW  Elec       q    Type
REMARK                         _______ _______ _______ _____ _____    ______ ____
ROOT
ATOM      1  C   UNL     1       1.095  10.422  19.932  0.00  0.00    +0.000 A 
ATOM      2  N   UNL     1       1.348  10.894  18.671  0.00  0.00    +0.000 NA
ATOM      3  C   UNL     1       1.802  10.057  17.723  0.00  0.00    +0.000 A 
ATOM      4  N   UNL     1       2.044   8.745  17.828  0.00  0.00    +0.000 NA
ATOM      5  C   UNL     1       1.818   8.299  19.073  0.00  0.00    +0.000 A 
ATOM      6  C   UNL     1       1.356   9.042  20.152  0.00  0.00    +0.000 A 
ATOM      7  N   UNL     1       1.235   8.231  21.268  0.00  0.00    +0.000 NA
ATOM      8  C   UNL     1       1.626   7.040  20.874  0.00  0.00    +0.000 A 
ATOM      9  N   UNL     1       1.994   7.025  19.551  0.00  0.00    +0.000 N 
ENDROOT
BRANCH   9  10
ATOM     10  C   UNL     1       2.531   5.847  18.878  0.00  0.00    +0.000 C 
ATOM     11  C   UNL     1       3.863   5.354  19.525  0.00  0.00    +0.000 C 
ATOM     12  C   UNL     1       3.597   3.850  19.794  0.00  0.00    +0.000 C 
ATOM     13  C   UNL     1       3.581   3.149  18.419  0.00  0.00    +0.000 C 
ATOM     14 CL   UNL     1       3.757   1.387  18.547  0.00  0.00    +0.000 Cl
ATOM     15  C   UNL     1       2.218   3.564  17.846  0.00  0.00    +0.000 C 
ATOM     16  C   UNL     1       1.673   4.549  18.908  0.00  0.00    +0.000 C 
ATOM     17  C   UNL     1       2.127   3.916  20.235  0.00  0.00    +0.000 C 
BRANCH  17  18
ATOM     18  C   UNL     1       1.413   2.638  20.650  0.00  0.00    +0.000 C 
BRANCH  18  19
ATOM     19  O   UNL     1       1.476   2.493  22.066  0.00  0.00    +0.000 OA
ATOM     20  H   UNL     1       1.308   3.364  22.470  0.00  0.00    +0.000 HD
ENDBRANCH  18  19
ENDBRANCH  17  18
ENDBRANCH   9  10
BRANCH   1  22
ATOM     21  C   UNL     1      -0.691  11.009  21.469  0.00  0.00    +0.000 C 
ATOM     22  N   UNL     1       0.601  11.310  20.882  0.00  0.00    +0.000 N 
ATOM     23  C   UNL     1       1.122  12.662  20.937  0.00  0.00    +0.000 C 
ENDBRANCH   1  22
TORSDOF 4
ENDMDL
MODEL 3
REMARK VINA RESULT:      -6.9      1.770      2.375
REMARK  Name = 
REMARK  6 active torsions:
REMARK  status: ('A' for Active; 'I' for Inactive)
REMARK    1  A    between atoms: C_1  and  N_2
REMARK    2  A    between atoms: N_2  and  C_3
REMARK    3  A    between atoms: N_2  and  C_4
REMARK    4  A    between atoms: N_12  and  C_13
REMARK    5  A    between atoms: C_20  and  C_21
REMARK    6  A    between atoms: C_21  and  O_22
REMARK                            x       y       z     vdW  Elec       q    Type
REMARK                         _______ _______ _______ _____ _____    ______ ____
ROOT
ATOM      1  C   UNL     1       0.981  10.338  19.571  0.00  0.00    +0.000 A 
ATOM      2  N   UNL     1       0.510  10.205  20.850  0.00  0.00    +0.000 NA
ATOM      3  C   UNL     1       0.686   9.048  21.511  0.00  0.00    +0.000 A 
ATOM      4  N   UNL     1       1.307   7.941  21.084  0.00  0.00    +0.000 NA
ATOM      5  C   UNL     1       1.741   8.073  19.822  0.00  0.00    +0.000 A 
ATOM      6  C   UNL     1       1.627   9.200  19.016  0.00  0.00    +0.000 A 
ATOM      7  N   UNL     1       2.208   8.958  17.782  0.00  0.00    +0.000 NA
ATOM      8  C   UNL     1       2.644   7.721  17.840  0.00  0.00    +0.000 A 
ATOM      9  N   UNL     1       2.385   7.135  19.055  0.00  0.00    +0.000 N 
ENDROOT
BRANCH   9  10
ATOM     10  C   UNL     1       2.703   5.745  19.363  0.00  0.00    +0.000 C 
ATOM     11  C   UNL     1       1.623   4.758  18.818  0.00  0.00    +0.000 C 
ATOM     12  C   UNL     1       2.454   3.727  18.009  0.00  0.00    +0.000 C 
ATOM     13  C   UNL     1       3.233   2.880  19.037  0.00  0.00    +0.000 C 
ATOM     14 CL   UNL     1       3.862   1.372  18.344  0.00  0.00    +0.000 Cl
ATOM     15  C   UNL     1       4.351   3.835  19.482  0.00  0.00    +0.000 C 
ATOM     16  C   UNL     1       4.003   5.152  18.747  0.00  0.00    +0.000 C 
ATOM     17  C   UNL     1       3.496   4.664  17.379  0.00  0.00    +0.000 C 
BRANCH  17  18
ATOM     18  C   UNL     1       4.544   4.089  16.438  0.00  0.00    +0.000 C 
BRANCH  18  19
ATOM     19  O   UNL     1       5.264   5.150  15.818  0.00  0.00    +0.000 OA
ATOM     20  H   UNL     1       5.223   5.025  14.853  0.00  0.00    +0.000 HD
ENDBRANCH  18  19
ENDBRANCH  17  18
ENDBRANCH   9  10
BRANCH   1  22
ATOM     21  C   UNL     1       1.904  12.504  18.976  0.00  0.00    +0.000 C 
ATOM     22  N   UNL     1       0.804  11.558  18.927  0.00  0.00    +0.000 N 
ATOM     23  C   UNL     1      -0.536  12.023  18.628  0.00  0.00    +0.000 C 
ENDBRANCH   1  22
TORSDOF 4
ENDMDL
MODEL 4
REMARK VINA RESULT:      -6.9      1.332      1.703
REMARK  Name = 
REMARK  6 active torsions:
REMARK  status: ('A' for Active; 'I' for Inactive)
REMARK    1  A    between atoms: C_1  and  N_2
REMARK    2  A    between atoms: N_2  and  C_3
REMARK    3  A    between atoms: N_2  and  C_4
REMARK    4  A    between atoms: N_12  and  C_13
REMARK    5  A    between atoms: C_20  and  C_21
REMARK    6  A    between atoms: C_21  and  O_22
REMARK                            x       y       z     vdW  Elec       q    Type
REMARK                         _______ _______ _______ _____ _____    ______ ____
ROOT
ATOM      1  C   UNL     1       0.098  10.286  19.692  0.00  0.00    +0.000 A 
ATOM      2  N   UNL     1      -0.249  10.162  21.011  0.00  0.00    +0.000 NA
ATOM      3  C   UNL     1       0.282   9.176  21.752  0.00  0.00    +0.000 A 
ATOM      4  N   UNL     1       1.169   8.246  21.374  0.00  0.00    +0.000 NA
ATOM      5  C   UNL     1       1.483   8.362  20.075  0.00  0.00    +0.000 A 
ATOM      6  C   UNL     1       1.012   9.322  19.187  0.00  0.00    +0.000 A 
ATOM      7  N   UNL     1       1.572   9.124  17.937  0.00  0.00    +0.000 NA
ATOM      8  C   UNL     1       2.345   8.070  18.066  0.00  0.00    +0.000 A 
ATOM      9  N   UNL     1       2.326   7.565  19.343  0.00  0.00    +0.000 N 
ENDROOT
BRANCH   9  10
ATOM     10  C   UNL     1       3.042   6.358  19.743  0.00  0.00    +0.000 C 
ATOM     11  C   UNL     1       2.095   5.296  20.384  0.00  0.00    +0.000 C 
ATOM     12  C   UNL     1       2.399   4.008  19.574  0.00  0.00    +0.000 C 
ATOM     13  C   UNL     1       3.807   3.540  19.997  0.00  0.00    +0.000 C 
ATOM     14 CL   UNL     1       4.134   1.856  19.541  0.00  0.00    +0.000 Cl
ATOM     15  C   UNL     1       4.725   4.535  19.272  0.00  0.00    +0.000 C 
ATOM     16  C   UNL     1       3.728   5.524  18.622  0.00  0.00    +0.000 C 
ATOM     17  C   UNL     1       2.574   4.612  18.173  0.00  0.00    +0.000 C 
BRANCH  17  18
ATOM     18  C   UNL     1       2.861   3.693  16.994  0.00  0.00    +0.000 C 
BRANCH  18  19
ATOM     19  O   UNL     1       2.091   2.501  17.118  0.00  0.00    +0.000 OA
ATOM     20  H   UNL     1       1.343   2.554  16.496  0.00  0.00    +0.000 HD
ENDBRANCH  18  19
ENDBRANCH  17  18
ENDBRANCH   9  10
BRANCH   1  22
ATOM     21  C   UNL     1      -1.563  11.025  18.080  0.00  0.00    +0.000 C 
ATOM     22  N   UNL     1      -0.451  11.335  18.961  0.00  0.00    +0.000 N 
ATOM     23  C   UNL     1       0.322  12.543  18.751  0.00  0.00    +0.000 C 
ENDBRANCH   1  22
TORSDOF 4
ENDMDL
MODEL 5
REMARK VINA RESULT:      -6.8      1.761      2.333
REMARK  Name = 
REMARK  6 active torsions:
REMARK  status: ('A' for Active; 'I' for Inactive)
REMARK    1  A    between atoms: C_1  and  N_2
REMARK    2  A    between atoms: N_2  and  C_3
REMARK    3  A    between atoms: N_2  and  C_4
REMARK    4  A    between atoms: N_12  and  C_13
REMARK    5  A    between atoms: C_20  and  C_21
REMARK    6  A    between atoms: C_21  and  O_22
REMARK                            x       y       z     vdW  Elec       q    Type
REMARK                         _______ _______ _______ _____ _____    ______ ____
ROOT
ATOM      1  C   UNL     1       1.172  10.893  19.530  0.00  0.00    +0.000 A 
ATOM      2  N   UNL     1       0.779  10.820  20.840  0.00  0.00    +0.000 NA
ATOM      3  C   UNL     1       0.800   9.639  21.480  0.00  0.00    +0.000 A 
ATOM      4  N   UNL     1       1.189   8.449  21.004  0.00  0.00    +0.000 NA
ATOM      5  C   UNL     1       1.548   8.527  19.713  0.00  0.00    +0.000 A 
ATOM      6  C   UNL     1       1.572   9.670  18.924  0.00  0.00    +0.000 A 
ATOM      7  N   UNL     1       2.012   9.355  17.649  0.00  0.00    +0.000 NA
ATOM      8  C   UNL     1       2.232   8.060  17.669  0.00  0.00    +0.000 A 
ATOM      9  N   UNL     1       1.964   7.506  18.897  0.00  0.00    +0.000 N 
ENDROOT
BRANCH   9  10
ATOM     10  C   UNL     1       2.059   6.077  19.173  0.00  0.00    +0.000 C 
ATOM     11  C   UNL     1       2.168   5.230  17.867  0.00  0.00    +0.000 C 
ATOM     12  C   UNL     1       3.420   4.348  18.114  0.00  0.00    +0.000 C 
ATOM     13  C   UNL     1       3.030   3.311  19.187  0.00  0.00    +0.000 C 
ATOM     14 CL   UNL     1       4.158   1.943  19.260  0.00  0.00    +0.000 Cl
ATOM     15  C   UNL     1       3.030   4.144  20.477  0.00  0.00    +0.000 C 
ATOM     16  C   UNL     1       3.302   5.581  19.968  0.00  0.00    +0.000 C 
ATOM     17  C   UNL     1       4.320   5.363  18.836  0.00  0.00    +0.000 C 
BRANCH  17  18
ATOM     18  C   UNL     1       5.721   4.949  19.260  0.00  0.00    +0.000 C 
BRANCH  18  19
ATOM     19  O   UNL     1       6.315   4.153  18.239  0.00  0.00    +0.000 OA
ATOM     20  H   UNL     1       6.061   3.225  18.388  0.00  0.00    +0.000 HD
ENDBRANCH  18  19
ENDBRANCH  17  18
ENDBRANCH   9  10
BRANCH   1  22
ATOM     21  C   UNL     1      -0.118  12.641  18.444  0.00  0.00    +0.000 C 
ATOM     22  N   UNL     1       1.162  12.136  18.906  0.00  0.00    +0.000 N 
ATOM     23  C   UNL     1       2.391  12.669  18.352  0.00  0.00    +0.000 C 
ENDBRANCH   1  22
TORSDOF 4
ENDMDL
MODEL 6
REMARK VINA RESULT:      -6.8      2.625      3.651
REMARK  Name = 
REMARK  6 active torsions:
REMARK  status: ('A' for Active; 'I' for Inactive)
REMARK    1  A    between atoms: C_1  and  N_2
REMARK    2  A    between atoms: N_2  and  C_3
REMARK    3  A    between atoms: N_2  and  C_4
REMARK    4  A    between atoms: N_12  and  C_13
REMARK    5  A    between atoms: C_20  and  C_21
REMARK    6  A    between atoms: C_21  and  O_22
REMARK                            x       y       z     vdW  Elec       q    Type
REMARK                         _______ _______ _______ _____ _____    ______ ____
ROOT
ATOM      1  C   UNL     1       1.057   9.290  20.101  0.00  0.00    +0.000 A 
ATOM      2  N   UNL     1       1.036  10.217  19.093  0.00  0.00    +0.000 NA
ATOM      3  C   UNL     1       1.590   9.924  17.904  0.00  0.00    +0.000 A 
ATOM      4  N   UNL     1       2.184   8.784  17.529  0.00  0.00    +0.000 NA
ATOM      5  C   UNL     1       2.221   7.893  18.532  0.00  0.00    +0.000 A 
ATOM      6  C   UNL     1       1.697   8.055  19.809  0.00  0.00    +0.000 A 
ATOM      7  N   UNL     1       1.919   6.912  20.559  0.00  0.00    +0.000 NA
ATOM      8  C   UNL     1       2.567   6.095  19.761  0.00  0.00    +0.000 A 
ATOM      9  N   UNL     1       2.780   6.641  18.519  0.00  0.00    +0.000 N 
ENDROOT
BRANCH   9  10
ATOM     10  C   UNL     1       3.535   5.972  17.464  0.00  0.00    +0.000 C 
ATOM     11  C   UNL     1       4.379   6.975  16.618  0.00  0.00    +0.000 C 
ATOM     12  C   UNL     1       5.805   6.363  16.652  0.00  0.00    +0.000 C 
ATOM     13  C   UNL     1       5.764   5.094  15.776  0.00  0.00    +0.000 C 
ATOM     14 CL   UNL     1       7.382   4.527  15.317  0.00  0.00    +0.000 Cl
ATOM     15  C   UNL     1       5.020   4.091  16.670  0.00  0.00    +0.000 C 
ATOM     16  C   UNL     1       4.619   4.944  17.898  0.00  0.00    +0.000 C 
ATOM     17  C   UNL     1       5.840   5.857  18.102  0.00  0.00    +0.000 C 
BRANCH  17  18
ATOM     18  C   UNL     1       7.101   5.188  18.628  0.00  0.00    +0.000 C 
BRANCH  18  19
ATOM     19  O   UNL     1       7.230   5.440  20.024  0.00  0.00    +0.000 OA
ATOM     20  H   UNL     1       6.598   6.141  20.268  0.00  0.00    +0.000 HD
ENDBRANCH  18  19
ENDBRANCH  17  18
ENDBRANCH   9  10
BRANCH   1  22
ATOM     21  C   UNL     1      -0.409   8.617  21.917  0.00  0.00    +0.000 C 
ATOM     22  N   UNL     1       0.450   9.617  21.310  0.00  0.00    +0.000 N 
ATOM     23  C   UNL     1       0.320  11.009  21.693  0.00  0.00    +0.000 C 
ENDBRANCH   1  22
TORSDOF 4
ENDMDL
MODEL 7
REMARK VINA RESULT:      -6.6      2.275      3.287
REMARK  Name = 
REMARK  6 active torsions:
REMARK  status: ('A' for Active; 'I' for Inactive)
REMARK    1  A    between atoms: C_1  and  N_2
REMARK    2  A    between atoms: N_2  and  C_3
REMARK    3  A    between atoms: N_2  and  C_4
REMARK    4  A    between atoms: N_12  and  C_13
REMARK    5  A    between atoms: C_20  and  C_21
REMARK    6  A    between atoms: C_21  and  O_22
REMARK                            x       y       z     vdW  Elec       q    Type
REMARK                         _______ _______ _______ _____ _____    ______ ____
ROOT
ATOM      1  C   UNL     1       0.863   9.624  20.295  0.00  0.00    +0.000 A 
ATOM      2  N   UNL     1       0.877  10.608  19.342  0.00  0.00    +0.000 NA
ATOM      3  C   UNL     1       1.449  10.375  18.149  0.00  0.00    +0.000 A 
ATOM      4  N   UNL     1       2.030   9.248  17.718  0.00  0.00    +0.000 NA
ATOM      5  C   UNL     1       2.033   8.300  18.668  0.00  0.00    +0.000 A 
ATOM      6  C   UNL     1       1.488   8.397  19.942  0.00  0.00    +0.000 A 
ATOM      7  N   UNL     1       1.675   7.208  20.628  0.00  0.00    +0.000 NA
ATOM      8  C   UNL     1       2.325   6.427  19.796  0.00  0.00    +0.000 A 
ATOM      9  N   UNL     1       2.571   7.040  18.592  0.00  0.00    +0.000 N 
ENDROOT
BRANCH   9  10
ATOM     10  C   UNL     1       3.334   6.421  17.513  0.00  0.00    +0.000 C 
ATOM     11  C   UNL     1       4.540   7.303  17.063  0.00  0.00    +0.000 C 
ATOM     12  C   UNL     1       5.744   6.327  17.132  0.00  0.00    +0.000 C 
ATOM     13  C   UNL     1       5.573   5.327  15.970  0.00  0.00    +0.000 C 
ATOM     14 CL   UNL     1       7.067   4.441  15.603  0.00  0.00    +0.000 Cl
ATOM     15  C   UNL     1       4.453   4.408  16.479  0.00  0.00    +0.000 C 
ATOM     16  C   UNL     1       4.037   5.066  17.817  0.00  0.00    +0.000 C 
ATOM     17  C   UNL     1       5.377   5.544  18.402  0.00  0.00    +0.000 C 
BRANCH  17  18
ATOM     18  C   UNL     1       6.316   4.459  18.907  0.00  0.00    +0.000 C 
BRANCH  18  19
ATOM     19  O   UNL     1       5.557   3.348  19.373  0.00  0.00    +0.000 OA
ATOM     20  H   UNL     1       4.906   3.672  20.021  0.00  0.00    +0.000 HD
ENDBRANCH  18  19
ENDBRANCH  17  18
ENDBRANCH   9  10
BRANCH   1  22
ATOM     21  C   UNL     1      -0.693  11.003  21.551  0.00  0.00    +0.000 C 
ATOM     22  N   UNL     1       0.239   9.891  21.509  0.00  0.00    +0.000 N 
ATOM     23  C   UNL     1       0.822   9.391  22.739  0.00  0.00    +0.000 C 
ENDBRANCH   1  22
TORSDOF 4
ENDMDL
MODEL 8
REMARK VINA RESULT:      -6.6      1.103      2.084
REMARK  Name = 
REMARK  6 active torsions:
REMARK  status: ('A' for Active; 'I' for Inactive)
REMARK    1  A    between atoms: C_1  and  N_2
REMARK    2  A    between atoms: N_2  and  C_3
REMARK    3  A    between atoms: N_2  and  C_4
REMARK    4  A    between atoms: N_12  and  C_13
REMARK    5  A    between atoms: C_20  and  C_21
REMARK    6  A    between atoms: C_21  and  O_22
REMARK                            x       y       z     vdW  Elec       q    Type
REMARK                         _______ _______ _______ _____ _____    ______ ____
ROOT
ATOM      1  C   UNL     1       1.011  10.304  19.893  0.00  0.00    +0.000 A 
ATOM      2  N   UNL     1       1.289  10.828  18.658  0.00  0.00    +0.000 NA
ATOM      3  C   UNL     1       1.834  10.049  17.708  0.00  0.00    +0.000 A 
ATOM      4  N   UNL     1       2.150   8.750  17.788  0.00  0.00    +0.000 NA
ATOM      5  C   UNL     1       1.897   8.254  19.009  0.00  0.00    +0.000 A 
ATOM      6  C   UNL     1       1.344   8.936  20.086  0.00  0.00    +0.000 A 
ATOM      7  N   UNL     1       1.224   8.085  21.172  0.00  0.00    +0.000 NA
ATOM      8  C   UNL     1       1.703   6.932  20.764  0.00  0.00    +0.000 A 
ATOM      9  N   UNL     1       2.128   6.979  19.459  0.00  0.00    +0.000 N 
ENDROOT
BRANCH   9  10
ATOM     10  C   UNL     1       2.763   5.855  18.778  0.00  0.00    +0.000 C 
ATOM     11  C   UNL     1       3.926   5.239  19.618  0.00  0.00    +0.000 C 
ATOM     12  C   UNL     1       3.578   3.728  19.659  0.00  0.00    +0.000 C 
ATOM     13  C   UNL     1       3.824   3.176  18.239  0.00  0.00    +0.000 C 
ATOM     14 CL   UNL     1       3.931   1.405  18.202  0.00  0.00    +0.000 Cl
ATOM     15  C   UNL     1       2.614   3.709  17.457  0.00  0.00    +0.000 C 
ATOM     16  C   UNL     1       1.889   4.600  18.493  0.00  0.00    +0.000 C 
ATOM     17  C   UNL     1       2.051   3.813  19.805  0.00  0.00    +0.000 C 
BRANCH  17  18
ATOM     18  C   UNL     1       1.240   2.531  19.925  0.00  0.00    +0.000 C 
BRANCH  18  19
ATOM     19  O   UNL     1      -0.124   2.796  19.611  0.00  0.00    +0.000 OA
ATOM     20  H   UNL     1      -0.308   3.731  19.813  0.00  0.00    +0.000 HD
ENDBRANCH  18  19
ENDBRANCH  17  18
ENDBRANCH   9  10
BRANCH   1  22
ATOM     21  C   UNL     1       0.976  12.467  20.999  0.00  0.00    +0.000 C 
ATOM     22  N   UNL     1       0.424  11.133  20.843  0.00  0.00    +0.000 N 
ATOM     23  C   UNL     1      -0.370  10.551  21.908  0.00  0.00    +0.000 C 
ENDBRANCH   1  22
TORSDOF 4
ENDMDL
MODEL 9
REMARK VINA RESULT:      -6.6      1.147      2.085
REMARK  Name = 
REMARK  6 active torsions:
REMARK  status: ('A' for Active; 'I' for Inactive)
REMARK    1  A    between atoms: C_1  and  N_2
REMARK    2  A    between atoms: N_2  and  C_3
REMARK    3  A    between atoms: N_2  and  C_4
REMARK    4  A    between atoms: N_12  and  C_13
REMARK    5  A    between atoms: C_20  and  C_21
REMARK    6  A    between atoms: C_21  and  O_22
REMARK                            x       y       z     vdW  Elec       q    Type
REMARK                         _______ _______ _______ _____ _____    ______ ____
ROOT
ATOM      1  C   UNL     1       0.778  10.237  19.579  0.00  0.00    +0.000 A 
ATOM      2  N   UNL     1       1.330  10.583  18.375  0.00  0.00    +0.000 NA
ATOM      3  C   UNL     1       2.126   9.713  17.730  0.00  0.00    +0.000 A 
ATOM      4  N   UNL     1       2.468   8.473  18.105  0.00  0.00    +0.000 NA
ATOM      5  C   UNL     1       1.942   8.155  19.297  0.00  0.00    +0.000 A 
ATOM      6  C   UNL     1       1.111   8.949  20.079  0.00  0.00    +0.000 A 
ATOM      7  N   UNL     1       0.762   8.272  21.235  0.00  0.00    +0.000 NA
ATOM      8  C   UNL     1       1.375   7.113  21.157  0.00  0.00    +0.000 A 
ATOM      9  N   UNL     1       2.109   6.990  20.002  0.00  0.00    +0.000 N 
ENDROOT
BRANCH   9  10
ATOM     10  C   UNL     1       2.940   5.831  19.695  0.00  0.00    +0.000 C 
ATOM     11  C   UNL     1       2.824   4.718  20.783  0.00  0.00    +0.000 C 
ATOM     12  C   UNL     1       2.489   3.446  19.961  0.00  0.00    +0.000 C 
ATOM     13  C   UNL     1       3.770   3.065  19.189  0.00  0.00    +0.000 C 
ATOM     14 CL   UNL     1       3.729   1.401  18.573  0.00  0.00    +0.000 Cl
ATOM     15  C   UNL     1       3.807   4.110  18.064  0.00  0.00    +0.000 C 
ATOM     16  C   UNL     1       2.611   5.033  18.400  0.00  0.00    +0.000 C 
ATOM     17  C   UNL     1       1.544   4.051  18.912  0.00  0.00    +0.000 C 
BRANCH  17  18
ATOM     18  C   UNL     1       0.909   3.143  17.868  0.00  0.00    +0.000 C 
BRANCH  18  19
ATOM     19  O   UNL     1       0.340   2.004  18.507  0.00  0.00    +0.000 OA
ATOM     20  H   UNL     1      -0.569   2.227  18.777  0.00  0.00    +0.000 HD
ENDBRANCH  18  19
ENDBRANCH  17  18
ENDBRANCH   9  10
BRANCH   1  22
ATOM     21  C   UNL     1      -1.364  11.383  19.607  0.00  0.00    +0.000 C 
ATOM     22  N   UNL     1      -0.062  11.152  20.206  0.00  0.00    +0.000 N 
ATOM     23  C   UNL     1       0.499  12.133  21.115  0.00  0.00    +0.000 C 
ENDBRANCH   1  22
TORSDOF 4
ENDMDL
