MODEL 1
REMARK VINA RESULT:      -8.0      0.000      0.000
REMARK  Name = 
REMARK  10 active torsions:
REMARK  status: ('A' for Active; 'I' for Inactive)
REMARK    1  A    between atoms: C_1  and  C_2
REMARK    2  A    between atoms: C_2  and  C_3
REMARK    3  A    between atoms: C_2  and  C_4
REMARK    4  A    between atoms: C_2  and  O_5
REMARK    5  A    between atoms: O_5  and  C_6
REMARK    6  A    between atoms: N_8  and  C_9
REMARK    7  A    between atoms: C_9  and  C_10
REMARK    8  A    between atoms: C_10  and  C_11
REMARK    9  A    between atoms: C_11  and  N_12
REMARK   10  A    between atoms: C_18  and  N_19
REMARK                            x       y       z     vdW  Elec       q    Type
REMARK                         _______ _______ _______ _____ _____    ______ ____
ROOT
ATOM      1  N   UNL     1       3.893   6.410  17.982  0.00  0.00    +0.000 N 
ATOM      2  C   UNL     1       3.542   5.077  18.162  0.00  0.00    +0.000 A 
ATOM      3  C   UNL     1       4.091   4.108  17.405  0.00  0.00    +0.000 A 
ATOM      4  C   UNL     1       5.035   4.393  16.344  0.00  0.00    +0.000 A 
ATOM      5  C   UNL     1       5.434   3.423  15.422  0.00  0.00    +0.000 A 
ATOM      6  C   UNL     1       6.346   3.738  14.420  0.00  0.00    +0.000 A 
ATOM      7  C   UNL     1       6.937   5.000  14.366  0.00  0.00    +0.000 A 
ATOM      8  C   UNL     1       6.475   5.997  15.236  0.00  0.00    +0.000 A 
ATOM      9  C   UNL     1       5.518   5.698  16.222  0.00  0.00    +0.000 A 
ATOM     10  C   UNL     1       4.934   6.774  17.087  0.00  0.00    +0.000 A 
ATOM     11  O   UNL     1       5.348   7.926  16.963  0.00  0.00    +0.000 OA
ATOM     12  C   UNL     1       3.548   2.802  17.816  0.00  0.00    +0.000 C 
ATOM     13  O   UNL     1       3.833   1.699  17.397  0.00  0.00    +0.000 OA
ATOM     14  C   UNL     1       2.588   3.078  18.863  0.00  0.00    +0.000 A 
ATOM     15  C   UNL     1       1.805   2.154  19.530  0.00  0.00    +0.000 A 
ATOM     16  C   UNL     1       0.947   2.638  20.506  0.00  0.00    +0.000 A 
ATOM     17  C   UNL     1       0.916   4.015  20.783  0.00  0.00    +0.000 A 
ATOM     18  C   UNL     1       1.735   4.924  20.084  0.00  0.00    +0.000 A 
ATOM     19  C   UNL     1       2.583   4.458  19.093  0.00  0.00    +0.000 A 
ENDROOT
BRANCH   7  20
ATOM     20  N   UNL     1       7.799   5.304  13.305  0.00  0.00    +0.000 N 
ATOM     21  H   UNL     1       7.460   6.057  12.712  0.00  0.00    +0.000 HD
ATOM     22  H   UNL     1       8.082   4.494  12.762  0.00  0.00    +0.000 HD
ENDBRANCH   7  20
BRANCH   1  23
ATOM     23  C   UNL     1       3.152   7.513  18.605  0.00  0.00    +0.000 C 
BRANCH  23  24
ATOM     24  C   UNL     1       1.946   7.990  17.788  0.00  0.00    +0.000 C 
BRANCH  24  25
ATOM     25  C   UNL     1       1.671   9.493  17.924  0.00  0.00    +0.000 C 
BRANCH  25  28
ATOM     26  C   UNL     1       0.041  10.177  19.624  0.00  0.00    +0.000 C 
ATOM     27  O   UNL     1      -0.895  10.063  18.852  0.00  0.00    +0.000 OA
ATOM     28  N   UNL     1       1.336   9.914  19.267  0.00  0.00    +0.000 N 
ATOM     29  H   UNL     1       2.049  10.066  19.967  0.00  0.00    +0.000 HD
BRANCH  26  30
ATOM     30  O   UNL     1      -0.032  10.590  20.913  0.00  0.00    +0.000 OA
BRANCH  30  32
ATOM     31  C   UNL     1       1.474   9.354  22.428  0.00  0.00    +0.000 C 
ATOM     32  C   UNL     1       0.028   9.582  21.963  0.00  0.00    +0.000 C 
ATOM     33  C   UNL     1      -0.651   8.279  21.519  0.00  0.00    +0.000 C 
ATOM     34  C   UNL     1      -0.764  10.146  23.156  0.00  0.00    +0.000 C 
ENDBRANCH  30  32
ENDBRANCH  26  30
ENDBRANCH  25  28
ENDBRANCH  24  25
ENDBRANCH  23  24
ENDBRANCH   1  23
TORSDOF 7
ENDMDL
MODEL 2
REMARK VINA RESULT:      -7.9      1.271      2.025
REMARK  Name = 
REMARK  10 active torsions:
REMARK  status: ('A' for Active; 'I' for Inactive)
REMARK    1  A    between atoms: C_1  and  C_2
REMARK    2  A    between atoms: C_2  and  C_3
REMARK    3  A    between atoms: C_2  and  C_4
REMARK    4  A    between atoms: C_2  and  O_5
REMARK    5  A    between atoms: O_5  and  C_6
REMARK    6  A    between atoms: N_8  and  C_9
REMARK    7  A    between atoms: C_9  and  C_10
REMARK    8  A    between atoms: C_10  and  C_11
REMARK    9  A    between atoms: C_11  and  N_12
REMARK   10  A    between atoms: C_18  and  N_19
REMARK                            x       y       z     vdW  Elec       q    Type
REMARK                         _______ _______ _______ _____ _____    ______ ____
ROOT
ATOM      1  N   UNL     1       3.907   6.401  17.996  0.00  0.00    +0.000 N 
ATOM      2  C   UNL     1       3.562   5.064  18.160  0.00  0.00    +0.000 A 
ATOM      3  C   UNL     1       4.138   4.103  17.414  0.00  0.00    +0.000 A 
ATOM      4  C   UNL     1       5.107   4.400  16.379  0.00  0.00    +0.000 A 
ATOM      5  C   UNL     1       5.538   3.438  15.464  0.00  0.00    +0.000 A 
ATOM      6  C   UNL     1       6.474   3.764  14.487  0.00  0.00    +0.000 A 
ATOM      7  C   UNL     1       7.057   5.030  14.455  0.00  0.00    +0.000 A 
ATOM      8  C   UNL     1       6.564   6.020  15.317  0.00  0.00    +0.000 A 
ATOM      9  C   UNL     1       5.584   5.709  16.275  0.00  0.00    +0.000 A 
ATOM     10  C   UNL     1       4.969   6.777  17.130  0.00  0.00    +0.000 A 
ATOM     11  O   UNL     1       5.377   7.933  17.022  0.00  0.00    +0.000 OA
ATOM     12  C   UNL     1       3.594   2.791  17.804  0.00  0.00    +0.000 C 
ATOM     13  O   UNL     1       3.899   1.692  17.387  0.00  0.00    +0.000 OA
ATOM     14  C   UNL     1       2.605   3.055  18.827  0.00  0.00    +0.000 A 
ATOM     15  C   UNL     1       1.812   2.122  19.468  0.00  0.00    +0.000 A 
ATOM     16  C   UNL     1       0.925   2.595  20.424  0.00  0.00    +0.000 A 
ATOM     17  C   UNL     1       0.876   3.970  20.705  0.00  0.00    +0.000 A 
ATOM     18  C   UNL     1       1.706   4.889  20.033  0.00  0.00    +0.000 A 
ATOM     19  C   UNL     1       2.583   4.434  19.062  0.00  0.00    +0.000 A 
ENDROOT
BRANCH   7  20
ATOM     20  N   UNL     1       7.944   5.347  13.419  0.00  0.00    +0.000 N 
ATOM     21  H   UNL     1       8.093   4.582  12.766  0.00  0.00    +0.000 HD
ATOM     22  H   UNL     1       8.822   5.745  13.739  0.00  0.00    +0.000 HD
ENDBRANCH   7  20
BRANCH   1  23
ATOM     23  C   UNL     1       3.142   7.495  18.604  0.00  0.00    +0.000 C 
BRANCH  23  24
ATOM     24  C   UNL     1       2.026   8.045  17.708  0.00  0.00    +0.000 C 
BRANCH  24  25
ATOM     25  C   UNL     1       1.784   9.549  17.885  0.00  0.00    +0.000 C 
BRANCH  25  28
ATOM     26  C   UNL     1       0.065  10.486  19.362  0.00  0.00    +0.000 C 
ATOM     27  O   UNL     1       0.879  10.760  20.227  0.00  0.00    +0.000 OA
ATOM     28  N   UNL     1       0.411   9.897  18.175  0.00  0.00    +0.000 N 
ATOM     29  H   UNL     1      -0.337   9.680  17.531  0.00  0.00    +0.000 HD
BRANCH  26  30
ATOM     30  O   UNL     1      -1.274  10.688  19.431  0.00  0.00    +0.000 OA
BRANCH  30  32
ATOM     31  C   UNL     1      -2.648  11.517  17.556  0.00  0.00    +0.000 C 
ATOM     32  C   UNL     1      -1.823  11.880  18.800  0.00  0.00    +0.000 C 
ATOM     33  C   UNL     1      -0.719  12.900  18.488  0.00  0.00    +0.000 C 
ATOM     34  C   UNL     1      -2.779  12.516  19.825  0.00  0.00    +0.000 C 
ENDBRANCH  30  32
ENDBRANCH  26  30
ENDBRANCH  25  28
ENDBRANCH  24  25
ENDBRANCH  23  24
ENDBRANCH   1  23
TORSDOF 7
ENDMDL
MODEL 3
REMARK VINA RESULT:      -7.8      1.653      2.451
REMARK  Name = 
REMARK  10 active torsions:
REMARK  status: ('A' for Active; 'I' for Inactive)
REMARK    1  A    between atoms: C_1  and  C_2
REMARK    2  A    between atoms: C_2  and  C_3
REMARK    3  A    between atoms: C_2  and  C_4
REMARK    4  A    between atoms: C_2  and  O_5
REMARK    5  A    between atoms: O_5  and  C_6
REMARK    6  A    between atoms: N_8  and  C_9
REMARK    7  A    between atoms: C_9  and  C_10
REMARK    8  A    between atoms: C_10  and  C_11
REMARK    9  A    between atoms: C_11  and  N_12
REMARK   10  A    between atoms: C_18  and  N_19
REMARK                            x       y       z     vdW  Elec       q    Type
REMARK                         _______ _______ _______ _____ _____    ______ ____
ROOT
ATOM      1  N   UNL     1       3.949   6.416  18.096  0.00  0.00    +0.000 N 
ATOM      2  C   UNL     1       3.560   5.087  18.218  0.00  0.00    +0.000 A 
ATOM      3  C   UNL     1       4.093   4.134  17.431  0.00  0.00    +0.000 A 
ATOM      4  C   UNL     1       5.060   4.434  16.395  0.00  0.00    +0.000 A 
ATOM      5  C   UNL     1       5.447   3.491  15.441  0.00  0.00    +0.000 A 
ATOM      6  C   UNL     1       6.382   3.820  14.464  0.00  0.00    +0.000 A 
ATOM      7  C   UNL     1       7.008   5.066  14.469  0.00  0.00    +0.000 A 
ATOM      8  C   UNL     1       6.560   6.040  15.372  0.00  0.00    +0.000 A 
ATOM      9  C   UNL     1       5.580   5.729  16.331  0.00  0.00    +0.000 A 
ATOM     10  C   UNL     1       5.013   6.786  17.231  0.00  0.00    +0.000 A 
ATOM     11  O   UNL     1       5.460   7.930  17.158  0.00  0.00    +0.000 OA
ATOM     12  C   UNL     1       3.509   2.828  17.782  0.00  0.00    +0.000 C 
ATOM     13  O   UNL     1       3.771   1.735  17.322  0.00  0.00    +0.000 OA
ATOM     14  C   UNL     1       2.542   3.089  18.825  0.00  0.00    +0.000 A 
ATOM     15  C   UNL     1       1.724   2.162  19.444  0.00  0.00    +0.000 A 
ATOM     16  C   UNL     1       0.865   2.631  20.427  0.00  0.00    +0.000 A 
ATOM     17  C   UNL     1       0.867   3.995  20.757  0.00  0.00    +0.000 A 
ATOM     18  C   UNL     1       1.721   4.909  20.107  0.00  0.00    +0.000 A 
ATOM     19  C   UNL     1       2.570   4.459  19.110  0.00  0.00    +0.000 A 
ENDROOT
BRANCH   7  20
ATOM     20  N   UNL     1       7.894   5.388  13.434  0.00  0.00    +0.000 N 
ATOM     21  H   UNL     1       8.289   6.321  13.515  0.00  0.00    +0.000 HD
ATOM     22  H   UNL     1       7.517   5.219  12.505  0.00  0.00    +0.000 HD
ENDBRANCH   7  20
BRANCH   1  23
ATOM     23  C   UNL     1       3.229   7.514  18.752  0.00  0.00    +0.000 C 
BRANCH  23  24
ATOM     24  C   UNL     1       2.118   8.128  17.893  0.00  0.00    +0.000 C 
BRANCH  24  25
ATOM     25  C   UNL     1       1.252   9.144  18.649  0.00  0.00    +0.000 C 
BRANCH  25  28
ATOM     26  C   UNL     1      -0.711  10.583  18.348  0.00  0.00    +0.000 C 
ATOM     27  O   UNL     1      -0.916  10.648  19.548  0.00  0.00    +0.000 OA
ATOM     28  N   UNL     1       0.330   9.876  17.809  0.00  0.00    +0.000 N 
ATOM     29  H   UNL     1       0.401   9.855  16.801  0.00  0.00    +0.000 HD
BRANCH  26  30
ATOM     30  O   UNL     1      -1.463  11.157  17.377  0.00  0.00    +0.000 OA
BRANCH  30  32
ATOM     31  C   UNL     1      -3.669  11.784  18.287  0.00  0.00    +0.000 C 
ATOM     32  C   UNL     1      -2.887  10.858  17.342  0.00  0.00    +0.000 C 
ATOM     33  C   UNL     1      -3.150   9.374  17.634  0.00  0.00    +0.000 C 
ATOM     34  C   UNL     1      -3.360  11.149  15.907  0.00  0.00    +0.000 C 
ENDBRANCH  30  32
ENDBRANCH  26  30
ENDBRANCH  25  28
ENDBRANCH  24  25
ENDBRANCH  23  24
ENDBRANCH   1  23
TORSDOF 7
ENDMDL
MODEL 4
REMARK VINA RESULT:      -7.8      0.953      1.329
REMARK  Name = 
REMARK  10 active torsions:
REMARK  status: ('A' for Active; 'I' for Inactive)
REMARK    1  A    between atoms: C_1  and  C_2
REMARK    2  A    between atoms: C_2  and  C_3
REMARK    3  A    between atoms: C_2  and  C_4
REMARK    4  A    between atoms: C_2  and  O_5
REMARK    5  A    between atoms: O_5  and  C_6
REMARK    6  A    between atoms: N_8  and  C_9
REMARK    7  A    between atoms: C_9  and  C_10
REMARK    8  A    between atoms: C_10  and  C_11
REMARK    9  A    between atoms: C_11  and  N_12
REMARK   10  A    between atoms: C_18  and  N_19
REMARK                            x       y       z     vdW  Elec       q    Type
REMARK                         _______ _______ _______ _____ _____    ______ ____
ROOT
ATOM      1  N   UNL     1       3.917   6.387  18.038  0.00  0.00    +0.000 N 
ATOM      2  C   UNL     1       3.554   5.053  18.184  0.00  0.00    +0.000 A 
ATOM      3  C   UNL     1       4.113   4.095  17.421  0.00  0.00    +0.000 A 
ATOM      4  C   UNL     1       5.081   4.393  16.387  0.00  0.00    +0.000 A 
ATOM      5  C   UNL     1       5.494   3.439  15.455  0.00  0.00    +0.000 A 
ATOM      6  C   UNL     1       6.430   3.768  14.478  0.00  0.00    +0.000 A 
ATOM      7  C   UNL     1       7.030   5.026  14.462  0.00  0.00    +0.000 A 
ATOM      8  C   UNL     1       6.556   6.009  15.341  0.00  0.00    +0.000 A 
ATOM      9  C   UNL     1       5.575   5.697  16.300  0.00  0.00    +0.000 A 
ATOM     10  C   UNL     1       4.980   6.760  17.173  0.00  0.00    +0.000 A 
ATOM     11  O   UNL     1       5.404   7.912  17.080  0.00  0.00    +0.000 OA
ATOM     12  C   UNL     1       3.553   2.785  17.795  0.00  0.00    +0.000 C 
ATOM     13  O   UNL     1       3.840   1.688  17.360  0.00  0.00    +0.000 OA
ATOM     14  C   UNL     1       2.573   3.047  18.826  0.00  0.00    +0.000 A 
ATOM     15  C   UNL     1       1.769   2.116  19.457  0.00  0.00    +0.000 A 
ATOM     16  C   UNL     1       0.893   2.587  20.424  0.00  0.00    +0.000 A 
ATOM     17  C   UNL     1       0.865   3.958  20.727  0.00  0.00    +0.000 A 
ATOM     18  C   UNL     1       1.705   4.875  20.064  0.00  0.00    +0.000 A 
ATOM     19  C   UNL     1       2.571   4.422  19.082  0.00  0.00    +0.000 A 
ENDROOT
BRANCH   7  20
ATOM     20  N   UNL     1       7.917   5.345  13.426  0.00  0.00    +0.000 N 
ATOM     21  H   UNL     1       8.880   5.088  13.624  0.00  0.00    +0.000 HD
ATOM     22  H   UNL     1       7.841   6.306  13.105  0.00  0.00    +0.000 HD
ENDBRANCH   7  20
BRANCH   1  23
ATOM     23  C   UNL     1       3.170   7.482  18.666  0.00  0.00    +0.000 C 
BRANCH  23  24
ATOM     24  C   UNL     1       2.066   8.069  17.780  0.00  0.00    +0.000 C 
BRANCH  24  25
ATOM     25  C   UNL     1       1.753   9.539  18.084  0.00  0.00    +0.000 C 
BRANCH  25  28
ATOM     26  C   UNL     1      -0.279  10.177  19.299  0.00  0.00    +0.000 C 
ATOM     27  O   UNL     1      -0.893  10.397  18.269  0.00  0.00    +0.000 OA
ATOM     28  N   UNL     1       1.020   9.747  19.314  0.00  0.00    +0.000 N 
ATOM     29  H   UNL     1       1.456   9.620  20.217  0.00  0.00    +0.000 HD
BRANCH  26  30
ATOM     30  O   UNL     1      -0.751  10.337  20.560  0.00  0.00    +0.000 OA
BRANCH  30  32
ATOM     31  C   UNL     1      -2.127  12.382  20.651  0.00  0.00    +0.000 C 
ATOM     32  C   UNL     1      -0.833  11.687  21.099  0.00  0.00    +0.000 C 
ATOM     33  C   UNL     1       0.418  12.503  20.742  0.00  0.00    +0.000 C 
ATOM     34  C   UNL     1      -0.885  11.545  22.630  0.00  0.00    +0.000 C 
ENDBRANCH  30  32
ENDBRANCH  26  30
ENDBRANCH  25  28
ENDBRANCH  24  25
ENDBRANCH  23  24
ENDBRANCH   1  23
TORSDOF 7
ENDMDL
MODEL 5
REMARK VINA RESULT:      -7.5      1.213      1.801
REMARK  Name = 
REMARK  10 active torsions:
REMARK  status: ('A' for Active; 'I' for Inactive)
REMARK    1  A    between atoms: C_1  and  C_2
REMARK    2  A    between atoms: C_2  and  C_3
REMARK    3  A    between atoms: C_2  and  C_4
REMARK    4  A    between atoms: C_2  and  O_5
REMARK    5  A    between atoms: O_5  and  C_6
REMARK    6  A    between atoms: N_8  and  C_9
REMARK    7  A    between atoms: C_9  and  C_10
REMARK    8  A    between atoms: C_10  and  C_11
REMARK    9  A    between atoms: C_11  and  N_12
REMARK   10  A    between atoms: C_18  and  N_19
REMARK                            x       y       z     vdW  Elec       q    Type
REMARK                         _______ _______ _______ _____ _____    ______ ____
ROOT
ATOM      1  N   UNL     1       3.907   6.349  18.120  0.00  0.00    +0.000 N 
ATOM      2  C   UNL     1       3.550   5.011  18.239  0.00  0.00    +0.000 A 
ATOM      3  C   UNL     1       4.110   4.071  17.455  0.00  0.00    +0.000 A 
ATOM      4  C   UNL     1       5.075   4.394  16.425  0.00  0.00    +0.000 A 
ATOM      5  C   UNL     1       5.490   3.461  15.472  0.00  0.00    +0.000 A 
ATOM      6  C   UNL     1       6.422   3.813  14.501  0.00  0.00    +0.000 A 
ATOM      7  C   UNL     1       7.018   5.073  14.509  0.00  0.00    +0.000 A 
ATOM      8  C   UNL     1       6.542   6.036  15.409  0.00  0.00    +0.000 A 
ATOM      9  C   UNL     1       5.565   5.702  16.364  0.00  0.00    +0.000 A 
ATOM     10  C   UNL     1       4.967   6.744  17.260  0.00  0.00    +0.000 A 
ATOM     11  O   UNL     1       5.387   7.899  17.190  0.00  0.00    +0.000 OA
ATOM     12  C   UNL     1       3.556   2.751  17.802  0.00  0.00    +0.000 C 
ATOM     13  O   UNL     1       3.846   1.665  17.345  0.00  0.00    +0.000 OA
ATOM     14  C   UNL     1       2.577   2.989  18.841  0.00  0.00    +0.000 A 
ATOM     15  C   UNL     1       1.778   2.042  19.455  0.00  0.00    +0.000 A 
ATOM     16  C   UNL     1       0.903   2.490  20.433  0.00  0.00    +0.000 A 
ATOM     17  C   UNL     1       0.871   3.854  20.764  0.00  0.00    +0.000 A 
ATOM     18  C   UNL     1       1.705   4.788  20.118  0.00  0.00    +0.000 A 
ATOM     19  C   UNL     1       2.571   4.359  19.125  0.00  0.00    +0.000 A 
ENDROOT
BRANCH   7  20
ATOM     20  N   UNL     1       7.901   5.417  13.478  0.00  0.00    +0.000 N 
ATOM     21  H   UNL     1       8.484   6.220  13.696  0.00  0.00    +0.000 HD
ATOM     22  H   UNL     1       7.454   5.511  12.571  0.00  0.00    +0.000 HD
ENDBRANCH   7  20
BRANCH   1  23
ATOM     23  C   UNL     1       3.158   7.428  18.772  0.00  0.00    +0.000 C 
BRANCH  23  24
ATOM     24  C   UNL     1       2.134   8.113  17.859  0.00  0.00    +0.000 C 
BRANCH  24  25
ATOM     25  C   UNL     1       2.276   9.639  17.816  0.00  0.00    +0.000 C 
BRANCH  25  28
ATOM     26  C   UNL     1       0.852  11.485  18.579  0.00  0.00    +0.000 C 
ATOM     27  O   UNL     1       1.743  11.963  19.260  0.00  0.00    +0.000 OA
ATOM     28  N   UNL     1       1.017  10.351  17.829  0.00  0.00    +0.000 N 
ATOM     29  H   UNL     1       0.212  10.012  17.321  0.00  0.00    +0.000 HD
BRANCH  26  30
ATOM     30  O   UNL     1      -0.412  11.960  18.468  0.00  0.00    +0.000 OA
BRANCH  30  32
ATOM     31  C   UNL     1      -2.378  12.379  19.899  0.00  0.00    +0.000 C 
ATOM     32  C   UNL     1      -1.457  11.329  19.262  0.00  0.00    +0.000 C 
ATOM     33  C   UNL     1      -0.859  10.373  20.305  0.00  0.00    +0.000 C 
ATOM     34  C   UNL     1      -2.305  10.494  18.286  0.00  0.00    +0.000 C 
ENDBRANCH  30  32
ENDBRANCH  26  30
ENDBRANCH  25  28
ENDBRANCH  24  25
ENDBRANCH  23  24
ENDBRANCH   1  23
TORSDOF 7
ENDMDL
MODEL 6
REMARK VINA RESULT:      -7.4      3.905     10.381
REMARK  Name = 
REMARK  10 active torsions:
REMARK  status: ('A' for Active; 'I' for Inactive)
REMARK    1  A    between atoms: C_1  and  C_2
REMARK    2  A    between atoms: C_2  and  C_3
REMARK    3  A    between atoms: C_2  and  C_4
REMARK    4  A    between atoms: C_2  and  O_5
REMARK    5  A    between atoms: O_5  and  C_6
REMARK    6  A    between atoms: N_8  and  C_9
REMARK    7  A    between atoms: C_9  and  C_10
REMARK    8  A    between atoms: C_10  and  C_11
REMARK    9  A    between atoms: C_11  and  N_12
REMARK   10  A    between atoms: C_18  and  N_19
REMARK                            x       y       z     vdW  Elec       q    Type
REMARK                         _______ _______ _______ _____ _____    ______ ____
ROOT
ATOM      1  N   UNL     1      -1.130  11.525  20.382  0.00  0.00    +0.000 N 
ATOM      2  C   UNL     1      -2.275  11.647  19.603  0.00  0.00    +0.000 A 
ATOM      3  C   UNL     1      -3.370  12.273  20.073  0.00  0.00    +0.000 A 
ATOM      4  C   UNL     1      -3.438  12.815  21.415  0.00  0.00    +0.000 A 
ATOM      5  C   UNL     1      -4.634  13.265  21.976  0.00  0.00    +0.000 A 
ATOM      6  C   UNL     1      -4.655  13.781  23.269  0.00  0.00    +0.000 A 
ATOM      7  C   UNL     1      -3.474  13.933  23.993  0.00  0.00    +0.000 A 
ATOM      8  C   UNL     1      -2.288  13.404  23.466  0.00  0.00    +0.000 A 
ATOM      9  C   UNL     1      -2.269  12.837  22.179  0.00  0.00    +0.000 A 
ATOM     10  C   UNL     1      -1.037  12.171  21.644  0.00  0.00    +0.000 A 
ATOM     11  O   UNL     1      -0.014  12.175  22.328  0.00  0.00    +0.000 OA
ATOM     12  C   UNL     1      -4.420  12.262  19.040  0.00  0.00    +0.000 C 
ATOM     13  O   UNL     1      -5.525  12.764  19.080  0.00  0.00    +0.000 OA
ATOM     14  C   UNL     1      -3.870  11.533  17.918  0.00  0.00    +0.000 A 
ATOM     15  C   UNL     1      -4.511  11.243  16.728  0.00  0.00    +0.000 A 
ATOM     16  C   UNL     1      -3.795  10.528  15.780  0.00  0.00    +0.000 A 
ATOM     17  C   UNL     1      -2.471  10.145  16.054  0.00  0.00    +0.000 A 
ATOM     18  C   UNL     1      -1.850  10.465  17.277  0.00  0.00    +0.000 A 
ATOM     19  C   UNL     1      -2.561  11.162  18.242  0.00  0.00    +0.000 A 
ENDROOT
BRANCH   7  20
ATOM     20  N   UNL     1      -3.538  14.393  25.314  0.00  0.00    +0.000 N 
ATOM     21  H   UNL     1      -4.119  13.815  25.916  0.00  0.00    +0.000 HD
ATOM     22  H   UNL     1      -3.776  15.378  25.394  0.00  0.00    +0.000 HD
ENDBRANCH   7  20
BRANCH   1  23
ATOM     23  C   UNL     1      -0.012  10.649  20.013  0.00  0.00    +0.000 C 
BRANCH  23  24
ATOM     24  C   UNL     1      -0.017   9.298  20.736  0.00  0.00    +0.000 C 
BRANCH  24  25
ATOM     25  C   UNL     1       1.383   8.807  21.126  0.00  0.00    +0.000 C 
BRANCH  25  28
ATOM     26  C   UNL     1       2.061   6.808  19.877  0.00  0.00    +0.000 C 
ATOM     27  O   UNL     1       2.395   7.462  18.904  0.00  0.00    +0.000 OA
ATOM     28  N   UNL     1       1.560   7.376  21.018  0.00  0.00    +0.000 N 
ATOM     29  H   UNL     1       1.282   6.751  21.762  0.00  0.00    +0.000 HD
BRANCH  26  30
ATOM     30  O   UNL     1       2.104   5.458  19.987  0.00  0.00    +0.000 OA
BRANCH  30  32
ATOM     31  C   UNL     1       4.497   5.424  19.386  0.00  0.00    +0.000 C 
ATOM     32  C   UNL     1       3.130   4.740  19.243  0.00  0.00    +0.000 C 
ATOM     33  C   UNL     1       2.722   4.558  17.773  0.00  0.00    +0.000 C 
ATOM     34  C   UNL     1       3.236   3.343  19.881  0.00  0.00    +0.000 C 
ENDBRANCH  30  32
ENDBRANCH  26  30
ENDBRANCH  25  28
ENDBRANCH  24  25
ENDBRANCH  23  24
ENDBRANCH   1  23
TORSDOF 7
ENDMDL
MODEL 7
REMARK VINA RESULT:      -7.4      3.860     10.364
REMARK  Name = 
REMARK  10 active torsions:
REMARK  status: ('A' for Active; 'I' for Inactive)
REMARK    1  A    between atoms: C_1  and  C_2
REMARK    2  A    between atoms: C_2  and  C_3
REMARK    3  A    between atoms: C_2  and  C_4
REMARK    4  A    between atoms: C_2  and  O_5
REMARK    5  A    between atoms: O_5  and  C_6
REMARK    6  A    between atoms: N_8  and  C_9
REMARK    7  A    between atoms: C_9  and  C_10
REMARK    8  A    between atoms: C_10  and  C_11
REMARK    9  A    between atoms: C_11  and  N_12
REMARK   10  A    between atoms: C_18  and  N_19
REMARK                            x       y       z     vdW  Elec       q    Type
REMARK                         _______ _______ _______ _____ _____    ______ ____
ROOT
ATOM      1  N   UNL     1      -1.053  11.532  20.647  0.00  0.00    +0.000 N 
ATOM      2  C   UNL     1      -2.166  11.658  19.824  0.00  0.00    +0.000 A 
ATOM      3  C   UNL     1      -3.257  12.335  20.230  0.00  0.00    +0.000 A 
ATOM      4  C   UNL     1      -3.354  12.930  21.546  0.00  0.00    +0.000 A 
ATOM      5  C   UNL     1      -4.554  13.438  22.047  0.00  0.00    +0.000 A 
ATOM      6  C   UNL     1      -4.604  14.005  23.317  0.00  0.00    +0.000 A 
ATOM      7  C   UNL     1      -3.444  14.149  24.078  0.00  0.00    +0.000 A 
ATOM      8  C   UNL     1      -2.258  13.565  23.614  0.00  0.00    +0.000 A 
ATOM      9  C   UNL     1      -2.212  12.947  22.351  0.00  0.00    +0.000 A 
ATOM     10  C   UNL     1      -0.984  12.224  21.886  0.00  0.00    +0.000 A 
ATOM     11  O   UNL     1       0.014  12.224  22.606  0.00  0.00    +0.000 OA
ATOM     12  C   UNL     1      -4.270  12.315  19.161  0.00  0.00    +0.000 C 
ATOM     13  O   UNL     1      -5.359  12.851  19.142  0.00  0.00    +0.000 OA
ATOM     14  C   UNL     1      -3.705  11.526  18.088  0.00  0.00    +0.000 A 
ATOM     15  C   UNL     1      -4.313  11.209  16.888  0.00  0.00    +0.000 A 
ATOM     16  C   UNL     1      -3.587  10.436  15.994  0.00  0.00    +0.000 A 
ATOM     17  C   UNL     1      -2.287  10.025  16.329  0.00  0.00    +0.000 A 
ATOM     18  C   UNL     1      -1.699  10.374  17.561  0.00  0.00    +0.000 A 
ATOM     19  C   UNL     1      -2.420  11.129  18.472  0.00  0.00    +0.000 A 
ENDROOT
BRANCH   7  20
ATOM     20  N   UNL     1      -3.540  14.662  25.377  0.00  0.00    +0.000 N 
ATOM     21  H   UNL     1      -4.497  14.747  25.709  0.00  0.00    +0.000 HD
ATOM     22  H   UNL     1      -3.014  15.520  25.519  0.00  0.00    +0.000 HD
ENDBRANCH   7  20
BRANCH   1  23
ATOM     23  C   UNL     1       0.048  10.609  20.352  0.00  0.00    +0.000 C 
BRANCH  23  24
ATOM     24  C   UNL     1      -0.211   9.168  20.803  0.00  0.00    +0.000 C 
BRANCH  24  25
ATOM     25  C   UNL     1       0.953   8.554  21.591  0.00  0.00    +0.000 C 
BRANCH  25  28
ATOM     26  C   UNL     1       2.026   6.664  20.455  0.00  0.00    +0.000 C 
ATOM     27  O   UNL     1       1.177   5.879  20.841  0.00  0.00    +0.000 OA
ATOM     28  N   UNL     1       2.000   7.998  20.764  0.00  0.00    +0.000 N 
ATOM     29  H   UNL     1       2.764   8.566  20.424  0.00  0.00    +0.000 HD
BRANCH  26  30
ATOM     30  O   UNL     1       3.112   6.362  19.703  0.00  0.00    +0.000 OA
BRANCH  30  32
ATOM     31  C   UNL     1       4.356   6.332  17.572  0.00  0.00    +0.000 C 
ATOM     32  C   UNL     1       2.982   6.416  18.253  0.00  0.00    +0.000 C 
ATOM     33  C   UNL     1       2.190   7.656  17.814  0.00  0.00    +0.000 C 
ATOM     34  C   UNL     1       2.179   5.170  17.840  0.00  0.00    +0.000 C 
ENDBRANCH  30  32
ENDBRANCH  26  30
ENDBRANCH  25  28
ENDBRANCH  24  25
ENDBRANCH  23  24
ENDBRANCH   1  23
TORSDOF 7
ENDMDL
MODEL 8
REMARK VINA RESULT:      -7.4      3.556      9.918
REMARK  Name = 
REMARK  10 active torsions:
REMARK  status: ('A' for Active; 'I' for Inactive)
REMARK    1  A    between atoms: C_1  and  C_2
REMARK    2  A    between atoms: C_2  and  C_3
REMARK    3  A    between atoms: C_2  and  C_4
REMARK    4  A    between atoms: C_2  and  O_5
REMARK    5  A    between atoms: O_5  and  C_6
REMARK    6  A    between atoms: N_8  and  C_9
REMARK    7  A    between atoms: C_9  and  C_10
REMARK    8  A    between atoms: C_10  and  C_11
REMARK    9  A    between atoms: C_11  and  N_12
REMARK   10  A    between atoms: C_18  and  N_19
REMARK                            x       y       z     vdW  Elec       q    Type
REMARK                         _______ _______ _______ _____ _____    ______ ____
ROOT
ATOM      1  N   UNL     1      -0.746  11.028  19.993  0.00  0.00    +0.000 N 
ATOM      2  C   UNL     1      -1.917  11.321  19.302  0.00  0.00    +0.000 A 
ATOM      3  C   UNL     1      -2.831  12.167  19.813  0.00  0.00    +0.000 A 
ATOM      4  C   UNL     1      -2.674  12.785  21.114  0.00  0.00    +0.000 A 
ATOM      5  C   UNL     1      -3.710  13.483  21.737  0.00  0.00    +0.000 A 
ATOM      6  C   UNL     1      -3.516  14.065  22.986  0.00  0.00    +0.000 A 
ATOM      7  C   UNL     1      -2.265  14.031  23.600  0.00  0.00    +0.000 A 
ATOM      8  C   UNL     1      -1.250  13.260  23.018  0.00  0.00    +0.000 A 
ATOM      9  C   UNL     1      -1.454  12.629  21.777  0.00  0.00    +0.000 A 
ATOM     10  C   UNL     1      -0.420  11.714  21.193  0.00  0.00    +0.000 A 
ATOM     11  O   UNL     1       0.645  11.564  21.791  0.00  0.00    +0.000 OA
ATOM     12  C   UNL     1      -3.956  12.297  18.872  0.00  0.00    +0.000 C 
ATOM     13  O   UNL     1      -4.942  13.000  18.965  0.00  0.00    +0.000 OA
ATOM     14  C   UNL     1      -3.655  11.417  17.764  0.00  0.00    +0.000 A 
ATOM     15  C   UNL     1      -4.447  11.188  16.654  0.00  0.00    +0.000 A 
ATOM     16  C   UNL     1      -3.964  10.299  15.705  0.00  0.00    +0.000 A 
ATOM     17  C   UNL     1      -2.713   9.690  15.897  0.00  0.00    +0.000 A 
ATOM     18  C   UNL     1      -1.934   9.954  17.040  0.00  0.00    +0.000 A 
ATOM     19  C   UNL     1      -2.412  10.824  18.007  0.00  0.00    +0.000 A 
ENDROOT
BRANCH   7  20
ATOM     20  N   UNL     1      -2.121  14.567  24.886  0.00  0.00    +0.000 N 
ATOM     21  H   UNL     1      -1.236  14.332  25.326  0.00  0.00    +0.000 HD
ATOM     22  H   UNL     1      -2.909  14.377  25.499  0.00  0.00    +0.000 HD
ENDBRANCH   7  20
BRANCH   1  23
ATOM     23  C   UNL     1       0.153   9.939  19.598  0.00  0.00    +0.000 C 
BRANCH  23  24
ATOM     24  C   UNL     1       1.205  10.348  18.560  0.00  0.00    +0.000 C 
BRANCH  24  25
ATOM     25  C   UNL     1       2.024   9.168  18.021  0.00  0.00    +0.000 C 
BRANCH  25  28
ATOM     26  C   UNL     1       2.907   6.972  18.662  0.00  0.00    +0.000 C 
ATOM     27  O   UNL     1       3.670   6.940  17.711  0.00  0.00    +0.000 OA
ATOM     28  N   UNL     1       2.065   8.024  18.905  0.00  0.00    +0.000 N 
ATOM     29  H   UNL     1       1.448   7.947  19.701  0.00  0.00    +0.000 HD
BRANCH  26  30
ATOM     30  O   UNL     1       2.751   6.000  19.595  0.00  0.00    +0.000 OA
BRANCH  30  32
ATOM     31  C   UNL     1       3.676   3.773  19.077  0.00  0.00    +0.000 C 
ATOM     32  C   UNL     1       2.422   4.657  19.140  0.00  0.00    +0.000 C 
ATOM     33  C   UNL     1       1.669   4.693  17.803  0.00  0.00    +0.000 C 
ATOM     34  C   UNL     1       1.480   4.056  20.198  0.00  0.00    +0.000 C 
ENDBRANCH  30  32
ENDBRANCH  26  30
ENDBRANCH  25  28
ENDBRANCH  24  25
ENDBRANCH  23  24
ENDBRANCH   1  23
TORSDOF 7
ENDMDL
MODEL 9
REMARK VINA RESULT:      -7.3      1.859      2.400
REMARK  Name = 
REMARK  10 active torsions:
REMARK  status: ('A' for Active; 'I' for Inactive)
REMARK    1  A    between atoms: C_1  and  C_2
REMARK    2  A    between atoms: C_2  and  C_3
REMARK    3  A    between atoms: C_2  and  C_4
REMARK    4  A    between atoms: C_2  and  O_5
REMARK    5  A    between atoms: O_5  and  C_6
REMARK    6  A    between atoms: N_8  and  C_9
REMARK    7  A    between atoms: C_9  and  C_10
REMARK    8  A    between atoms: C_10  and  C_11
REMARK    9  A    between atoms: C_11  and  N_12
REMARK   10  A    between atoms: C_18  and  N_19
REMARK                            x       y       z     vdW  Elec       q    Type
REMARK                         _______ _______ _______ _____ _____    ______ ____
ROOT
ATOM      1  N   UNL     1       3.953   6.420  18.062  0.00  0.00    +0.000 N 
ATOM      2  C   UNL     1       3.571   5.090  18.192  0.00  0.00    +0.000 A 
ATOM      3  C   UNL     1       4.113   4.133  17.417  0.00  0.00    +0.000 A 
ATOM      4  C   UNL     1       5.084   4.429  16.384  0.00  0.00    +0.000 A 
ATOM      5  C   UNL     1       5.480   3.480  15.440  0.00  0.00    +0.000 A 
ATOM      6  C   UNL     1       6.419   3.805  14.465  0.00  0.00    +0.000 A 
ATOM      7  C   UNL     1       7.039   5.054  14.463  0.00  0.00    +0.000 A 
ATOM      8  C   UNL     1       6.581   6.033  15.354  0.00  0.00    +0.000 A 
ATOM      9  C   UNL     1       5.598   5.726  16.311  0.00  0.00    +0.000 A 
ATOM     10  C   UNL     1       5.021   6.787  17.199  0.00  0.00    +0.000 A 
ATOM     11  O   UNL     1       5.462   7.934  17.119  0.00  0.00    +0.000 OA
ATOM     12  C   UNL     1       3.533   2.827  17.776  0.00  0.00    +0.000 C 
ATOM     13  O   UNL     1       3.803   1.731  17.327  0.00  0.00    +0.000 OA
ATOM     14  C   UNL     1       2.559   3.093  18.812  0.00  0.00    +0.000 A 
ATOM     15  C   UNL     1       1.743   2.166  19.434  0.00  0.00    +0.000 A 
ATOM     16  C   UNL     1       0.876   2.639  20.408  0.00  0.00    +0.000 A 
ATOM     17  C   UNL     1       0.870   4.007  20.727  0.00  0.00    +0.000 A 
ATOM     18  C   UNL     1       1.722   4.919  20.073  0.00  0.00    +0.000 A 
ATOM     19  C   UNL     1       2.579   4.464  19.084  0.00  0.00    +0.000 A 
ENDROOT
BRANCH   7  20
ATOM     20  N   UNL     1       7.928   5.372  13.429  0.00  0.00    +0.000 N 
ATOM     21  H   UNL     1       7.503   5.912  12.681  0.00  0.00    +0.000 HD
ATOM     22  H   UNL     1       8.443   4.572  13.072  0.00  0.00    +0.000 HD
ENDBRANCH   7  20
BRANCH   1  23
ATOM     23  C   UNL     1       3.225   7.519  18.704  0.00  0.00    +0.000 C 
BRANCH  23  24
ATOM     24  C   UNL     1       2.223   8.223  17.781  0.00  0.00    +0.000 C 
BRANCH  24  25
ATOM     25  C   UNL     1       1.367   9.275  18.497  0.00  0.00    +0.000 C 
BRANCH  25  28
ATOM     26  C   UNL     1       0.979  11.691  18.663  0.00  0.00    +0.000 C 
ATOM     27  O   UNL     1       0.096  11.548  19.492  0.00  0.00    +0.000 OA
ATOM     28  N   UNL     1       1.667  10.639  18.120  0.00  0.00    +0.000 N 
ATOM     29  H   UNL     1       2.361  10.853  17.418  0.00  0.00    +0.000 HD
BRANCH  26  30
ATOM     30  O   UNL     1       1.401  12.868  18.140  0.00  0.00    +0.000 OA
BRANCH  30  32
ATOM     31  C   UNL     1       3.456  14.213  18.372  0.00  0.00    +0.000 C 
ATOM     32  C   UNL     1       2.125  13.787  19.007  0.00  0.00    +0.000 C 
ATOM     33  C   UNL     1       2.314  13.191  20.410  0.00  0.00    +0.000 C 
ATOM     34  C   UNL     1       1.247  15.044  19.141  0.00  0.00    +0.000 C 
ENDBRANCH  30  32
ENDBRANCH  26  30
ENDBRANCH  25  28
ENDBRANCH  24  25
ENDBRANCH  23  24
ENDBRANCH   1  23
TORSDOF 7
ENDMDL
