MODEL 1
REMARK VINA RESULT:      -9.0      0.000      0.000
REMARK  Name = 
REMARK  9 active torsions:
REMARK  status: ('A' for Active; 'I' for Inactive)
REMARK    1  A    between atoms: C_1  and  C_2
REMARK    2  A    between atoms: C_2  and  O_3
REMARK    3  A    between atoms: O_3  and  C_4
REMARK    4  A    between atoms: C_4  and  C_6
REMARK    5  A    between atoms: C_6  and  O_7
REMARK    6  A    between atoms: C_8  and  C_9
REMARK    7  A    between atoms: C_9  and  C_11
REMARK    8  A    between atoms: N_13  and  C_14
REMARK    9  A    between atoms: C_14  and  C_15
REMARK                            x       y       z     vdW  Elec       q    Type
REMARK                         _______ _______ _______ _____ _____    ______ ____
ROOT
ATOM      1  C   UNL     1       4.682   5.525  17.936  0.00  0.00    +0.000 A 
ATOM      2  C   UNL     1       3.979   6.228  18.839  0.00  0.00    +0.000 A 
ATOM      3  N   UNL     1       2.827   5.823  19.503  0.00  0.00    +0.000 N 
ATOM      4  C   UNL     1       2.287   4.548  19.215  0.00  0.00    +0.000 A 
ATOM      5  C   UNL     1       1.102   4.053  19.780  0.00  0.00    +0.000 A 
ATOM      6  C   UNL     1       0.605   2.783  19.455  0.00  0.00    +0.000 A 
ATOM      7  C   UNL     1       1.288   1.966  18.565  0.00  0.00    +0.000 A 
ATOM      8  C   UNL     1       2.469   2.419  17.991  0.00  0.00    +0.000 A 
ATOM      9  C   UNL     1       2.957   3.698  18.309  0.00  0.00    +0.000 A 
ATOM     10  C   UNL     1       4.200   4.156  17.641  0.00  0.00    +0.000 A 
ATOM     11  O   UNL     1       4.787   3.414  16.860  0.00  0.00    +0.000 OA
ENDROOT
BRANCH   1  12
ATOM     12  C   UNL     1       5.833   6.202  17.269  0.00  0.00    +0.000 C 
ATOM     13  O   UNL     1       6.604   6.907  17.911  0.00  0.00    +0.000 OA
BRANCH  12  15
ATOM     14  C   UNL     1       6.969   5.067  15.363  0.00  0.00    +0.000 C 
ATOM     15  C   UNL     1       6.038   5.909  15.831  0.00  0.00    +0.000 C 
BRANCH  14  16
ATOM     16  C   UNL     1       6.955   4.792  13.895  0.00  0.00    +0.000 C 
ATOM     17  O   UNL     1       7.659   5.334  13.060  0.00  0.00    +0.000 OA
BRANCH  16  18
ATOM     18  O   UNL     1       5.919   3.939  13.655  0.00  0.00    +0.000 OA
BRANCH  18  20
ATOM     19  C   UNL     1       4.577   3.335  11.773  0.00  0.00    +0.000 C 
ATOM     20  C   UNL     1       5.970   3.291  12.376  0.00  0.00    +0.000 C 
ENDBRANCH  18  20
ENDBRANCH  16  18
ENDBRANCH  14  16
BRANCH  14  21
ATOM     21  O   UNL     1       7.886   4.414  16.167  0.00  0.00    +0.000 OA
ATOM     22  H   UNL     1       7.546   3.502  16.277  0.00  0.00    +0.000 HD
ENDBRANCH  14  21
ENDBRANCH  12  15
ENDBRANCH   1  12
BRANCH   3  23
ATOM     23  C   UNL     1       2.121   6.738  20.427  0.00  0.00    +0.000 C 
BRANCH  23  24
ATOM     24  C   UNL     1       1.684   8.026  19.768  0.00  0.00    +0.000 A 
ATOM     25  C   UNL     1       2.003   8.310  18.429  0.00  0.00    +0.000 A 
ATOM     26  C   UNL     1       1.674   9.544  17.862  0.00  0.00    +0.000 A 
ATOM     27  C   UNL     1       1.021  10.513  18.621  0.00  0.00    +0.000 A 
ATOM     28  C   UNL     1       0.681  10.240  19.943  0.00  0.00    +0.000 A 
ATOM     29  C   UNL     1       1.015   9.008  20.503  0.00  0.00    +0.000 A 
ATOM     30  F   UNL     1       0.699   8.784  21.787  0.00  0.00    +0.000 F 
ENDBRANCH  23  24
ENDBRANCH   3  23
TORSDOF 8
ENDMDL
MODEL 2
REMARK VINA RESULT:      -8.8      1.523      1.892
REMARK  Name = 
REMARK  9 active torsions:
REMARK  status: ('A' for Active; 'I' for Inactive)
REMARK    1  A    between atoms: C_1  and  C_2
REMARK    2  A    between atoms: C_2  and  O_3
REMARK    3  A    between atoms: O_3  and  C_4
REMARK    4  A    between atoms: C_4  and  C_6
REMARK    5  A    between atoms: C_6  and  O_7
REMARK    6  A    between atoms: C_8  and  C_9
REMARK    7  A    between atoms: C_9  and  C_11
REMARK    8  A    between atoms: N_13  and  C_14
REMARK    9  A    between atoms: C_14  and  C_15
REMARK                            x       y       z     vdW  Elec       q    Type
REMARK                         _______ _______ _______ _____ _____    ______ ____
ROOT
ATOM      1  C   UNL     1       5.357   5.026  18.706  0.00  0.00    +0.000 A 
ATOM      2  C   UNL     1       4.476   5.974  18.351  0.00  0.00    +0.000 A 
ATOM      3  N   UNL     1       3.103   5.966  18.569  0.00  0.00    +0.000 N 
ATOM      4  C   UNL     1       2.522   4.849  19.212  0.00  0.00    +0.000 A 
ATOM      5  C   UNL     1       1.145   4.702  19.437  0.00  0.00    +0.000 A 
ATOM      6  C   UNL     1       0.619   3.570  20.075  0.00  0.00    +0.000 A 
ATOM      7  C   UNL     1       1.459   2.557  20.519  0.00  0.00    +0.000 A 
ATOM      8  C   UNL     1       2.828   2.671  20.321  0.00  0.00    +0.000 A 
ATOM      9  C   UNL     1       3.350   3.801  19.669  0.00  0.00    +0.000 A 
ATOM     10  C   UNL     1       4.816   3.860  19.442  0.00  0.00    +0.000 A 
ATOM     11  O   UNL     1       5.537   2.953  19.846  0.00  0.00    +0.000 OA
ENDROOT
BRANCH   1  12
ATOM     12  C   UNL     1       6.776   5.197  18.275  0.00  0.00    +0.000 C 
ATOM     13  O   UNL     1       7.682   5.242  19.099  0.00  0.00    +0.000 OA
BRANCH  12  15
ATOM     14  C   UNL     1       6.573   4.300  15.958  0.00  0.00    +0.000 C 
ATOM     15  C   UNL     1       7.032   5.222  16.815  0.00  0.00    +0.000 C 
BRANCH  14  16
ATOM     16  C   UNL     1       6.818   4.545  14.506  0.00  0.00    +0.000 C 
ATOM     17  O   UNL     1       7.310   5.551  14.024  0.00  0.00    +0.000 OA
BRANCH  16  18
ATOM     18  O   UNL     1       6.259   3.506  13.823  0.00  0.00    +0.000 OA
BRANCH  18  20
ATOM     19  C   UNL     1       4.943   3.280  11.841  0.00  0.00    +0.000 C 
ATOM     20  C   UNL     1       6.311   3.641  12.395  0.00  0.00    +0.000 C 
ENDBRANCH  18  20
ENDBRANCH  16  18
ENDBRANCH  14  16
BRANCH  14  21
ATOM     21  O   UNL     1       5.854   3.184  16.346  0.00  0.00    +0.000 OA
ATOM     22  H   UNL     1       5.155   3.511  16.950  0.00  0.00    +0.000 HD
ENDBRANCH  14  21
ENDBRANCH  12  15
ENDBRANCH   1  12
BRANCH   3  23
ATOM     23  C   UNL     1       2.245   7.057  18.057  0.00  0.00    +0.000 C 
BRANCH  23  24
ATOM     24  C   UNL     1       1.836   8.042  19.129  0.00  0.00    +0.000 A 
ATOM     25  C   UNL     1       1.805   7.680  20.486  0.00  0.00    +0.000 A 
ATOM     26  C   UNL     1       1.335   8.572  21.453  0.00  0.00    +0.000 A 
ATOM     27  C   UNL     1       0.893   9.840  21.082  0.00  0.00    +0.000 A 
ATOM     28  C   UNL     1       0.935  10.221  19.744  0.00  0.00    +0.000 A 
ATOM     29  C   UNL     1       1.401   9.325  18.784  0.00  0.00    +0.000 A 
ATOM     30  F   UNL     1       1.406   9.712  17.500  0.00  0.00    +0.000 F 
ENDBRANCH  23  24
ENDBRANCH   3  23
TORSDOF 8
ENDMDL
MODEL 3
REMARK VINA RESULT:      -8.6      0.920      1.091
REMARK  Name = 
REMARK  9 active torsions:
REMARK  status: ('A' for Active; 'I' for Inactive)
REMARK    1  A    between atoms: C_1  and  C_2
REMARK    2  A    between atoms: C_2  and  O_3
REMARK    3  A    between atoms: O_3  and  C_4
REMARK    4  A    between atoms: C_4  and  C_6
REMARK    5  A    between atoms: C_6  and  O_7
REMARK    6  A    between atoms: C_8  and  C_9
REMARK    7  A    between atoms: C_9  and  C_11
REMARK    8  A    between atoms: N_13  and  C_14
REMARK    9  A    between atoms: C_14  and  C_15
REMARK                            x       y       z     vdW  Elec       q    Type
REMARK                         _______ _______ _______ _____ _____    ______ ____
ROOT
ATOM      1  C   UNL     1       4.756   4.680  17.396  0.00  0.00    +0.000 A 
ATOM      2  C   UNL     1       4.426   5.594  18.321  0.00  0.00    +0.000 A 
ATOM      3  N   UNL     1       3.362   5.536  19.214  0.00  0.00    +0.000 N 
ATOM      4  C   UNL     1       2.493   4.421  19.167  0.00  0.00    +0.000 A 
ATOM      5  C   UNL     1       1.357   4.277  19.977  0.00  0.00    +0.000 A 
ATOM      6  C   UNL     1       0.524   3.153  19.886  0.00  0.00    +0.000 A 
ATOM      7  C   UNL     1       0.812   2.133  18.988  0.00  0.00    +0.000 A 
ATOM      8  C   UNL     1       1.932   2.237  18.175  0.00  0.00    +0.000 A 
ATOM      9  C   UNL     1       2.758   3.372  18.260  0.00  0.00    +0.000 A 
ATOM     10  C   UNL     1       3.921   3.459  17.342  0.00  0.00    +0.000 A 
ATOM     11  O   UNL     1       4.155   2.543  16.560  0.00  0.00    +0.000 OA
ENDROOT
BRANCH   1  12
ATOM     12  C   UNL     1       5.883   5.002  16.471  0.00  0.00    +0.000 C 
ATOM     13  O   UNL     1       6.872   5.605  16.872  0.00  0.00    +0.000 OA
BRANCH  12  15
ATOM     14  C   UNL     1       6.688   4.714  14.129  0.00  0.00    +0.000 C 
ATOM     15  C   UNL     1       5.779   4.483  15.086  0.00  0.00    +0.000 C 
BRANCH  14  16
ATOM     16  C   UNL     1       6.491   4.012  12.826  0.00  0.00    +0.000 C 
ATOM     17  O   UNL     1       7.339   3.853  11.964  0.00  0.00    +0.000 OA
BRANCH  16  18
ATOM     18  O   UNL     1       5.164   3.717  12.725  0.00  0.00    +0.000 OA
BRANCH  18  20
ATOM     19  C   UNL     1       3.662   3.399  10.894  0.00  0.00    +0.000 C 
ATOM     20  C   UNL     1       4.839   2.815  11.657  0.00  0.00    +0.000 C 
ENDBRANCH  18  20
ENDBRANCH  16  18
ENDBRANCH  14  16
BRANCH  14  21
ATOM     21  O   UNL     1       7.803   5.514  14.307  0.00  0.00    +0.000 OA
ATOM     22  H   UNL     1       7.864   5.678  15.271  0.00  0.00    +0.000 HD
ENDBRANCH  14  21
ENDBRANCH  12  15
ENDBRANCH   1  12
BRANCH   3  23
ATOM     23  C   UNL     1       3.081   6.657  20.137  0.00  0.00    +0.000 C 
BRANCH  23  24
ATOM     24  C   UNL     1       2.189   7.716  19.530  0.00  0.00    +0.000 A 
ATOM     25  C   UNL     1       2.256   8.037  18.164  0.00  0.00    +0.000 A 
ATOM     26  C   UNL     1       1.493   9.083  17.637  0.00  0.00    +0.000 A 
ATOM     27  C   UNL     1       0.649   9.821  18.464  0.00  0.00    +0.000 A 
ATOM     28  C   UNL     1       0.556   9.502  19.816  0.00  0.00    +0.000 A 
ATOM     29  C   UNL     1       1.323   8.461  20.336  0.00  0.00    +0.000 A 
ATOM     30  F   UNL     1       1.233   8.195  21.647  0.00  0.00    +0.000 F 
ENDBRANCH  23  24
ENDBRANCH   3  23
TORSDOF 8
ENDMDL
MODEL 4
REMARK VINA RESULT:      -8.6      2.924      4.672
REMARK  Name = 
REMARK  9 active torsions:
REMARK  status: ('A' for Active; 'I' for Inactive)
REMARK    1  A    between atoms: C_1  and  C_2
REMARK    2  A    between atoms: C_2  and  O_3
REMARK    3  A    between atoms: O_3  and  C_4
REMARK    4  A    between atoms: C_4  and  C_6
REMARK    5  A    between atoms: C_6  and  O_7
REMARK    6  A    between atoms: C_8  and  C_9
REMARK    7  A    between atoms: C_9  and  C_11
REMARK    8  A    between atoms: N_13  and  C_14
REMARK    9  A    between atoms: C_14  and  C_15
REMARK                            x       y       z     vdW  Elec       q    Type
REMARK                         _______ _______ _______ _____ _____    ______ ____
ROOT
ATOM      1  C   UNL     1       5.789   6.087  17.647  0.00  0.00    +0.000 A 
ATOM      2  C   UNL     1       4.609   6.721  17.551  0.00  0.00    +0.000 A 
ATOM      3  N   UNL     1       3.389   6.303  18.069  0.00  0.00    +0.000 N 
ATOM      4  C   UNL     1       3.329   5.073  18.764  0.00  0.00    +0.000 A 
ATOM      5  C   UNL     1       2.148   4.522  19.282  0.00  0.00    +0.000 A 
ATOM      6  C   UNL     1       2.142   3.293  19.958  0.00  0.00    +0.000 A 
ATOM      7  C   UNL     1       3.322   2.587  20.146  0.00  0.00    +0.000 A 
ATOM      8  C   UNL     1       4.513   3.105  19.653  0.00  0.00    +0.000 A 
ATOM      9  C   UNL     1       4.512   4.330  18.965  0.00  0.00    +0.000 A 
ATOM     10  C   UNL     1       5.801   4.824  18.420  0.00  0.00    +0.000 A 
ATOM     11  O   UNL     1       6.831   4.182  18.601  0.00  0.00    +0.000 OA
ENDROOT
BRANCH   1  12
ATOM     12  C   UNL     1       6.954   6.672  16.920  0.00  0.00    +0.000 C 
ATOM     13  O   UNL     1       7.507   6.053  16.019  0.00  0.00    +0.000 OA
BRANCH  12  15
ATOM     14  C   UNL     1       8.183   8.359  18.284  0.00  0.00    +0.000 C 
ATOM     15  C   UNL     1       7.343   8.055  17.285  0.00  0.00    +0.000 C 
BRANCH  14  16
ATOM     16  C   UNL     1       8.564   9.795  18.434  0.00  0.00    +0.000 C 
ATOM     17  O   UNL     1       8.302  10.690  17.648  0.00  0.00    +0.000 OA
BRANCH  16  18
ATOM     18  O   UNL     1       9.375   9.884  19.526  0.00  0.00    +0.000 OA
BRANCH  18  20
ATOM     19  C   UNL     1      11.128  11.502  19.402  0.00  0.00    +0.000 C 
ATOM     20  C   UNL     1       9.720  11.225  19.899  0.00  0.00    +0.000 C 
ENDBRANCH  18  20
ENDBRANCH  16  18
ENDBRANCH  14  16
BRANCH  14  21
ATOM     21  O   UNL     1       8.742   7.417  19.128  0.00  0.00    +0.000 OA
ATOM     22  H   UNL     1       9.306   6.849  18.563  0.00  0.00    +0.000 HD
ENDBRANCH  14  21
ENDBRANCH  12  15
ENDBRANCH   1  12
BRANCH   3  23
ATOM     23  C   UNL     1       2.153   7.079  17.824  0.00  0.00    +0.000 C 
BRANCH  23  24
ATOM     24  C   UNL     1       1.818   8.032  18.948  0.00  0.00    +0.000 A 
ATOM     25  C   UNL     1       1.798   7.610  20.288  0.00  0.00    +0.000 A 
ATOM     26  C   UNL     1       1.394   8.478  21.305  0.00  0.00    +0.000 A 
ATOM     27  C   UNL     1       1.008   9.783  21.002  0.00  0.00    +0.000 A 
ATOM     28  C   UNL     1       1.041  10.222  19.682  0.00  0.00    +0.000 A 
ATOM     29  C   UNL     1       1.440   9.349  18.671  0.00  0.00    +0.000 A 
ATOM     30  F   UNL     1       1.436   9.794  17.406  0.00  0.00    +0.000 F 
ENDBRANCH  23  24
ENDBRANCH   3  23
TORSDOF 8
ENDMDL
MODEL 5
REMARK VINA RESULT:      -8.5      1.850      4.432
REMARK  Name = 
REMARK  9 active torsions:
REMARK  status: ('A' for Active; 'I' for Inactive)
REMARK    1  A    between atoms: C_1  and  C_2
REMARK    2  A    between atoms: C_2  and  O_3
REMARK    3  A    between atoms: O_3  and  C_4
REMARK    4  A    between atoms: C_4  and  C_6
REMARK    5  A    between atoms: C_6  and  O_7
REMARK    6  A    between atoms: C_8  and  C_9
REMARK    7  A    between atoms: C_9  and  C_11
REMARK    8  A    between atoms: N_13  and  C_14
REMARK    9  A    between atoms: C_14  and  C_15
REMARK                            x       y       z     vdW  Elec       q    Type
REMARK                         _______ _______ _______ _____ _____    ______ ____
ROOT
ATOM      1  C   UNL     1       5.508   5.227  16.360  0.00  0.00    +0.000 A 
ATOM      2  C   UNL     1       5.266   4.497  17.461  0.00  0.00    +0.000 A 
ATOM      3  N   UNL     1       4.426   4.829  18.518  0.00  0.00    +0.000 N 
ATOM      4  C   UNL     1       3.746   6.068  18.485  0.00  0.00    +0.000 A 
ATOM      5  C   UNL     1       2.918   6.536  19.516  0.00  0.00    +0.000 A 
ATOM      6  C   UNL     1       2.271   7.777  19.437  0.00  0.00    +0.000 A 
ATOM      7  C   UNL     1       2.425   8.582  18.315  0.00  0.00    +0.000 A 
ATOM      8  C   UNL     1       3.232   8.149  17.272  0.00  0.00    +0.000 A 
ATOM      9  C   UNL     1       3.889   6.910  17.360  0.00  0.00    +0.000 A 
ATOM     10  C   UNL     1       4.773   6.507  16.239  0.00  0.00    +0.000 A 
ATOM     11  O   UNL     1       4.891   7.235  15.258  0.00  0.00    +0.000 OA
ENDROOT
BRANCH   1  12
ATOM     12  C   UNL     1       6.532   4.720  15.400  0.00  0.00    +0.000 C 
ATOM     13  O   UNL     1       7.726   4.919  15.591  0.00  0.00    +0.000 OA
BRANCH  12  15
ATOM     14  C   UNL     1       6.520   3.977  13.020  0.00  0.00    +0.000 C 
ATOM     15  C   UNL     1       6.038   3.901  14.267  0.00  0.00    +0.000 C 
BRANCH  14  16
ATOM     16  C   UNL     1       5.994   2.992  12.029  0.00  0.00    +0.000 C 
ATOM     17  O   UNL     1       6.666   2.289  11.294  0.00  0.00    +0.000 OA
BRANCH  16  18
ATOM     18  O   UNL     1       4.639   3.133  12.002  0.00  0.00    +0.000 OA
BRANCH  18  20
ATOM     19  C   UNL     1       3.384   3.982  10.154  0.00  0.00    +0.000 C 
ATOM     20  C   UNL     1       4.028   2.748  10.761  0.00  0.00    +0.000 C 
ENDBRANCH  18  20
ENDBRANCH  16  18
ENDBRANCH  14  16
BRANCH  14  21
ATOM     21  O   UNL     1       7.499   4.873  12.630  0.00  0.00    +0.000 OA
ATOM     22  H   UNL     1       8.250   4.330  12.313  0.00  0.00    +0.000 HD
ENDBRANCH  14  21
ENDBRANCH  12  15
ENDBRANCH   1  12
BRANCH   3  23
ATOM     23  C   UNL     1       4.311   3.950  19.702  0.00  0.00    +0.000 C 
BRANCH  23  24
ATOM     24  C   UNL     1       2.970   3.259  19.801  0.00  0.00    +0.000 A 
ATOM     25  C   UNL     1       2.437   2.533  18.722  0.00  0.00    +0.000 A 
ATOM     26  C   UNL     1       1.157   1.980  18.796  0.00  0.00    +0.000 A 
ATOM     27  C   UNL     1       0.389   2.140  19.948  0.00  0.00    +0.000 A 
ATOM     28  C   UNL     1       0.910   2.839  21.032  0.00  0.00    +0.000 A 
ATOM     29  C   UNL     1       2.187   3.392  20.950  0.00  0.00    +0.000 A 
ATOM     30  F   UNL     1       2.651   4.083  22.002  0.00  0.00    +0.000 F 
ENDBRANCH  23  24
ENDBRANCH   3  23
TORSDOF 8
ENDMDL
MODEL 6
REMARK VINA RESULT:      -8.3      3.415      6.228
REMARK  Name = 
REMARK  9 active torsions:
REMARK  status: ('A' for Active; 'I' for Inactive)
REMARK    1  A    between atoms: C_1  and  C_2
REMARK    2  A    between atoms: C_2  and  O_3
REMARK    3  A    between atoms: O_3  and  C_4
REMARK    4  A    between atoms: C_4  and  C_6
REMARK    5  A    between atoms: C_6  and  O_7
REMARK    6  A    between atoms: C_8  and  C_9
REMARK    7  A    between atoms: C_9  and  C_11
REMARK    8  A    between atoms: N_13  and  C_14
REMARK    9  A    between atoms: C_14  and  C_15
REMARK                            x       y       z     vdW  Elec       q    Type
REMARK                         _______ _______ _______ _____ _____    ______ ____
ROOT
ATOM      1  C   UNL     1       1.768   8.327  19.094  0.00  0.00    +0.000 A 
ATOM      2  C   UNL     1       1.178   9.403  18.549  0.00  0.00    +0.000 A 
ATOM      3  N   UNL     1       0.389  10.345  19.199  0.00  0.00    +0.000 N 
ATOM      4  C   UNL     1       0.136  10.184  20.581  0.00  0.00    +0.000 A 
ATOM      5  C   UNL     1      -0.688  11.037  21.332  0.00  0.00    +0.000 A 
ATOM      6  C   UNL     1      -0.912  10.830  22.700  0.00  0.00    +0.000 A 
ATOM      7  C   UNL     1      -0.307   9.768  23.360  0.00  0.00    +0.000 A 
ATOM      8  C   UNL     1       0.521   8.908  22.652  0.00  0.00    +0.000 A 
ATOM      9  C   UNL     1       0.733   9.111  21.277  0.00  0.00    +0.000 A 
ATOM     10  C   UNL     1       1.592   8.142  20.553  0.00  0.00    +0.000 A 
ATOM     11  O   UNL     1       2.117   7.214  21.160  0.00  0.00    +0.000 OA
ENDROOT
BRANCH   1  12
ATOM     12  C   UNL     1       2.486   7.390  18.181  0.00  0.00    +0.000 C 
ATOM     13  O   UNL     1       3.500   7.743  17.589  0.00  0.00    +0.000 OA
BRANCH  12  15
ATOM     14  C   UNL     1       2.715   4.936  17.806  0.00  0.00    +0.000 C 
ATOM     15  C   UNL     1       1.963   6.005  18.100  0.00  0.00    +0.000 C 
BRANCH  14  16
ATOM     16  C   UNL     1       2.054   3.600  17.890  0.00  0.00    +0.000 C 
ATOM     17  O   UNL     1       2.341   2.617  17.228  0.00  0.00    +0.000 OA
BRANCH  16  18
ATOM     18  O   UNL     1       0.987   3.732  18.729  0.00  0.00    +0.000 OA
BRANCH  18  20
ATOM     19  C   UNL     1       1.597   3.524  21.030  0.00  0.00    +0.000 C 
ATOM     20  C   UNL     1       0.987   2.815  19.833  0.00  0.00    +0.000 C 
ENDBRANCH  18  20
ENDBRANCH  16  18
ENDBRANCH  14  16
BRANCH  14  21
ATOM     21  O   UNL     1       4.059   5.008  17.487  0.00  0.00    +0.000 OA
ATOM     22  H   UNL     1       4.186   5.879  17.057  0.00  0.00    +0.000 HD
ENDBRANCH  14  21
ENDBRANCH  12  15
ENDBRANCH   1  12
BRANCH   3  23
ATOM     23  C   UNL     1      -0.254  11.447  18.450  0.00  0.00    +0.000 C 
BRANCH  23  24
ATOM     24  C   UNL     1      -1.646  11.105  17.970  0.00  0.00    +0.000 A 
ATOM     25  C   UNL     1      -1.862  10.139  16.973  0.00  0.00    +0.000 A 
ATOM     26  C   UNL     1      -3.145   9.901  16.474  0.00  0.00    +0.000 A 
ATOM     27  C   UNL     1      -4.233  10.622  16.963  0.00  0.00    +0.000 A 
ATOM     28  C   UNL     1      -4.038  11.569  17.965  0.00  0.00    +0.000 A 
ATOM     29  C   UNL     1      -2.754  11.804  18.455  0.00  0.00    +0.000 A 
ATOM     30  F   UNL     1      -2.595  12.741  19.401  0.00  0.00    +0.000 F 
ENDBRANCH  23  24
ENDBRANCH   3  23
TORSDOF 8
ENDMDL
MODEL 7
REMARK VINA RESULT:      -8.3      3.430      7.206
REMARK  Name = 
REMARK  9 active torsions:
REMARK  status: ('A' for Active; 'I' for Inactive)
REMARK    1  A    between atoms: C_1  and  C_2
REMARK    2  A    between atoms: C_2  and  O_3
REMARK    3  A    between atoms: O_3  and  C_4
REMARK    4  A    between atoms: C_4  and  C_6
REMARK    5  A    between atoms: C_6  and  O_7
REMARK    6  A    between atoms: C_8  and  C_9
REMARK    7  A    between atoms: C_9  and  C_11
REMARK    8  A    between atoms: N_13  and  C_14
REMARK    9  A    between atoms: C_14  and  C_15
REMARK                            x       y       z     vdW  Elec       q    Type
REMARK                         _______ _______ _______ _____ _____    ______ ____
ROOT
ATOM      1  C   UNL     1       2.500   6.664  18.561  0.00  0.00    +0.000 A 
ATOM      2  C   UNL     1       2.985   5.747  17.709  0.00  0.00    +0.000 A 
ATOM      3  N   UNL     1       3.186   4.394  17.959  0.00  0.00    +0.000 N 
ATOM      4  C   UNL     1       2.880   3.886  19.242  0.00  0.00    +0.000 A 
ATOM      5  C   UNL     1       3.092   2.554  19.629  0.00  0.00    +0.000 A 
ATOM      6  C   UNL     1       2.777   2.102  20.918  0.00  0.00    +0.000 A 
ATOM      7  C   UNL     1       2.229   2.968  21.855  0.00  0.00    +0.000 A 
ATOM      8  C   UNL     1       1.998   4.292  21.506  0.00  0.00    +0.000 A 
ATOM      9  C   UNL     1       2.327   4.745  20.216  0.00  0.00    +0.000 A 
ATOM     10  C   UNL     1       2.101   6.177  19.901  0.00  0.00    +0.000 A 
ATOM     11  O   UNL     1       1.613   6.922  20.745  0.00  0.00    +0.000 OA
ENDROOT
BRANCH   1  12
ATOM     12  C   UNL     1       2.468   8.086  18.109  0.00  0.00    +0.000 C 
ATOM     13  O   UNL     1       3.140   8.457  17.153  0.00  0.00    +0.000 OA
BRANCH  12  15
ATOM     14  C   UNL     1       1.346  10.279  18.496  0.00  0.00    +0.000 C 
ATOM     15  C   UNL     1       1.528   8.990  18.814  0.00  0.00    +0.000 C 
BRANCH  14  16
ATOM     16  C   UNL     1       0.269  11.010  19.227  0.00  0.00    +0.000 C 
ATOM     17  O   UNL     1       0.033  12.204  19.145  0.00  0.00    +0.000 OA
BRANCH  16  18
ATOM     18  O   UNL     1      -0.294  10.129  20.101  0.00  0.00    +0.000 OA
BRANCH  18  20
ATOM     19  C   UNL     1      -0.251   9.536  22.415  0.00  0.00    +0.000 C 
ATOM     20  C   UNL     1      -0.504  10.654  21.419  0.00  0.00    +0.000 C 
ENDBRANCH  18  20
ENDBRANCH  16  18
ENDBRANCH  14  16
BRANCH  14  21
ATOM     21  O   UNL     1       2.058  10.932  17.506  0.00  0.00    +0.000 OA
ATOM     22  H   UNL     1       2.611  10.246  17.076  0.00  0.00    +0.000 HD
ENDBRANCH  14  21
ENDBRANCH  12  15
ENDBRANCH   1  12
BRANCH   3  23
ATOM     23  C   UNL     1       3.795   3.514  16.937  0.00  0.00    +0.000 C 
BRANCH  23  24
ATOM     24  C   UNL     1       5.064   4.083  16.345  0.00  0.00    +0.000 A 
ATOM     25  C   UNL     1       5.192   4.311  14.964  0.00  0.00    +0.000 A 
ATOM     26  C   UNL     1       6.403   4.747  14.421  0.00  0.00    +0.000 A 
ATOM     27  C   UNL     1       7.504   4.966  15.247  0.00  0.00    +0.000 A 
ATOM     28  C   UNL     1       7.388   4.762  16.619  0.00  0.00    +0.000 A 
ATOM     29  C   UNL     1       6.178   4.323  17.154  0.00  0.00    +0.000 A 
ATOM     30  F   UNL     1       6.105   4.111  18.476  0.00  0.00    +0.000 F 
ENDBRANCH  23  24
ENDBRANCH   3  23
TORSDOF 8
ENDMDL
MODEL 8
REMARK VINA RESULT:      -8.3      3.549      7.112
REMARK  Name = 
REMARK  9 active torsions:
REMARK  status: ('A' for Active; 'I' for Inactive)
REMARK    1  A    between atoms: C_1  and  C_2
REMARK    2  A    between atoms: C_2  and  O_3
REMARK    3  A    between atoms: O_3  and  C_4
REMARK    4  A    between atoms: C_4  and  C_6
REMARK    5  A    between atoms: C_6  and  O_7
REMARK    6  A    between atoms: C_8  and  C_9
REMARK    7  A    between atoms: C_9  and  C_11
REMARK    8  A    between atoms: N_13  and  C_14
REMARK    9  A    between atoms: C_14  and  C_15
REMARK                            x       y       z     vdW  Elec       q    Type
REMARK                         _______ _______ _______ _____ _____    ______ ____
ROOT
ATOM      1  C   UNL     1       2.423   6.787  18.585  0.00  0.00    +0.000 A 
ATOM      2  C   UNL     1       2.887   5.884  17.706  0.00  0.00    +0.000 A 
ATOM      3  N   UNL     1       3.105   4.530  17.933  0.00  0.00    +0.000 N 
ATOM      4  C   UNL     1       2.843   4.003  19.219  0.00  0.00    +0.000 A 
ATOM      5  C   UNL     1       3.076   2.668  19.582  0.00  0.00    +0.000 A 
ATOM      6  C   UNL     1       2.805   2.198  20.874  0.00  0.00    +0.000 A 
ATOM      7  C   UNL     1       2.279   3.048  21.838  0.00  0.00    +0.000 A 
ATOM      8  C   UNL     1       2.029   4.374  21.513  0.00  0.00    +0.000 A 
ATOM      9  C   UNL     1       2.314   4.846  20.220  0.00  0.00    +0.000 A 
ATOM     10  C   UNL     1       2.069   6.280  19.931  0.00  0.00    +0.000 A 
ATOM     11  O   UNL     1       1.602   7.011  20.799  0.00  0.00    +0.000 OA
ENDROOT
BRANCH   1  12
ATOM     12  C   UNL     1       2.367   8.214  18.152  0.00  0.00    +0.000 C 
ATOM     13  O   UNL     1       3.084   8.625  17.247  0.00  0.00    +0.000 OA
BRANCH  12  15
ATOM     14  C   UNL     1       1.222  10.386  18.584  0.00  0.00    +0.000 C 
ATOM     15  C   UNL     1       1.352   9.072  18.809  0.00  0.00    +0.000 C 
BRANCH  14  16
ATOM     16  C   UNL     1       0.066  11.073  19.234  0.00  0.00    +0.000 C 
ATOM     17  O   UNL     1      -0.235  11.005  20.414  0.00  0.00    +0.000 OA
BRANCH  16  18
ATOM     18  O   UNL     1      -0.662  11.660  18.242  0.00  0.00    +0.000 OA
BRANCH  18  20
ATOM     19  C   UNL     1      -2.352  10.083  17.638  0.00  0.00    +0.000 C 
ATOM     20  C   UNL     1      -2.073  11.412  18.318  0.00  0.00    +0.000 C 
ENDBRANCH  18  20
ENDBRANCH  16  18
ENDBRANCH  14  16
BRANCH  14  21
ATOM     21  O   UNL     1       2.060  11.108  17.754  0.00  0.00    +0.000 OA
ATOM     22  H   UNL     1       2.853  10.548  17.621  0.00  0.00    +0.000 HD
ENDBRANCH  14  21
ENDBRANCH  12  15
ENDBRANCH   1  12
BRANCH   3  23
ATOM     23  C   UNL     1       3.687   3.667  16.881  0.00  0.00    +0.000 C 
BRANCH  23  24
ATOM     24  C   UNL     1       5.004   4.185  16.351  0.00  0.00    +0.000 A 
ATOM     25  C   UNL     1       5.187   4.464  14.986  0.00  0.00    +0.000 A 
ATOM     26  C   UNL     1       6.437   4.852  14.497  0.00  0.00    +0.000 A 
ATOM     27  C   UNL     1       7.523   4.972  15.362  0.00  0.00    +0.000 A 
ATOM     28  C   UNL     1       7.353   4.718  16.721  0.00  0.00    +0.000 A 
ATOM     29  C   UNL     1       6.104   4.327  17.201  0.00  0.00    +0.000 A 
ATOM     30  F   UNL     1       5.979   4.064  18.510  0.00  0.00    +0.000 F 
ENDBRANCH  23  24
ENDBRANCH   3  23
TORSDOF 8
ENDMDL
MODEL 9
REMARK VINA RESULT:      -8.2      1.202      1.391
REMARK  Name = 
REMARK  9 active torsions:
REMARK  status: ('A' for Active; 'I' for Inactive)
REMARK    1  A    between atoms: C_1  and  C_2
REMARK    2  A    between atoms: C_2  and  O_3
REMARK    3  A    between atoms: O_3  and  C_4
REMARK    4  A    between atoms: C_4  and  C_6
REMARK    5  A    between atoms: C_6  and  O_7
REMARK    6  A    between atoms: C_8  and  C_9
REMARK    7  A    between atoms: C_9  and  C_11
REMARK    8  A    between atoms: N_13  and  C_14
REMARK    9  A    between atoms: C_14  and  C_15
REMARK                            x       y       z     vdW  Elec       q    Type
REMARK                         _______ _______ _______ _____ _____    ______ ____
ROOT
ATOM      1  C   UNL     1       5.219   5.970  18.193  0.00  0.00    +0.000 A 
ATOM      2  C   UNL     1       4.087   6.636  17.910  0.00  0.00    +0.000 A 
ATOM      3  N   UNL     1       2.796   6.297  18.299  0.00  0.00    +0.000 N 
ATOM      4  C   UNL     1       2.601   5.121  19.058  0.00  0.00    +0.000 A 
ATOM      5  C   UNL     1       1.342   4.648  19.461  0.00  0.00    +0.000 A 
ATOM      6  C   UNL     1       1.202   3.470  20.208  0.00  0.00    +0.000 A 
ATOM      7  C   UNL     1       2.320   2.738  20.587  0.00  0.00    +0.000 A 
ATOM      8  C   UNL     1       3.582   3.179  20.213  0.00  0.00    +0.000 A 
ATOM      9  C   UNL     1       3.718   4.353  19.452  0.00  0.00    +0.000 A 
ATOM     10  C   UNL     1       5.083   4.764  19.041  0.00  0.00    +0.000 A 
ATOM     11  O   UNL     1       6.055   4.102  19.390  0.00  0.00    +0.000 OA
ENDROOT
BRANCH   1  12
ATOM     12  C   UNL     1       6.488   6.462  17.580  0.00  0.00    +0.000 C 
ATOM     13  O   UNL     1       7.336   7.027  18.261  0.00  0.00    +0.000 OA
BRANCH  12  15
ATOM     14  C   UNL     1       6.850   4.918  15.656  0.00  0.00    +0.000 C 
ATOM     15  C   UNL     1       6.698   6.157  16.145  0.00  0.00    +0.000 C 
BRANCH  14  16
ATOM     16  C   UNL     1       6.926   4.782  14.172  0.00  0.00    +0.000 C 
ATOM     17  O   UNL     1       7.579   5.488  13.421  0.00  0.00    +0.000 OA
BRANCH  16  18
ATOM     18  O   UNL     1       6.025   3.826  13.809  0.00  0.00    +0.000 OA
BRANCH  18  20
ATOM     19  C   UNL     1       4.773   3.323  11.837  0.00  0.00    +0.000 C 
ATOM     20  C   UNL     1       6.159   3.369  12.455  0.00  0.00    +0.000 C 
ENDBRANCH  18  20
ENDBRANCH  16  18
ENDBRANCH  14  16
BRANCH  14  21
ATOM     21  O   UNL     1       6.884   3.783  16.445  0.00  0.00    +0.000 OA
ATOM     22  H   UNL     1       7.336   4.045  17.273  0.00  0.00    +0.000 HD
ENDBRANCH  14  21
ENDBRANCH  12  15
ENDBRANCH   1  12
BRANCH   3  23
ATOM     23  C   UNL     1       1.633   7.095  17.852  0.00  0.00    +0.000 C 
BRANCH  23  24
ATOM     24  C   UNL     1       1.535   8.437  18.541  0.00  0.00    +0.000 A 
ATOM     25  C   UNL     1       1.761   9.637  17.847  0.00  0.00    +0.000 A 
ATOM     26  C   UNL     1       1.759  10.863  18.519  0.00  0.00    +0.000 A 
ATOM     27  C   UNL     1       1.528  10.910  19.892  0.00  0.00    +0.000 A 
ATOM     28  C   UNL     1       1.283   9.731  20.591  0.00  0.00    +0.000 A 
ATOM     29  C   UNL     1       1.291   8.512  19.915  0.00  0.00    +0.000 A 
ATOM     30  F   UNL     1       1.077   7.391  20.620  0.00  0.00    +0.000 F 
ENDBRANCH  23  24
ENDBRANCH   3  23
TORSDOF 8
ENDMDL
