MODEL 1
REMARK VINA RESULT:      -8.4      0.000      0.000
REMARK  Name = 
REMARK  5 active torsions:
REMARK  status: ('A' for Active; 'I' for Inactive)
REMARK    1  A    between atoms: C_1  and  O_2
REMARK    2  A    between atoms: O_2  and  C_3
REMARK    3  A    between atoms: C_8  and  C_9
REMARK    4  A    between atoms: N_11  and  C_12
REMARK    5  A    between atoms: C_12  and  C_13
REMARK                            x       y       z     vdW  Elec       q    Type
REMARK                         _______ _______ _______ _____ _____    ______ ____
ROOT
ATOM      1  C   UNL     1       1.789   8.678  18.546  0.00  0.00    +0.000 C 
ATOM      2  O   UNL     1       2.288   8.977  17.463  0.00  0.00    +0.000 OA
ATOM      3  N   UNL     1       2.112   7.510  19.197  0.00  0.00    +0.000 N 
ATOM      4  H   UNL     1       1.711   7.335  20.108  0.00  0.00    +0.000 HD
ENDROOT
BRANCH   1  10
ATOM      5  C   UNL     1      -0.970  11.269  18.769  0.00  0.00    +0.000 A 
ATOM      6  C   UNL     1      -1.174  11.402  20.138  0.00  0.00    +0.000 A 
ATOM      7  C   UNL     1      -0.405  10.655  21.029  0.00  0.00    +0.000 A 
ATOM      8  C   UNL     1       0.575   9.763  20.569  0.00  0.00    +0.000 A 
ATOM      9 CL   UNL     1       1.432   8.924  21.815  0.00  0.00    +0.000 Cl
ATOM     10  C   UNL     1       0.796   9.607  19.191  0.00  0.00    +0.000 A 
ATOM     11  C   UNL     1       0.007  10.377  18.308  0.00  0.00    +0.000 A 
BRANCH   5  13
ATOM     12  C   UNL     1      -2.441  11.160  16.904  0.00  0.00    +0.000 C 
ATOM     13  O   UNL     1      -1.654  11.943  17.796  0.00  0.00    +0.000 OA
ENDBRANCH   5  13
ENDBRANCH   1  10
BRANCH   3  14
ATOM     14  C   UNL     1       3.032   6.513  18.678  0.00  0.00    +0.000 C 
BRANCH  14  15
ATOM     15  C   UNL     1       2.679   5.070  19.110  0.00  0.00    +0.000 C 
ATOM     16  C   UNL     1       1.775   5.069  20.368  0.00  0.00    +0.000 C 
ATOM     17  C   UNL     1       1.400   3.631  20.768  0.00  0.00    +0.000 C 
ATOM     18  C   UNL     1       0.644   2.961  19.609  0.00  0.00    +0.000 C 
ATOM     19  C   UNL     1       1.531   2.925  18.354  0.00  0.00    +0.000 C 
ATOM     20  C   UNL     1       2.810   2.130  18.660  0.00  0.00    +0.000 C 
ATOM     21  C   UNL     1       3.577   2.795  19.813  0.00  0.00    +0.000 C 
ATOM     22  C   UNL     1       2.682   2.836  21.064  0.00  0.00    +0.000 C 
ATOM     23  C   UNL     1       3.950   4.233  19.414  0.00  0.00    +0.000 C 
ATOM     24  C   UNL     1       1.909   4.365  17.961  0.00  0.00    +0.000 C 
ENDBRANCH  14  15
ENDBRANCH   3  14
TORSDOF 4
ENDMDL
MODEL 2
REMARK VINA RESULT:      -8.4      0.052      1.579
REMARK  Name = 
REMARK  5 active torsions:
REMARK  status: ('A' for Active; 'I' for Inactive)
REMARK    1  A    between atoms: C_1  and  O_2
REMARK    2  A    between atoms: O_2  and  C_3
REMARK    3  A    between atoms: C_8  and  C_9
REMARK    4  A    between atoms: N_11  and  C_12
REMARK    5  A    between atoms: C_12  and  C_13
REMARK                            x       y       z     vdW  Elec       q    Type
REMARK                         _______ _______ _______ _____ _____    ______ ____
ROOT
ATOM      1  C   UNL     1       1.781   8.689  18.590  0.00  0.00    +0.000 C 
ATOM      2  O   UNL     1       2.269   8.980  17.500  0.00  0.00    +0.000 OA
ATOM      3  N   UNL     1       2.109   7.525  19.245  0.00  0.00    +0.000 N 
ATOM      4  H   UNL     1       1.717   7.356  20.161  0.00  0.00    +0.000 HD
ENDROOT
BRANCH   1  10
ATOM      5  C   UNL     1      -0.954  11.304  18.824  0.00  0.00    +0.000 A 
ATOM      6  C   UNL     1      -1.159  11.430  20.193  0.00  0.00    +0.000 A 
ATOM      7  C   UNL     1      -0.399  10.671  21.081  0.00  0.00    +0.000 A 
ATOM      8  C   UNL     1       0.572   9.772  20.617  0.00  0.00    +0.000 A 
ATOM      9 CL   UNL     1       1.419   8.917  21.860  0.00  0.00    +0.000 Cl
ATOM     10  C   UNL     1       0.795   9.623  19.238  0.00  0.00    +0.000 A 
ATOM     11  C   UNL     1       0.015  10.406  18.359  0.00  0.00    +0.000 A 
BRANCH   5  13
ATOM     12  C   UNL     1      -2.451  11.225  16.978  0.00  0.00    +0.000 C 
ATOM     13  O   UNL     1      -1.629  11.991  17.854  0.00  0.00    +0.000 OA
ENDBRANCH   5  13
ENDBRANCH   1  10
BRANCH   3  14
ATOM     14  C   UNL     1       3.023   6.523  18.723  0.00  0.00    +0.000 C 
BRANCH  14  15
ATOM     15  C   UNL     1       2.636   5.078  19.115  0.00  0.00    +0.000 C 
ATOM     16  C   UNL     1       1.898   4.363  17.955  0.00  0.00    +0.000 C 
ATOM     17  C   UNL     1       1.550   2.915  18.341  0.00  0.00    +0.000 C 
ATOM     18  C   UNL     1       2.844   2.147  18.658  0.00  0.00    +0.000 C 
ATOM     19  C   UNL     1       3.583   2.822  19.825  0.00  0.00    +0.000 C 
ATOM     20  C   UNL     1       2.674   2.828  21.064  0.00  0.00    +0.000 C 
ATOM     21  C   UNL     1       1.380   3.598  20.761  0.00  0.00    +0.000 C 
ATOM     22  C   UNL     1       0.649   2.924  19.587  0.00  0.00    +0.000 C 
ATOM     23  C   UNL     1       1.728   5.045  20.373  0.00  0.00    +0.000 C 
ATOM     24  C   UNL     1       3.924   4.272  19.437  0.00  0.00    +0.000 C 
ENDBRANCH  14  15
ENDBRANCH   3  14
TORSDOF 4
ENDMDL
MODEL 3
REMARK VINA RESULT:      -8.4      0.101      1.575
REMARK  Name = 
REMARK  5 active torsions:
REMARK  status: ('A' for Active; 'I' for Inactive)
REMARK    1  A    between atoms: C_1  and  O_2
REMARK    2  A    between atoms: O_2  and  C_3
REMARK    3  A    between atoms: C_8  and  C_9
REMARK    4  A    between atoms: N_11  and  C_12
REMARK    5  A    between atoms: C_12  and  C_13
REMARK                            x       y       z     vdW  Elec       q    Type
REMARK                         _______ _______ _______ _____ _____    ______ ____
ROOT
ATOM      1  C   UNL     1       1.821   8.639  18.557  0.00  0.00    +0.000 C 
ATOM      2  O   UNL     1       2.287   8.920  17.455  0.00  0.00    +0.000 OA
ATOM      3  N   UNL     1       2.172   7.487  19.222  0.00  0.00    +0.000 N 
ATOM      4  H   UNL     1       1.797   7.327  20.147  0.00  0.00    +0.000 HD
ENDROOT
BRANCH   1  10
ATOM      5  C   UNL     1      -0.898  11.270  18.802  0.00  0.00    +0.000 A 
ATOM      6  C   UNL     1      -1.114  11.380  20.171  0.00  0.00    +0.000 A 
ATOM      7  C   UNL     1      -0.366  10.604  21.056  0.00  0.00    +0.000 A 
ATOM      8  C   UNL     1       0.603   9.705  20.588  0.00  0.00    +0.000 A 
ATOM      9 CL   UNL     1       1.434   8.828  21.827  0.00  0.00    +0.000 Cl
ATOM     10  C   UNL     1       0.836   9.572  19.209  0.00  0.00    +0.000 A 
ATOM     11  C   UNL     1       0.069  10.370  18.334  0.00  0.00    +0.000 A 
BRANCH   5  13
ATOM     12  C   UNL     1      -2.657  11.320  17.203  0.00  0.00    +0.000 C 
ATOM     13  O   UNL     1      -1.561  11.973  17.836  0.00  0.00    +0.000 OA
ENDBRANCH   5  13
ENDBRANCH   1  10
BRANCH   3  14
ATOM     14  C   UNL     1       3.087   6.488  18.699  0.00  0.00    +0.000 C 
BRANCH  14  15
ATOM     15  C   UNL     1       2.700   5.041  19.084  0.00  0.00    +0.000 C 
ATOM     16  C   UNL     1       3.956   4.194  19.412  0.00  0.00    +0.000 C 
ATOM     17  C   UNL     1       3.557   2.768  19.829  0.00  0.00    +0.000 C 
ATOM     18  C   UNL     1       2.659   2.833  21.076  0.00  0.00    +0.000 C 
ATOM     19  C   UNL     1       1.392   3.646  20.768  0.00  0.00    +0.000 C 
ATOM     20  C   UNL     1       0.625   2.974  19.619  0.00  0.00    +0.000 C 
ATOM     21  C   UNL     1       1.510   2.908  18.365  0.00  0.00    +0.000 C 
ATOM     22  C   UNL     1       2.781   2.101  18.680  0.00  0.00    +0.000 C 
ATOM     23  C   UNL     1       1.910   4.335  17.950  0.00  0.00    +0.000 C 
ATOM     24  C   UNL     1       1.795   5.071  20.345  0.00  0.00    +0.000 C 
ENDBRANCH  14  15
ENDBRANCH   3  14
TORSDOF 4
ENDMDL
MODEL 4
REMARK VINA RESULT:      -8.1      3.043      4.520
REMARK  Name = 
REMARK  5 active torsions:
REMARK  status: ('A' for Active; 'I' for Inactive)
REMARK    1  A    between atoms: C_1  and  O_2
REMARK    2  A    between atoms: O_2  and  C_3
REMARK    3  A    between atoms: C_8  and  C_9
REMARK    4  A    between atoms: N_11  and  C_12
REMARK    5  A    between atoms: C_12  and  C_13
REMARK                            x       y       z     vdW  Elec       q    Type
REMARK                         _______ _______ _______ _____ _____    ______ ____
ROOT
ATOM      1  C   UNL     1       1.968   6.932  20.310  0.00  0.00    +0.000 C 
ATOM      2  O   UNL     1       1.388   5.992  20.849  0.00  0.00    +0.000 OA
ATOM      3  N   UNL     1       3.164   6.766  19.652  0.00  0.00    +0.000 N 
ATOM      4  H   UNL     1       3.575   7.562  19.184  0.00  0.00    +0.000 HD
ENDROOT
BRANCH   1  10
ATOM      5  C   UNL     1       0.330   9.995  21.830  0.00  0.00    +0.000 A 
ATOM      6  C   UNL     1       0.223  10.867  20.753  0.00  0.00    +0.000 A 
ATOM      7  C   UNL     1       0.674  10.474  19.494  0.00  0.00    +0.000 A 
ATOM      8  C   UNL     1       1.242   9.207  19.292  0.00  0.00    +0.000 A 
ATOM      9 CL   UNL     1       1.743   8.890  17.667  0.00  0.00    +0.000 Cl
ATOM     10  C   UNL     1       1.365   8.309  20.365  0.00  0.00    +0.000 A 
ATOM     11  C   UNL     1       0.898   8.729  21.630  0.00  0.00    +0.000 A 
BRANCH   5  13
ATOM     12  C   UNL     1      -1.250  11.050  23.259  0.00  0.00    +0.000 C 
ATOM     13  O   UNL     1      -0.075  10.259  23.109  0.00  0.00    +0.000 OA
ENDBRANCH   5  13
ENDBRANCH   1  10
BRANCH   3  14
ATOM     14  C   UNL     1       3.870   5.501  19.545  0.00  0.00    +0.000 C 
BRANCH  14  15
ATOM     15  C   UNL     1       5.003   5.517  18.492  0.00  0.00    +0.000 C 
ATOM     16  C   UNL     1       4.831   6.701  17.505  0.00  0.00    +0.000 C 
ATOM     17  C   UNL     1       5.982   6.730  16.485  0.00  0.00    +0.000 C 
ATOM     18  C   UNL     1       7.319   6.889  17.228  0.00  0.00    +0.000 C 
ATOM     19  C   UNL     1       7.525   5.712  18.194  0.00  0.00    +0.000 C 
ATOM     20  C   UNL     1       7.535   4.398  17.398  0.00  0.00    +0.000 C 
ATOM     21  C   UNL     1       6.201   4.225  16.656  0.00  0.00    +0.000 C 
ATOM     22  C   UNL     1       5.995   5.410  15.696  0.00  0.00    +0.000 C 
ATOM     23  C   UNL     1       5.051   4.198  17.677  0.00  0.00    +0.000 C 
ATOM     24  C   UNL     1       6.369   5.682  19.211  0.00  0.00    +0.000 C 
ENDBRANCH  14  15
ENDBRANCH   3  14
TORSDOF 4
ENDMDL
MODEL 5
REMARK VINA RESULT:      -8.1      1.089      2.001
REMARK  Name = 
REMARK  5 active torsions:
REMARK  status: ('A' for Active; 'I' for Inactive)
REMARK    1  A    between atoms: C_1  and  O_2
REMARK    2  A    between atoms: O_2  and  C_3
REMARK    3  A    between atoms: C_8  and  C_9
REMARK    4  A    between atoms: N_11  and  C_12
REMARK    5  A    between atoms: C_12  and  C_13
REMARK                            x       y       z     vdW  Elec       q    Type
REMARK                         _______ _______ _______ _____ _____    ______ ____
ROOT
ATOM      1  C   UNL     1       1.534   9.067  18.273  0.00  0.00    +0.000 C 
ATOM      2  O   UNL     1       2.348   9.434  17.428  0.00  0.00    +0.000 OA
ATOM      3  N   UNL     1       1.756   7.965  19.065  0.00  0.00    +0.000 N 
ATOM      4  H   UNL     1       1.077   7.735  19.777  0.00  0.00    +0.000 HD
ENDROOT
BRANCH   1  10
ATOM      5  C   UNL     1      -2.000  10.236  17.553  0.00  0.00    +0.000 A 
ATOM      6  C   UNL     1      -2.262  11.122  18.591  0.00  0.00    +0.000 A 
ATOM      7  C   UNL     1      -1.283  11.373  19.552  0.00  0.00    +0.000 A 
ATOM      8  C   UNL     1      -0.033  10.740  19.494  0.00  0.00    +0.000 A 
ATOM      9 CL   UNL     1       1.056  11.172  20.767  0.00  0.00    +0.000 Cl
ATOM     10  C   UNL     1       0.254   9.837  18.457  0.00  0.00    +0.000 A 
ATOM     11  C   UNL     1      -0.752   9.602  17.494  0.00  0.00    +0.000 A 
BRANCH   5  13
ATOM     12  C   UNL     1      -3.002  10.842  15.483  0.00  0.00    +0.000 C 
ATOM     13  O   UNL     1      -2.871   9.908  16.551  0.00  0.00    +0.000 OA
ENDBRANCH   5  13
ENDBRANCH   1  10
BRANCH   3  14
ATOM     14  C   UNL     1       2.932   7.117  18.975  0.00  0.00    +0.000 C 
BRANCH  14  15
ATOM     15  C   UNL     1       2.627   5.619  19.211  0.00  0.00    +0.000 C 
ATOM     16  C   UNL     1       3.926   4.822  19.495  0.00  0.00    +0.000 C 
ATOM     17  C   UNL     1       3.608   3.341  19.764  0.00  0.00    +0.000 C 
ATOM     18  C   UNL     1       2.679   3.233  20.985  0.00  0.00    +0.000 C 
ATOM     19  C   UNL     1       1.371   3.994  20.718  0.00  0.00    +0.000 C 
ATOM     20  C   UNL     1       0.674   3.390  19.490  0.00  0.00    +0.000 C 
ATOM     21  C   UNL     1       1.591   3.497  18.262  0.00  0.00    +0.000 C 
ATOM     22  C   UNL     1       2.902   2.742  18.536  0.00  0.00    +0.000 C 
ATOM     23  C   UNL     1       1.910   4.979  17.994  0.00  0.00    +0.000 C 
ATOM     24  C   UNL     1       1.693   5.475  20.443  0.00  0.00    +0.000 C 
ENDBRANCH  14  15
ENDBRANCH   3  14
TORSDOF 4
ENDMDL
MODEL 6
REMARK VINA RESULT:      -8.1      0.855      1.000
REMARK  Name = 
REMARK  5 active torsions:
REMARK  status: ('A' for Active; 'I' for Inactive)
REMARK    1  A    between atoms: C_1  and  O_2
REMARK    2  A    between atoms: O_2  and  C_3
REMARK    3  A    between atoms: C_8  and  C_9
REMARK    4  A    between atoms: N_11  and  C_12
REMARK    5  A    between atoms: C_12  and  C_13
REMARK                            x       y       z     vdW  Elec       q    Type
REMARK                         _______ _______ _______ _____ _____    ______ ____
ROOT
ATOM      1  C   UNL     1       1.933   8.653  18.485  0.00  0.00    +0.000 C 
ATOM      2  O   UNL     1       2.235   8.868  17.313  0.00  0.00    +0.000 OA
ATOM      3  N   UNL     1       2.317   7.504  19.135  0.00  0.00    +0.000 N 
ATOM      4  H   UNL     1       2.084   7.398  20.113  0.00  0.00    +0.000 HD
ENDROOT
BRANCH   1  10
ATOM      5  C   UNL     1      -0.084  11.808  19.078  0.00  0.00    +0.000 A 
ATOM      6  C   UNL     1      -0.457  11.703  20.413  0.00  0.00    +0.000 A 
ATOM      7  C   UNL     1      -0.049  10.601  21.162  0.00  0.00    +0.000 A 
ATOM      8  C   UNL     1       0.733   9.586  20.590  0.00  0.00    +0.000 A 
ATOM      9 CL   UNL     1       1.147   8.298  21.668  0.00  0.00    +0.000 Cl
ATOM     10  C   UNL     1       1.118   9.667  19.242  0.00  0.00    +0.000 A 
ATOM     11  C   UNL     1       0.695  10.795  18.505  0.00  0.00    +0.000 A 
BRANCH   5  13
ATOM     12  C   UNL     1      -0.336  14.154  18.776  0.00  0.00    +0.000 C 
ATOM     13  O   UNL     1      -0.417  12.836  18.240  0.00  0.00    +0.000 OA
ENDBRANCH   5  13
ENDBRANCH   1  10
BRANCH   3  14
ATOM     14  C   UNL     1       3.079   6.432  18.518  0.00  0.00    +0.000 C 
BRANCH  14  15
ATOM     15  C   UNL     1       2.694   5.027  19.040  0.00  0.00    +0.000 C 
ATOM     16  C   UNL     1       1.790   5.126  20.295  0.00  0.00    +0.000 C 
ATOM     17  C   UNL     1       1.383   3.725  20.784  0.00  0.00    +0.000 C 
ATOM     18  C   UNL     1       0.611   3.000  19.668  0.00  0.00    +0.000 C 
ATOM     19  C   UNL     1       1.497   2.866  18.419  0.00  0.00    +0.000 C 
ATOM     20  C   UNL     1       2.758   2.063  18.776  0.00  0.00    +0.000 C 
ATOM     21  C   UNL     1       3.540   2.781  19.886  0.00  0.00    +0.000 C 
ATOM     22  C   UNL     1       2.647   2.921  21.130  0.00  0.00    +0.000 C 
ATOM     23  C   UNL     1       3.945   4.183  19.397  0.00  0.00    +0.000 C 
ATOM     24  C   UNL     1       1.908   4.269  17.936  0.00  0.00    +0.000 C 
ENDBRANCH  14  15
ENDBRANCH   3  14
TORSDOF 4
ENDMDL
MODEL 7
REMARK VINA RESULT:      -8.1      1.718      2.281
REMARK  Name = 
REMARK  5 active torsions:
REMARK  status: ('A' for Active; 'I' for Inactive)
REMARK    1  A    between atoms: C_1  and  O_2
REMARK    2  A    between atoms: O_2  and  C_3
REMARK    3  A    between atoms: C_8  and  C_9
REMARK    4  A    between atoms: N_11  and  C_12
REMARK    5  A    between atoms: C_12  and  C_13
REMARK                            x       y       z     vdW  Elec       q    Type
REMARK                         _______ _______ _______ _____ _____    ______ ____
ROOT
ATOM      1  C   UNL     1       1.538   9.095  18.446  0.00  0.00    +0.000 C 
ATOM      2  O   UNL     1       2.075   9.382  17.378  0.00  0.00    +0.000 OA
ATOM      3  N   UNL     1       1.913   7.988  19.172  0.00  0.00    +0.000 N 
ATOM      4  H   UNL     1       1.472   7.824  20.067  0.00  0.00    +0.000 HD
ENDROOT
BRANCH   1  10
ATOM      5  C   UNL     1      -0.236  11.438  20.840  0.00  0.00    +0.000 A 
ATOM      6  C   UNL     1      -1.445  11.691  20.203  0.00  0.00    +0.000 A 
ATOM      7  C   UNL     1      -1.720  11.092  18.975  0.00  0.00    +0.000 A 
ATOM      8  C   UNL     1      -0.793  10.236  18.363  0.00  0.00    +0.000 A 
ATOM      9 CL   UNL     1      -1.304   9.583  16.845  0.00  0.00    +0.000 Cl
ATOM     10  C   UNL     1       0.438   9.968  18.985  0.00  0.00    +0.000 A 
ATOM     11  C   UNL     1       0.692  10.584  20.230  0.00  0.00    +0.000 A 
BRANCH   5  13
ATOM     12  C   UNL     1      -0.860  12.587  22.827  0.00  0.00    +0.000 C 
ATOM     13  O   UNL     1       0.151  11.960  22.044  0.00  0.00    +0.000 OA
ENDBRANCH   5  13
ENDBRANCH   1  10
BRANCH   3  14
ATOM     14  C   UNL     1       2.938   7.047  18.758  0.00  0.00    +0.000 C 
BRANCH  14  15
ATOM     15  C   UNL     1       2.620   5.584  19.149  0.00  0.00    +0.000 C 
ATOM     16  C   UNL     1       1.684   5.526  20.383  0.00  0.00    +0.000 C 
ATOM     17  C   UNL     1       1.345   4.069  20.741  0.00  0.00    +0.000 C 
ATOM     18  C   UNL     1       0.641   3.401  19.547  0.00  0.00    +0.000 C 
ATOM     19  C   UNL     1       1.561   3.422  18.317  0.00  0.00    +0.000 C 
ATOM     20  C   UNL     1       2.857   2.661  18.638  0.00  0.00    +0.000 C 
ATOM     21  C   UNL     1       3.572   3.323  19.826  0.00  0.00    +0.000 C 
ATOM     22  C   UNL     1       2.645   3.307  21.053  0.00  0.00    +0.000 C 
ATOM     23  C   UNL     1       3.909   4.781  19.468  0.00  0.00    +0.000 C 
ATOM     24  C   UNL     1       1.903   4.882  17.965  0.00  0.00    +0.000 C 
ENDBRANCH  14  15
ENDBRANCH   3  14
TORSDOF 4
ENDMDL
MODEL 8
REMARK VINA RESULT:      -8.1      1.757      2.796
REMARK  Name = 
REMARK  5 active torsions:
REMARK  status: ('A' for Active; 'I' for Inactive)
REMARK    1  A    between atoms: C_1  and  O_2
REMARK    2  A    between atoms: O_2  and  C_3
REMARK    3  A    between atoms: C_8  and  C_9
REMARK    4  A    between atoms: N_11  and  C_12
REMARK    5  A    between atoms: C_12  and  C_13
REMARK                            x       y       z     vdW  Elec       q    Type
REMARK                         _______ _______ _______ _____ _____    ______ ____
ROOT
ATOM      1  C   UNL     1       1.464   9.192  18.466  0.00  0.00    +0.000 C 
ATOM      2  O   UNL     1       2.009   9.505  17.410  0.00  0.00    +0.000 OA
ATOM      3  N   UNL     1       1.827   8.064  19.165  0.00  0.00    +0.000 N 
ATOM      4  H   UNL     1       1.380   7.879  20.053  0.00  0.00    +0.000 HD
ENDROOT
BRANCH   1  10
ATOM      5  C   UNL     1      -0.284  11.531  20.885  0.00  0.00    +0.000 A 
ATOM      6  C   UNL     1      -1.508  11.770  20.270  0.00  0.00    +0.000 A 
ATOM      7  C   UNL     1      -1.802  11.162  19.051  0.00  0.00    +0.000 A 
ATOM      8  C   UNL     1      -0.879  10.312  18.425  0.00  0.00    +0.000 A 
ATOM      9 CL   UNL     1      -1.414   9.646  16.920  0.00  0.00    +0.000 Cl
ATOM     10  C   UNL     1       0.366  10.059  19.023  0.00  0.00    +0.000 A 
ATOM     11  C   UNL     1       0.640  10.683  20.260  0.00  0.00    +0.000 A 
BRANCH   5  13
ATOM     12  C   UNL     1      -0.823  12.865  22.778  0.00  0.00    +0.000 C 
ATOM     13  O   UNL     1       0.122  12.063  22.077  0.00  0.00    +0.000 OA
ENDBRANCH   5  13
ENDBRANCH   1  10
BRANCH   3  14
ATOM     14  C   UNL     1       2.848   7.127  18.730  0.00  0.00    +0.000 C 
BRANCH  14  15
ATOM     15  C   UNL     1       2.534   5.660  19.109  0.00  0.00    +0.000 C 
ATOM     16  C   UNL     1       1.841   4.916  17.940  0.00  0.00    +0.000 C 
ATOM     17  C   UNL     1       1.567   3.449  18.314  0.00  0.00    +0.000 C 
ATOM     18  C   UNL     1       2.898   2.748  18.633  0.00  0.00    +0.000 C 
ATOM     19  C   UNL     1       3.594   3.451  19.808  0.00  0.00    +0.000 C 
ATOM     20  C   UNL     1       2.680   3.401  21.042  0.00  0.00    +0.000 C 
ATOM     21  C   UNL     1       1.349   4.105  20.738  0.00  0.00    +0.000 C 
ATOM     22  C   UNL     1       0.660   3.403  19.555  0.00  0.00    +0.000 C 
ATOM     23  C   UNL     1       1.623   5.571  20.362  0.00  0.00    +0.000 C 
ATOM     24  C   UNL     1       3.861   4.921  19.433  0.00  0.00    +0.000 C 
ENDBRANCH  14  15
ENDBRANCH   3  14
TORSDOF 4
ENDMDL
MODEL 9
REMARK VINA RESULT:      -8.0      1.086      1.256
REMARK  Name = 
REMARK  5 active torsions:
REMARK  status: ('A' for Active; 'I' for Inactive)
REMARK    1  A    between atoms: C_1  and  O_2
REMARK    2  A    between atoms: O_2  and  C_3
REMARK    3  A    between atoms: C_8  and  C_9
REMARK    4  A    between atoms: N_11  and  C_12
REMARK    5  A    between atoms: C_12  and  C_13
REMARK                            x       y       z     vdW  Elec       q    Type
REMARK                         _______ _______ _______ _____ _____    ______ ____
ROOT
ATOM      1  C   UNL     1       1.556   9.055  18.241  0.00  0.00    +0.000 C 
ATOM      2  O   UNL     1       2.422   9.480  17.479  0.00  0.00    +0.000 OA
ATOM      3  N   UNL     1       1.719   7.886  18.946  0.00  0.00    +0.000 N 
ATOM      4  H   UNL     1       0.997   7.606  19.596  0.00  0.00    +0.000 HD
ENDROOT
BRANCH   1  10
ATOM      5  C   UNL     1      -1.983  10.208  17.518  0.00  0.00    +0.000 A 
ATOM      6  C   UNL     1      -2.240  11.113  18.542  0.00  0.00    +0.000 A 
ATOM      7  C   UNL     1      -1.257  11.381  19.493  0.00  0.00    +0.000 A 
ATOM      8  C   UNL     1      -0.006  10.749  19.439  0.00  0.00    +0.000 A 
ATOM      9 CL   UNL     1       1.089  11.205  20.699  0.00  0.00    +0.000 Cl
ATOM     10  C   UNL     1       0.276   9.827  18.418  0.00  0.00    +0.000 A 
ATOM     11  C   UNL     1      -0.734   9.574  17.464  0.00  0.00    +0.000 A 
BRANCH   5  13
ATOM     12  C   UNL     1      -3.066  10.816  15.490  0.00  0.00    +0.000 C 
ATOM     13  O   UNL     1      -2.859   9.861  16.527  0.00  0.00    +0.000 OA
ENDBRANCH   5  13
ENDBRANCH   1  10
BRANCH   3  14
ATOM     14  C   UNL     1       2.889   7.030  18.850  0.00  0.00    +0.000 C 
BRANCH  14  15
ATOM     15  C   UNL     1       2.594   5.550  19.190  0.00  0.00    +0.000 C 
ATOM     16  C   UNL     1       1.656   5.434  20.418  0.00  0.00    +0.000 C 
ATOM     17  C   UNL     1       1.340   3.960  20.725  0.00  0.00    +0.000 C 
ATOM     18  C   UNL     1       0.650   3.322  19.507  0.00  0.00    +0.000 C 
ATOM     19  C   UNL     1       1.573   3.400  18.281  0.00  0.00    +0.000 C 
ATOM     20  C   UNL     1       2.880   2.650  18.581  0.00  0.00    +0.000 C 
ATOM     21  C   UNL     1       3.581   3.282  19.792  0.00  0.00    +0.000 C 
ATOM     22  C   UNL     1       2.651   3.210  21.015  0.00  0.00    +0.000 C 
ATOM     23  C   UNL     1       3.895   4.757  19.485  0.00  0.00    +0.000 C 
ATOM     24  C   UNL     1       1.892   4.877  17.980  0.00  0.00    +0.000 C 
ENDBRANCH  14  15
ENDBRANCH   3  14
TORSDOF 4
ENDMDL
