MODEL 1
REMARK VINA RESULT:      -8.6      0.000      0.000
REMARK  Name = 
REMARK  5 active torsions:
REMARK  status: ('A' for Active; 'I' for Inactive)
REMARK    1  A    between atoms: C_1  and  C_2
REMARK    2  A    between atoms: C_5  and  C_6
REMARK    3  A    between atoms: C_9  and  C_10
REMARK    4  A    between atoms: C_23  and  O_24
REMARK    5  A    between atoms: C_25  and  C_26
REMARK                            x       y       z     vdW  Elec       q    Type
REMARK                         _______ _______ _______ _____ _____    ______ ____
ROOT
ATOM      1  C   UNL     1       0.974  11.262  19.335  0.00  0.00    +0.000 C 
ATOM      2  O   UNL     1       1.692  12.151  19.737  0.00  0.00    +0.000 OA
ATOM      3  N   UNL     1      -0.423  11.400  19.317  0.00  0.00    +0.000 N 
ATOM      4  C   UNL     1      -1.294  10.408  18.752  0.00  0.00    +0.000 C 
ATOM      5  C   UNL     1      -2.592  11.078  18.637  0.00  0.00    +0.000 A 
ATOM      6  C   UNL     1      -2.664  12.155  19.475  0.00  0.00    +0.000 A 
ATOM      7  N   UNL     1      -3.785  12.845  19.743  0.00  0.00    +0.000 NA
ATOM      8  C   UNL     1      -4.857  12.574  18.966  0.00  0.00    +0.000 A 
ATOM      9  C   UNL     1      -6.047  13.248  19.186  0.00  0.00    +0.000 A 
ATOM     10  C   UNL     1      -7.028  13.311  18.196  0.00  0.00    +0.000 A 
ATOM     11  C   UNL     1      -6.838  12.629  16.999  0.00  0.00    +0.000 A 
ATOM     12  C   UNL     1      -5.753  11.773  16.853  0.00  0.00    +0.000 A 
ATOM     13  C   UNL     1      -4.755  11.715  17.848  0.00  0.00    +0.000 A 
ATOM     14  C   UNL     1      -3.626  10.906  17.743  0.00  0.00    +0.000 A 
ATOM     15  C   UNL     1      -1.210  12.548  19.840  0.00  0.00    +0.000 C 
ENDROOT
BRANCH  15  16
ATOM     16  C   UNL     1      -1.111  12.800  21.311  0.00  0.00    +0.000 A 
ATOM     17  C   UNL     1      -1.630  11.912  22.275  0.00  0.00    +0.000 A 
ATOM     18  C   UNL     1      -1.863  12.350  23.577  0.00  0.00    +0.000 A 
ATOM     19  C   UNL     1      -1.540  13.672  23.838  0.00  0.00    +0.000 A 
ATOM     20  C   UNL     1      -0.770  14.427  22.987  0.00  0.00    +0.000 A 
ATOM     21  C   UNL     1      -0.632  14.062  21.689  0.00  0.00    +0.000 A 
ATOM     22  O   UNL     1      -0.644  15.723  23.395  0.00  0.00    +0.000 OA
ATOM     23  C   UNL     1      -1.933  15.776  24.006  0.00  0.00    +0.000 C 
ATOM     24  O   UNL     1      -2.230  14.519  24.679  0.00  0.00    +0.000 OA
ENDBRANCH  15  16
BRANCH   1  28
ATOM     25  C   UNL     1       2.155   7.841  18.886  0.00  0.00    +0.000 A 
ATOM     26  C   UNL     1       2.406   8.293  17.592  0.00  0.00    +0.000 A 
ATOM     27  C   UNL     1       1.956   9.643  17.529  0.00  0.00    +0.000 A 
ATOM     28  C   UNL     1       1.510   9.984  18.802  0.00  0.00    +0.000 A 
ATOM     29  O   UNL     1       1.650   8.876  19.615  0.00  0.00    +0.000 OA
BRANCH  25  34
ATOM     30  C   UNL     1       2.790   2.509  21.014  0.00  0.00    +0.000 C 
ATOM     31  C   UNL     1       2.666   3.934  20.559  0.00  0.00    +0.000 A 
ATOM     32  C   UNL     1       1.573   4.738  20.949  0.00  0.00    +0.000 A 
ATOM     33  C   UNL     1       1.458   6.037  20.450  0.00  0.00    +0.000 A 
ATOM     34  C   UNL     1       2.392   6.560  19.537  0.00  0.00    +0.000 A 
ATOM     35  C   UNL     1       3.496   5.767  19.198  0.00  0.00    +0.000 A 
ATOM     36  C   UNL     1       3.628   4.473  19.699  0.00  0.00    +0.000 A 
ENDBRANCH  25  34
ENDBRANCH   1  28
BRANCH  14  37
ATOM     37  O   UNL     1      -3.404  10.009  16.741  0.00  0.00    +0.000 OA
ATOM     38  H   UNL     1      -2.726  10.408  16.168  0.00  0.00    +0.000 HD
ENDBRANCH  14  37
TORSDOF 4
ENDMDL
MODEL 2
REMARK VINA RESULT:      -8.4      2.705      4.888
REMARK  Name = 
REMARK  5 active torsions:
REMARK  status: ('A' for Active; 'I' for Inactive)
REMARK    1  A    between atoms: C_1  and  C_2
REMARK    2  A    between atoms: C_5  and  C_6
REMARK    3  A    between atoms: C_9  and  C_10
REMARK    4  A    between atoms: C_23  and  O_24
REMARK    5  A    between atoms: C_25  and  C_26
REMARK                            x       y       z     vdW  Elec       q    Type
REMARK                         _______ _______ _______ _____ _____    ______ ____
ROOT
ATOM      1  C   UNL     1       0.778   9.885  20.614  0.00  0.00    +0.000 C 
ATOM      2  O   UNL     1       0.309   9.348  21.594  0.00  0.00    +0.000 OA
ATOM      3  N   UNL     1       0.783  11.282  20.475  0.00  0.00    +0.000 N 
ATOM      4  C   UNL     1       1.420  11.951  19.376  0.00  0.00    +0.000 C 
ATOM      5  C   UNL     1       1.482  13.356  19.785  0.00  0.00    +0.000 A 
ATOM      6  C   UNL     1       0.564  13.625  20.761  0.00  0.00    +0.000 A 
ATOM      7  N   UNL     1       0.243  14.854  21.195  0.00  0.00    +0.000 NA
ATOM      8  C   UNL     1       1.037  15.865  20.778  0.00  0.00    +0.000 A 
ATOM      9  C   UNL     1       0.765  17.161  21.186  0.00  0.00    +0.000 A 
ATOM     10  C   UNL     1       1.746  18.151  21.128  0.00  0.00    +0.000 A 
ATOM     11  C   UNL     1       2.991  17.851  20.589  0.00  0.00    +0.000 A 
ATOM     12  C   UNL     1       3.203  16.621  19.976  0.00  0.00    +0.000 A 
ATOM     13  C   UNL     1       2.218  15.615  20.041  0.00  0.00    +0.000 A 
ATOM     14  C   UNL     1       2.386  14.351  19.479  0.00  0.00    +0.000 A 
ATOM     15  C   UNL     1       0.173  12.270  21.404  0.00  0.00    +0.000 C 
ENDROOT
BRANCH  15  16
ATOM     16  C   UNL     1      -1.313  12.198  21.560  0.00  0.00    +0.000 A 
ATOM     17  C   UNL     1      -2.206  12.430  20.494  0.00  0.00    +0.000 A 
ATOM     18  C   UNL     1      -3.541  12.732  20.751  0.00  0.00    +0.000 A 
ATOM     19  C   UNL     1      -3.907  12.770  22.088  0.00  0.00    +0.000 A 
ATOM     20  C   UNL     1      -3.113  12.257  23.085  0.00  0.00    +0.000 A 
ATOM     21  C   UNL     1      -1.789  12.066  22.872  0.00  0.00    +0.000 A 
ATOM     22  O   UNL     1      -3.626  12.474  24.332  0.00  0.00    +0.000 OA
ATOM     23  C   UNL     1      -4.249  13.710  23.987  0.00  0.00    +0.000 C 
ATOM     24  O   UNL     1      -4.820  13.637  22.649  0.00  0.00    +0.000 OA
ENDBRANCH  15  16
BRANCH   1  28
ATOM     25  C   UNL     1       2.282   7.317  18.507  0.00  0.00    +0.000 A 
ATOM     26  C   UNL     1       2.385   8.376  17.607  0.00  0.00    +0.000 A 
ATOM     27  C   UNL     1       1.789   9.510  18.230  0.00  0.00    +0.000 A 
ATOM     28  C   UNL     1       1.407   9.117  19.509  0.00  0.00    +0.000 A 
ATOM     29  O   UNL     1       1.726   7.783  19.660  0.00  0.00    +0.000 OA
BRANCH  25  34
ATOM     30  C   UNL     1       3.674   1.716  18.722  0.00  0.00    +0.000 C 
ATOM     31  C   UNL     1       3.384   3.181  18.579  0.00  0.00    +0.000 A 
ATOM     32  C   UNL     1       4.246   4.157  19.125  0.00  0.00    +0.000 A 
ATOM     33  C   UNL     1       3.908   5.508  19.031  0.00  0.00    +0.000 A 
ATOM     34  C   UNL     1       2.705   5.925  18.429  0.00  0.00    +0.000 A 
ATOM     35  C   UNL     1       1.885   4.949  17.851  0.00  0.00    +0.000 A 
ATOM     36  C   UNL     1       2.219   3.597  17.928  0.00  0.00    +0.000 A 
ENDBRANCH  25  34
ENDBRANCH   1  28
BRANCH  14  37
ATOM     37  O   UNL     1       3.453  13.975  18.721  0.00  0.00    +0.000 OA
ATOM     38  H   UNL     1       3.439  14.547  17.934  0.00  0.00    +0.000 HD
ENDBRANCH  14  37
TORSDOF 4
ENDMDL
MODEL 3
REMARK VINA RESULT:      -8.4      2.556      4.681
REMARK  Name = 
REMARK  5 active torsions:
REMARK  status: ('A' for Active; 'I' for Inactive)
REMARK    1  A    between atoms: C_1  and  C_2
REMARK    2  A    between atoms: C_5  and  C_6
REMARK    3  A    between atoms: C_9  and  C_10
REMARK    4  A    between atoms: C_23  and  O_24
REMARK    5  A    between atoms: C_25  and  C_26
REMARK                            x       y       z     vdW  Elec       q    Type
REMARK                         _______ _______ _______ _____ _____    ______ ____
ROOT
ATOM      1  C   UNL     1       0.374   9.882  20.123  0.00  0.00    +0.000 C 
ATOM      2  O   UNL     1      -0.282   9.512  21.072  0.00  0.00    +0.000 OA
ATOM      3  N   UNL     1       0.331  11.212  19.676  0.00  0.00    +0.000 N 
ATOM      4  C   UNL     1       1.173  11.704  18.621  0.00  0.00    +0.000 C 
ATOM      5  C   UNL     1       1.055  13.162  18.704  0.00  0.00    +0.000 A 
ATOM      6  C   UNL     1      -0.084  13.525  19.367  0.00  0.00    +0.000 A 
ATOM      7  N   UNL     1      -0.570  14.775  19.430  0.00  0.00    +0.000 NA
ATOM      8  C   UNL     1       0.241  15.758  18.979  0.00  0.00    +0.000 A 
ATOM      9  C   UNL     1      -0.195  17.073  19.012  0.00  0.00    +0.000 A 
ATOM     10  C   UNL     1       0.713  18.130  18.948  0.00  0.00    +0.000 A 
ATOM     11  C   UNL     1       2.066  17.862  18.778  0.00  0.00    +0.000 A 
ATOM     12  C   UNL     1       2.489  16.563  18.522  0.00  0.00    +0.000 A 
ATOM     13  C   UNL     1       1.576  15.491  18.596  0.00  0.00    +0.000 A 
ATOM     14  C   UNL     1       1.946  14.164  18.387  0.00  0.00    +0.000 A 
ATOM     15  C   UNL     1      -0.538  12.299  20.199  0.00  0.00    +0.000 C 
ENDROOT
BRANCH  15  16
ATOM     16  C   UNL     1      -2.012  12.100  20.037  0.00  0.00    +0.000 A 
ATOM     17  C   UNL     1      -2.589  11.595  18.854  0.00  0.00    +0.000 A 
ATOM     18  C   UNL     1      -3.946  11.784  18.600  0.00  0.00    +0.000 A 
ATOM     19  C   UNL     1      -4.654  12.469  19.575  0.00  0.00    +0.000 A 
ATOM     20  C   UNL     1      -4.153  12.687  20.835  0.00  0.00    +0.000 A 
ATOM     21  C   UNL     1      -2.819  12.612  21.061  0.00  0.00    +0.000 A 
ATOM     22  O   UNL     1      -4.980  13.452  21.608  0.00  0.00    +0.000 OA
ATOM     23  C   UNL     1      -5.493  14.208  20.512  0.00  0.00    +0.000 C 
ATOM     24  O   UNL     1      -5.687  13.353  19.349  0.00  0.00    +0.000 OA
ENDBRANCH  15  16
BRANCH   1  28
ATOM     25  C   UNL     1       2.535   7.141  19.067  0.00  0.00    +0.000 A 
ATOM     26  C   UNL     1       2.710   7.954  17.949  0.00  0.00    +0.000 A 
ATOM     27  C   UNL     1       1.885   9.100  18.136  0.00  0.00    +0.000 A 
ATOM     28  C   UNL     1       1.292   8.975  19.387  0.00  0.00    +0.000 A 
ATOM     29  O   UNL     1       1.709   7.782  19.941  0.00  0.00    +0.000 OA
BRANCH  25  34
ATOM     30  C   UNL     1       4.532   1.810  20.043  0.00  0.00    +0.000 C 
ATOM     31  C   UNL     1       4.050   3.223  19.892  0.00  0.00    +0.000 A 
ATOM     32  C   UNL     1       2.823   3.644  20.449  0.00  0.00    +0.000 A 
ATOM     33  C   UNL     1       2.376   4.949  20.231  0.00  0.00    +0.000 A 
ATOM     34  C   UNL     1       3.106   5.853  19.436  0.00  0.00    +0.000 A 
ATOM     35  C   UNL     1       4.343   5.435  18.931  0.00  0.00    +0.000 A 
ATOM     36  C   UNL     1       4.806   4.139  19.154  0.00  0.00    +0.000 A 
ENDBRANCH  25  34
ENDBRANCH   1  28
BRANCH  14  37
ATOM     37  O   UNL     1       3.183  13.757  17.988  0.00  0.00    +0.000 OA
ATOM     38  H   UNL     1       3.546  13.234  18.725  0.00  0.00    +0.000 HD
ENDBRANCH  14  37
TORSDOF 4
ENDMDL
MODEL 4
REMARK VINA RESULT:      -8.3      2.595      4.627
REMARK  Name = 
REMARK  5 active torsions:
REMARK  status: ('A' for Active; 'I' for Inactive)
REMARK    1  A    between atoms: C_1  and  C_2
REMARK    2  A    between atoms: C_5  and  C_6
REMARK    3  A    between atoms: C_9  and  C_10
REMARK    4  A    between atoms: C_23  and  O_24
REMARK    5  A    between atoms: C_25  and  C_26
REMARK                            x       y       z     vdW  Elec       q    Type
REMARK                         _______ _______ _______ _____ _____    ______ ____
ROOT
ATOM      1  C   UNL     1       0.863   9.832  20.573  0.00  0.00    +0.000 C 
ATOM      2  O   UNL     1       0.479   9.432  21.650  0.00  0.00    +0.000 OA
ATOM      3  N   UNL     1       0.785  11.190  20.225  0.00  0.00    +0.000 N 
ATOM      4  C   UNL     1       1.324  11.710  19.000  0.00  0.00    +0.000 C 
ATOM      5  C   UNL     1       1.334  13.162  19.187  0.00  0.00    +0.000 A 
ATOM      6  C   UNL     1       0.458  13.537  20.167  0.00  0.00    +0.000 A 
ATOM      7  N   UNL     1       0.096  14.803  20.430  0.00  0.00    +0.000 NA
ATOM      8  C   UNL     1       0.810  15.771  19.816  0.00  0.00    +0.000 A 
ATOM      9  C   UNL     1       0.492  17.101  20.040  0.00  0.00    +0.000 A 
ATOM     10  C   UNL     1       1.414  18.113  19.772  0.00  0.00    +0.000 A 
ATOM     11  C   UNL     1       2.641  17.790  19.207  0.00  0.00    +0.000 A 
ATOM     12  C   UNL     1       2.885  16.491  18.775  0.00  0.00    +0.000 A 
ATOM     13  C   UNL     1       1.960  15.464  19.052  0.00  0.00    +0.000 A 
ATOM     14  C   UNL     1       2.164  14.138  18.679  0.00  0.00    +0.000 A 
ATOM     15  C   UNL     1       0.176  12.281  21.031  0.00  0.00    +0.000 C 
ENDROOT
BRANCH  15  16
ATOM     16  C   UNL     1      -1.293  12.168  21.289  0.00  0.00    +0.000 A 
ATOM     17  C   UNL     1      -2.261  12.312  20.274  0.00  0.00    +0.000 A 
ATOM     18  C   UNL     1      -3.588  12.583  20.604  0.00  0.00    +0.000 A 
ATOM     19  C   UNL     1      -3.867  12.680  21.958  0.00  0.00    +0.000 A 
ATOM     20  C   UNL     1      -2.992  12.248  22.925  0.00  0.00    +0.000 A 
ATOM     21  C   UNL     1      -1.678  12.090  22.634  0.00  0.00    +0.000 A 
ATOM     22  O   UNL     1      -3.430  12.514  24.191  0.00  0.00    +0.000 OA
ATOM     23  C   UNL     1      -4.120  13.709  23.825  0.00  0.00    +0.000 C 
ATOM     24  O   UNL     1      -4.773  13.545  22.533  0.00  0.00    +0.000 OA
ENDBRANCH  15  16
BRANCH   1  28
ATOM     25  C   UNL     1       2.204   6.989  18.725  0.00  0.00    +0.000 A 
ATOM     26  C   UNL     1       2.474   7.970  17.773  0.00  0.00    +0.000 A 
ATOM     27  C   UNL     1       1.968   9.198  18.288  0.00  0.00    +0.000 A 
ATOM     28  C   UNL     1       1.470   8.932  19.559  0.00  0.00    +0.000 A 
ATOM     29  O   UNL     1       1.634   7.585  19.809  0.00  0.00    +0.000 OA
BRANCH  25  34
ATOM     30  C   UNL     1       3.720   1.422  18.450  0.00  0.00    +0.000 C 
ATOM     31  C   UNL     1       3.236   2.837  18.582  0.00  0.00    +0.000 A 
ATOM     32  C   UNL     1       2.226   3.348  17.739  0.00  0.00    +0.000 A 
ATOM     33  C   UNL     1       1.850   4.689  17.846  0.00  0.00    +0.000 A 
ATOM     34  C   UNL     1       2.478   5.558  18.757  0.00  0.00    +0.000 A 
ATOM     35  C   UNL     1       3.443   5.024  19.619  0.00  0.00    +0.000 A 
ATOM     36  C   UNL     1       3.818   3.684  19.529  0.00  0.00    +0.000 A 
ENDBRANCH  25  34
ENDBRANCH   1  28
BRANCH  14  37
ATOM     37  O   UNL     1       3.207  13.697  17.920  0.00  0.00    +0.000 OA
ATOM     38  H   UNL     1       4.015  13.940  18.406  0.00  0.00    +0.000 HD
ENDBRANCH  14  37
TORSDOF 4
ENDMDL
MODEL 5
REMARK VINA RESULT:      -8.3      4.466      8.432
REMARK  Name = 
REMARK  5 active torsions:
REMARK  status: ('A' for Active; 'I' for Inactive)
REMARK    1  A    between atoms: C_1  and  C_2
REMARK    2  A    between atoms: C_5  and  C_6
REMARK    3  A    between atoms: C_9  and  C_10
REMARK    4  A    between atoms: C_23  and  O_24
REMARK    5  A    between atoms: C_25  and  C_26
REMARK                            x       y       z     vdW  Elec       q    Type
REMARK                         _______ _______ _______ _____ _____    ______ ____
ROOT
ATOM      1  C   UNL     1       5.023   5.897  18.751  0.00  0.00    +0.000 C 
ATOM      2  O   UNL     1       5.363   5.201  19.683  0.00  0.00    +0.000 OA
ATOM      3  N   UNL     1       3.861   6.684  18.811  0.00  0.00    +0.000 N 
ATOM      4  C   UNL     1       3.486   7.595  17.766  0.00  0.00    +0.000 C 
ATOM      5  C   UNL     1       2.440   8.429  18.361  0.00  0.00    +0.000 A 
ATOM      6  C   UNL     1       1.873   7.811  19.440  0.00  0.00    +0.000 A 
ATOM      7  N   UNL     1       0.763   8.228  20.069  0.00  0.00    +0.000 NA
ATOM      8  C   UNL     1       0.307   9.455  19.731  0.00  0.00    +0.000 A 
ATOM      9  C   UNL     1      -0.835   9.951  20.339  0.00  0.00    +0.000 A 
ATOM     10  C   UNL     1      -1.111  11.319  20.337  0.00  0.00    +0.000 A 
ATOM     11  C   UNL     1      -0.266  12.187  19.657  0.00  0.00    +0.000 A 
ATOM     12  C   UNL     1       0.755  11.680  18.861  0.00  0.00    +0.000 A 
ATOM     13  C   UNL     1       1.043  10.300  18.868  0.00  0.00    +0.000 A 
ATOM     14  C   UNL     1       2.076   9.737  18.123  0.00  0.00    +0.000 A 
ATOM     15  C   UNL     1       2.869   6.724  19.918  0.00  0.00    +0.000 C 
ENDROOT
BRANCH  15  16
ATOM     16  C   UNL     1       2.132   5.451  20.189  0.00  0.00    +0.000 A 
ATOM     17  C   UNL     1       2.185   4.787  21.431  0.00  0.00    +0.000 A 
ATOM     18  C   UNL     1       1.818   3.445  21.525  0.00  0.00    +0.000 A 
ATOM     19  C   UNL     1       1.401   2.848  20.347  0.00  0.00    +0.000 A 
ATOM     20  C   UNL     1       1.074   3.573  19.226  0.00  0.00    +0.000 A 
ATOM     21  C   UNL     1       1.523   4.844  19.082  0.00  0.00    +0.000 A 
ATOM     22  O   UNL     1       0.769   2.783  18.156  0.00  0.00    +0.000 OA
ATOM     23  C   UNL     1       1.659   1.733  18.531  0.00  0.00    +0.000 C 
ATOM     24  O   UNL     1       1.643   1.543  19.975  0.00  0.00    +0.000 OA
ENDBRANCH  15  16
BRANCH   1  28
ATOM     25  C   UNL     1       6.421   5.465  15.412  0.00  0.00    +0.000 A 
ATOM     26  C   UNL     1       7.287   6.467  15.844  0.00  0.00    +0.000 A 
ATOM     27  C   UNL     1       6.873   6.834  17.157  0.00  0.00    +0.000 A 
ATOM     28  C   UNL     1       5.816   5.998  17.500  0.00  0.00    +0.000 A 
ATOM     29  O   UNL     1       5.565   5.166  16.428  0.00  0.00    +0.000 OA
BRANCH  25  34
ATOM     30  C   UNL     1       6.396   2.026  10.771  0.00  0.00    +0.000 C 
ATOM     31  C   UNL     1       6.369   3.003  11.910  0.00  0.00    +0.000 A 
ATOM     32  C   UNL     1       7.436   3.900  12.133  0.00  0.00    +0.000 A 
ATOM     33  C   UNL     1       7.405   4.749  13.242  0.00  0.00    +0.000 A 
ATOM     34  C   UNL     1       6.345   4.710  14.168  0.00  0.00    +0.000 A 
ATOM     35  C   UNL     1       5.273   3.850  13.906  0.00  0.00    +0.000 A 
ATOM     36  C   UNL     1       5.287   3.007  12.795  0.00  0.00    +0.000 A 
ENDBRANCH  25  34
ENDBRANCH   1  28
BRANCH  14  37
ATOM     37  O   UNL     1       2.849  10.417  17.231  0.00  0.00    +0.000 OA
ATOM     38  H   UNL     1       3.692   9.933  17.181  0.00  0.00    +0.000 HD
ENDBRANCH  14  37
TORSDOF 4
ENDMDL
MODEL 6
REMARK VINA RESULT:      -8.2      2.718      5.364
REMARK  Name = 
REMARK  5 active torsions:
REMARK  status: ('A' for Active; 'I' for Inactive)
REMARK    1  A    between atoms: C_1  and  C_2
REMARK    2  A    between atoms: C_5  and  C_6
REMARK    3  A    between atoms: C_9  and  C_10
REMARK    4  A    between atoms: C_23  and  O_24
REMARK    5  A    between atoms: C_25  and  C_26
REMARK                            x       y       z     vdW  Elec       q    Type
REMARK                         _______ _______ _______ _____ _____    ______ ____
ROOT
ATOM      1  C   UNL     1       0.127   9.895  20.693  0.00  0.00    +0.000 C 
ATOM      2  O   UNL     1      -0.527   9.195  21.435  0.00  0.00    +0.000 OA
ATOM      3  N   UNL     1       0.294  11.267  20.939  0.00  0.00    +0.000 N 
ATOM      4  C   UNL     1       1.146  12.102  20.138  0.00  0.00    +0.000 C 
ATOM      5  C   UNL     1       1.293  13.334  20.915  0.00  0.00    +0.000 A 
ATOM      6  C   UNL     1       0.278  13.468  21.822  0.00  0.00    +0.000 A 
ATOM      7  N   UNL     1       0.027  14.577  22.535  0.00  0.00    +0.000 NA
ATOM      8  C   UNL     1       0.971  15.543  22.495  0.00  0.00    +0.000 A 
ATOM      9  C   UNL     1       0.777  16.717  23.206  0.00  0.00    +0.000 A 
ATOM     10  C   UNL     1       1.853  17.546  23.525  0.00  0.00    +0.000 A 
ATOM     11  C   UNL     1       3.125  17.227  23.064  0.00  0.00    +0.000 A 
ATOM     12  C   UNL     1       3.294  16.177  22.168  0.00  0.00    +0.000 A 
ATOM     13  C   UNL     1       2.212  15.331  21.851  0.00  0.00    +0.000 A 
ATOM     14  C   UNL     1       2.327  14.242  20.991  0.00  0.00    +0.000 A 
ATOM     15  C   UNL     1      -0.336  12.060  22.028  0.00  0.00    +0.000 C 
ENDROOT
BRANCH  15  16
ATOM     16  C   UNL     1      -1.829  12.153  21.996  0.00  0.00    +0.000 A 
ATOM     17  C   UNL     1      -2.551  12.444  20.821  0.00  0.00    +0.000 A 
ATOM     18  C   UNL     1      -3.867  12.896  20.901  0.00  0.00    +0.000 A 
ATOM     19  C   UNL     1      -4.389  13.017  22.180  0.00  0.00    +0.000 A 
ATOM     20  C   UNL     1      -3.786  12.455  23.279  0.00  0.00    +0.000 A 
ATOM     21  C   UNL     1      -2.475  12.115  23.239  0.00  0.00    +0.000 A 
ATOM     22  O   UNL     1      -4.422  12.766  24.447  0.00  0.00    +0.000 OA
ATOM     23  C   UNL     1      -4.857  14.050  24.002  0.00  0.00    +0.000 C 
ATOM     24  O   UNL     1      -5.262  13.995  22.604  0.00  0.00    +0.000 OA
ENDBRANCH  15  16
BRANCH   1  28
ATOM     25  C   UNL     1       2.287   8.081  18.383  0.00  0.00    +0.000 A 
ATOM     26  C   UNL     1       1.633   8.871  17.440  0.00  0.00    +0.000 A 
ATOM     27  C   UNL     1       0.673   9.651  18.147  0.00  0.00    +0.000 A 
ATOM     28  C   UNL     1       0.824   9.357  19.497  0.00  0.00    +0.000 A 
ATOM     29  O   UNL     1       1.819   8.408  19.620  0.00  0.00    +0.000 OA
BRANCH  25  34
ATOM     30  C   UNL     1       6.850   4.544  18.209  0.00  0.00    +0.000 C 
ATOM     31  C   UNL     1       5.614   5.395  18.179  0.00  0.00    +0.000 A 
ATOM     32  C   UNL     1       5.394   6.334  17.149  0.00  0.00    +0.000 A 
ATOM     33  C   UNL     1       4.265   7.155  17.192  0.00  0.00    +0.000 A 
ATOM     34  C   UNL     1       3.351   7.093  18.260  0.00  0.00    +0.000 A 
ATOM     35  C   UNL     1       3.558   6.124  19.249  0.00  0.00    +0.000 A 
ATOM     36  C   UNL     1       4.675   5.290  19.209  0.00  0.00    +0.000 A 
ENDBRANCH  25  34
ENDBRANCH   1  28
BRANCH  14  37
ATOM     37  O   UNL     1       3.447  13.930  20.280  0.00  0.00    +0.000 OA
ATOM     38  H   UNL     1       3.774  14.769  19.910  0.00  0.00    +0.000 HD
ENDBRANCH  14  37
TORSDOF 4
ENDMDL
MODEL 7
REMARK VINA RESULT:      -8.1      3.553      4.831
REMARK  Name = 
REMARK  5 active torsions:
REMARK  status: ('A' for Active; 'I' for Inactive)
REMARK    1  A    between atoms: C_1  and  C_2
REMARK    2  A    between atoms: C_5  and  C_6
REMARK    3  A    between atoms: C_9  and  C_10
REMARK    4  A    between atoms: C_23  and  O_24
REMARK    5  A    between atoms: C_25  and  C_26
REMARK                            x       y       z     vdW  Elec       q    Type
REMARK                         _______ _______ _______ _____ _____    ______ ____
ROOT
ATOM      1  C   UNL     1       1.447  10.431  18.734  0.00  0.00    +0.000 C 
ATOM      2  O   UNL     1       1.544  10.955  17.646  0.00  0.00    +0.000 OA
ATOM      3  N   UNL     1       0.875  11.106  19.824  0.00  0.00    +0.000 N 
ATOM      4  C   UNL     1       0.652  10.478  21.096  0.00  0.00    +0.000 C 
ATOM      5  C   UNL     1      -0.240  11.394  21.810  0.00  0.00    +0.000 A 
ATOM      6  C   UNL     1      -0.177  12.653  21.280  0.00  0.00    +0.000 A 
ATOM      7  N   UNL     1      -0.720  13.748  21.836  0.00  0.00    +0.000 NA
ATOM      8  C   UNL     1      -1.555  13.541  22.878  0.00  0.00    +0.000 A 
ATOM      9  C   UNL     1      -2.151  14.625  23.501  0.00  0.00    +0.000 A 
ATOM     10  C   UNL     1      -3.295  14.462  24.283  0.00  0.00    +0.000 A 
ATOM     11  C   UNL     1      -3.803  13.187  24.496  0.00  0.00    +0.000 A 
ATOM     12  C   UNL     1      -3.091  12.075  24.061  0.00  0.00    +0.000 A 
ATOM     13  C   UNL     1      -1.940  12.236  23.263  0.00  0.00    +0.000 A 
ATOM     14  C   UNL     1      -1.205  11.162  22.766  0.00  0.00    +0.000 A 
ATOM     15  C   UNL     1       0.406  12.517  19.851  0.00  0.00    +0.000 C 
ENDROOT
BRANCH  15  16
ATOM     16  C   UNL     1       1.453  13.563  19.633  0.00  0.00    +0.000 A 
ATOM     17  C   UNL     1       2.657  13.603  20.366  0.00  0.00    +0.000 A 
ATOM     18  C   UNL     1       3.409  14.775  20.413  0.00  0.00    +0.000 A 
ATOM     19  C   UNL     1       2.903  15.849  19.698  0.00  0.00    +0.000 A 
ATOM     20  C   UNL     1       1.907  15.709  18.762  0.00  0.00    +0.000 A 
ATOM     21  C   UNL     1       1.101  14.619  18.783  0.00  0.00    +0.000 A 
ATOM     22  O   UNL     1       1.503  16.903  18.238  0.00  0.00    +0.000 OA
ATOM     23  C   UNL     1       1.758  17.644  19.429  0.00  0.00    +0.000 C 
ATOM     24  O   UNL     1       2.977  17.173  20.072  0.00  0.00    +0.000 OA
ENDBRANCH  15  16
BRANCH   1  28
ATOM     25  C   UNL     1       2.968   7.121  18.566  0.00  0.00    +0.000 A 
ATOM     26  C   UNL     1       2.259   6.936  19.751  0.00  0.00    +0.000 A 
ATOM     27  C   UNL     1       1.607   8.170  20.040  0.00  0.00    +0.000 A 
ATOM     28  C   UNL     1       1.888   9.036  18.989  0.00  0.00    +0.000 A 
ATOM     29  O   UNL     1       2.709   8.374  18.098  0.00  0.00    +0.000 OA
BRANCH  25  34
ATOM     30  C   UNL     1       5.965   3.690  15.015  0.00  0.00    +0.000 C 
ATOM     31  C   UNL     1       5.248   4.541  16.022  0.00  0.00    +0.000 A 
ATOM     32  C   UNL     1       4.211   4.016  16.823  0.00  0.00    +0.000 A 
ATOM     33  C   UNL     1       3.523   4.856  17.701  0.00  0.00    +0.000 A 
ATOM     34  C   UNL     1       3.817   6.229  17.787  0.00  0.00    +0.000 A 
ATOM     35  C   UNL     1       4.880   6.724  17.022  0.00  0.00    +0.000 A 
ATOM     36  C   UNL     1       5.582   5.892  16.151  0.00  0.00    +0.000 A 
ENDBRANCH  25  34
ENDBRANCH   1  28
BRANCH  14  37
ATOM     37  O   UNL     1      -1.438   9.855  23.072  0.00  0.00    +0.000 OA
ATOM     38  H   UNL     1      -2.081   9.859  23.803  0.00  0.00    +0.000 HD
ENDBRANCH  14  37
TORSDOF 4
ENDMDL
MODEL 8
REMARK VINA RESULT:      -8.0      2.686      5.337
REMARK  Name = 
REMARK  5 active torsions:
REMARK  status: ('A' for Active; 'I' for Inactive)
REMARK    1  A    between atoms: C_1  and  C_2
REMARK    2  A    between atoms: C_5  and  C_6
REMARK    3  A    between atoms: C_9  and  C_10
REMARK    4  A    between atoms: C_23  and  O_24
REMARK    5  A    between atoms: C_25  and  C_26
REMARK                            x       y       z     vdW  Elec       q    Type
REMARK                         _______ _______ _______ _____ _____    ______ ____
ROOT
ATOM      1  C   UNL     1       0.150  10.225  20.785  0.00  0.00    +0.000 C 
ATOM      2  O   UNL     1      -0.509   9.472  21.469  0.00  0.00    +0.000 OA
ATOM      3  N   UNL     1       0.246  11.593  21.086  0.00  0.00    +0.000 N 
ATOM      4  C   UNL     1       1.099  12.490  20.357  0.00  0.00    +0.000 C 
ATOM      5  C   UNL     1       1.155  13.699  21.182  0.00  0.00    +0.000 A 
ATOM      6  C   UNL     1       0.093  13.757  22.040  0.00  0.00    +0.000 A 
ATOM      7  N   UNL     1      -0.241  14.829  22.776  0.00  0.00    +0.000 NA
ATOM      8  C   UNL     1       0.661  15.834  22.817  0.00  0.00    +0.000 A 
ATOM      9  C   UNL     1       0.383  16.973  23.557  0.00  0.00    +0.000 A 
ATOM     10  C   UNL     1       1.405  17.833  23.957  0.00  0.00    +0.000 A 
ATOM     11  C   UNL     1       2.710  17.584  23.550  0.00  0.00    +0.000 A 
ATOM     12  C   UNL     1       2.969  16.575  22.629  0.00  0.00    +0.000 A 
ATOM     13  C   UNL     1       1.940  15.697  22.229  0.00  0.00    +0.000 A 
ATOM     14  C   UNL     1       2.144  14.645  21.340  0.00  0.00    +0.000 A 
ATOM     15  C   UNL     1      -0.470  12.319  22.168  0.00  0.00    +0.000 C 
ENDROOT
BRANCH  15  16
ATOM     16  C   UNL     1      -1.962  12.351  22.064  0.00  0.00    +0.000 A 
ATOM     17  C   UNL     1      -2.638  12.610  20.854  0.00  0.00    +0.000 A 
ATOM     18  C   UNL     1      -3.973  13.009  20.870  0.00  0.00    +0.000 A 
ATOM     19  C   UNL     1      -4.561  13.111  22.121  0.00  0.00    +0.000 A 
ATOM     20  C   UNL     1      -3.990  12.576  23.251  0.00  0.00    +0.000 A 
ATOM     21  C   UNL     1      -2.665  12.290  23.274  0.00  0.00    +0.000 A 
ATOM     22  O   UNL     1      -4.693  12.863  24.385  0.00  0.00    +0.000 OA
ATOM     23  C   UNL     1      -5.157  14.127  23.915  0.00  0.00    +0.000 C 
ATOM     24  O   UNL     1      -5.492  14.054  22.499  0.00  0.00    +0.000 OA
ENDBRANCH  15  16
BRANCH   1  28
ATOM     25  C   UNL     1       2.171   8.334  18.411  0.00  0.00    +0.000 A 
ATOM     26  C   UNL     1       2.036   9.494  17.653  0.00  0.00    +0.000 A 
ATOM     27  C   UNL     1       1.209  10.383  18.399  0.00  0.00    +0.000 A 
ATOM     28  C   UNL     1       0.927   9.759  19.609  0.00  0.00    +0.000 A 
ATOM     29  O   UNL     1       1.531   8.517  19.600  0.00  0.00    +0.000 OA
BRANCH  25  34
ATOM     30  C   UNL     1       4.687   3.343  16.955  0.00  0.00    +0.000 C 
ATOM     31  C   UNL     1       4.084   4.631  17.434  0.00  0.00    +0.000 A 
ATOM     32  C   UNL     1       2.934   4.643  18.253  0.00  0.00    +0.000 A 
ATOM     33  C   UNL     1       2.362   5.863  18.623  0.00  0.00    +0.000 A 
ATOM     34  C   UNL     1       2.887   7.088  18.171  0.00  0.00    +0.000 A 
ATOM     35  C   UNL     1       4.055   7.060  17.400  0.00  0.00    +0.000 A 
ATOM     36  C   UNL     1       4.642   5.848  17.035  0.00  0.00    +0.000 A 
ENDBRANCH  25  34
ENDBRANCH   1  28
BRANCH  14  37
ATOM     37  O   UNL     1       3.310  14.405  20.676  0.00  0.00    +0.000 OA
ATOM     38  H   UNL     1       3.202  13.536  20.249  0.00  0.00    +0.000 HD
ENDBRANCH  14  37
TORSDOF 4
ENDMDL
MODEL 9
REMARK VINA RESULT:      -8.0      2.796      5.639
REMARK  Name = 
REMARK  5 active torsions:
REMARK  status: ('A' for Active; 'I' for Inactive)
REMARK    1  A    between atoms: C_1  and  C_2
REMARK    2  A    between atoms: C_5  and  C_6
REMARK    3  A    between atoms: C_9  and  C_10
REMARK    4  A    between atoms: C_23  and  O_24
REMARK    5  A    between atoms: C_25  and  C_26
REMARK                            x       y       z     vdW  Elec       q    Type
REMARK                         _______ _______ _______ _____ _____    ______ ____
ROOT
ATOM      1  C   UNL     1      -0.209  10.637  21.145  0.00  0.00    +0.000 C 
ATOM      2  O   UNL     1      -0.872  10.022  21.951  0.00  0.00    +0.000 OA
ATOM      3  N   UNL     1       0.090  11.996  21.328  0.00  0.00    +0.000 N 
ATOM      4  C   UNL     1       0.957  12.726  20.445  0.00  0.00    +0.000 C 
ATOM      5  C   UNL     1       1.259  13.966  21.164  0.00  0.00    +0.000 A 
ATOM      6  C   UNL     1       0.320  14.217  22.125  0.00  0.00    +0.000 A 
ATOM      7  N   UNL     1       0.210  15.367  22.809  0.00  0.00    +0.000 NA
ATOM      8  C   UNL     1       1.229  16.245  22.676  0.00  0.00    +0.000 A 
ATOM      9  C   UNL     1       1.183  17.453  23.352  0.00  0.00    +0.000 A 
ATOM     10  C   UNL     1       2.344  18.195  23.573  0.00  0.00    +0.000 A 
ATOM     11  C   UNL     1       3.551  17.750  23.048  0.00  0.00    +0.000 A 
ATOM     12  C   UNL     1       3.573  16.661  22.185  0.00  0.00    +0.000 A 
ATOM     13  C   UNL     1       2.404  15.903  21.966  0.00  0.00    +0.000 A 
ATOM     14  C   UNL     1       2.370  14.781  21.143  0.00  0.00    +0.000 A 
ATOM     15  C   UNL     1      -0.399  12.876  22.422  0.00  0.00    +0.000 C 
ENDROOT
BRANCH  15  16
ATOM     16  C   UNL     1      -1.877  13.099  22.477  0.00  0.00    +0.000 A 
ATOM     17  C   UNL     1      -2.656  12.784  23.610  0.00  0.00    +0.000 A 
ATOM     18  C   UNL     1      -4.037  12.641  23.492  0.00  0.00    +0.000 A 
ATOM     19  C   UNL     1      -4.561  12.841  22.225  0.00  0.00    +0.000 A 
ATOM     20  C   UNL     1      -3.842  13.432  21.213  0.00  0.00    +0.000 A 
ATOM     21  C   UNL     1      -2.489  13.473  21.273  0.00  0.00    +0.000 A 
ATOM     22  O   UNL     1      -4.519  13.455  20.028  0.00  0.00    +0.000 OA
ATOM     23  C   UNL     1      -5.223  12.239  20.274  0.00  0.00    +0.000 C 
ATOM     24  O   UNL     1      -5.620  12.153  21.673  0.00  0.00    +0.000 OA
ENDBRANCH  15  16
BRANCH   1  28
ATOM     25  C   UNL     1       1.627   8.558  18.778  0.00  0.00    +0.000 A 
ATOM     26  C   UNL     1       0.998   9.382  17.848  0.00  0.00    +0.000 A 
ATOM     27  C   UNL     1       0.160  10.271  18.581  0.00  0.00    +0.000 A 
ATOM     28  C   UNL     1       0.361  10.001  19.930  0.00  0.00    +0.000 A 
ATOM     29  O   UNL     1       1.265   8.962  20.028  0.00  0.00    +0.000 OA
BRANCH  25  34
ATOM     30  C   UNL     1       5.792   4.565  18.512  0.00  0.00    +0.000 C 
ATOM     31  C   UNL     1       4.654   5.543  18.504  0.00  0.00    +0.000 A 
ATOM     32  C   UNL     1       4.543   6.533  17.504  0.00  0.00    +0.000 A 
ATOM     33  C   UNL     1       3.507   7.467  17.568  0.00  0.00    +0.000 A 
ATOM     34  C   UNL     1       2.582   7.468  18.629  0.00  0.00    +0.000 A 
ATOM     35  C   UNL     1       2.677   6.450  19.586  0.00  0.00    +0.000 A 
ATOM     36  C   UNL     1       3.700   5.504  19.525  0.00  0.00    +0.000 A 
ENDBRANCH  25  34
ENDBRANCH   1  28
BRANCH  14  37
ATOM     37  O   UNL     1       3.411  14.348  20.378  0.00  0.00    +0.000 OA
ATOM     38  H   UNL     1       3.688  13.495  20.757  0.00  0.00    +0.000 HD
ENDBRANCH  14  37
TORSDOF 4
ENDMDL
