MODEL 1
REMARK VINA RESULT:      -8.2      0.000      0.000
REMARK  Name = 
REMARK  3 active torsions:
REMARK  status: ('A' for Active; 'I' for Inactive)
REMARK    1  A    between atoms: C_1  and  N_2
REMARK    2  A    between atoms: C_9  and  C_10
REMARK    3  A    between atoms: C_14  and  C_15
REMARK                            x       y       z     vdW  Elec       q    Type
REMARK                         _______ _______ _______ _____ _____    ______ ____
ROOT
ATOM      1  C   UNL     1       6.310   3.638  13.240  0.00  0.00    +0.000 C 
ATOM      2  N   UNL     1       5.463   4.408  14.120  0.00  0.00    +0.000 N 
ATOM      3  C   UNL     1       5.824   4.598  15.396  0.00  0.00    +0.000 A 
ATOM      4  N   UNL     1       7.141   4.579  15.762  0.00  0.00    +0.000 NA
ATOM      5  C   UNL     1       7.093   4.824  17.050  0.00  0.00    +0.000 A 
ATOM      6  C   UNL     1       8.063   4.984  18.057  0.00  0.00    +0.000 A 
ATOM      7  C   UNL     1       7.631   5.244  19.302  0.00  0.00    +0.000 A 
ATOM      8  N   UNL     1       6.308   5.339  19.685  0.00  0.00    +0.000 NA
ATOM      9  C   UNL     1       5.381   5.163  18.772  0.00  0.00    +0.000 A 
ATOM     10  N   UNL     1       5.785   4.935  17.443  0.00  0.00    +0.000 N 
ATOM     11  N   UNL     1       4.957   4.810  16.387  0.00  0.00    +0.000 NA
ATOM     12  H   UNL     1       4.469   4.285  13.969  0.00  0.00    +0.000 HD
ENDROOT
BRANCH   9  13
ATOM     13  C   UNL     1       3.957   5.182  19.219  0.00  0.00    +0.000 A 
ATOM     14  C   UNL     1       3.358   6.408  19.534  0.00  0.00    +0.000 A 
ATOM     15  C   UNL     1       2.067   6.443  20.063  0.00  0.00    +0.000 A 
ATOM     16  C   UNL     1       1.375   5.254  20.299  0.00  0.00    +0.000 A 
ATOM     17  C   UNL     1       1.965   4.017  20.003  0.00  0.00    +0.000 A 
ATOM     18  C   UNL     1       3.256   3.992  19.449  0.00  0.00    +0.000 A 
BRANCH  17  19
ATOM     19  C   UNL     1       1.256   2.718  20.301  0.00  0.00    +0.000 C 
ATOM     20  F   UNL     1       1.923   1.618  19.855  0.00  0.00    +0.000 F 
ATOM     21  F   UNL     1       1.059   2.522  21.634  0.00  0.00    +0.000 F 
ATOM     22  F   UNL     1       0.022   2.662  19.728  0.00  0.00    +0.000 F 
ENDBRANCH  17  19
ENDBRANCH   9  13
TORSDOF 2
ENDMDL
MODEL 2
REMARK VINA RESULT:      -8.1      1.429      2.168
REMARK  Name = 
REMARK  3 active torsions:
REMARK  status: ('A' for Active; 'I' for Inactive)
REMARK    1  A    between atoms: C_1  and  N_2
REMARK    2  A    between atoms: C_9  and  C_10
REMARK    3  A    between atoms: C_14  and  C_15
REMARK                            x       y       z     vdW  Elec       q    Type
REMARK                         _______ _______ _______ _____ _____    ______ ____
ROOT
ATOM      1  C   UNL     1       7.114   4.007  12.458  0.00  0.00    +0.000 C 
ATOM      2  N   UNL     1       5.970   4.057  13.338  0.00  0.00    +0.000 N 
ATOM      3  C   UNL     1       6.126   4.434  14.614  0.00  0.00    +0.000 A 
ATOM      4  N   UNL     1       7.152   5.261  14.981  0.00  0.00    +0.000 NA
ATOM      5  C   UNL     1       6.958   5.418  16.269  0.00  0.00    +0.000 A 
ATOM      6  C   UNL     1       7.602   6.160  17.277  0.00  0.00    +0.000 A 
ATOM      7  C   UNL     1       7.104   6.084  18.521  0.00  0.00    +0.000 A 
ATOM      8  N   UNL     1       6.025   5.312  18.904  0.00  0.00    +0.000 NA
ATOM      9  C   UNL     1       5.424   4.584  17.991  0.00  0.00    +0.000 A 
ATOM     10  N   UNL     1       5.881   4.667  16.662  0.00  0.00    +0.000 N 
ATOM     11  N   UNL     1       5.324   4.042  15.605  0.00  0.00    +0.000 NA
ATOM     12  H   UNL     1       5.284   3.328  13.187  0.00  0.00    +0.000 HD
ENDROOT
BRANCH   9  13
ATOM     13  C   UNL     1       4.317   3.688  18.437  0.00  0.00    +0.000 A 
ATOM     14  C   UNL     1       3.992   2.569  17.661  0.00  0.00    +0.000 A 
ATOM     15  C   UNL     1       2.888   1.781  17.993  0.00  0.00    +0.000 A 
ATOM     16  C   UNL     1       2.092   2.118  19.089  0.00  0.00    +0.000 A 
ATOM     17  C   UNL     1       2.395   3.244  19.869  0.00  0.00    +0.000 A 
ATOM     18  C   UNL     1       3.521   4.018  19.541  0.00  0.00    +0.000 A 
BRANCH  17  19
ATOM     19  C   UNL     1       1.517   3.657  21.025  0.00  0.00    +0.000 C 
ATOM     20  F   UNL     1       0.488   4.473  20.664  0.00  0.00    +0.000 F 
ATOM     21  F   UNL     1       0.948   2.594  21.658  0.00  0.00    +0.000 F 
ATOM     22  F   UNL     1       2.211   4.334  21.982  0.00  0.00    +0.000 F 
ENDBRANCH  17  19
ENDBRANCH   9  13
TORSDOF 2
ENDMDL
MODEL 3
REMARK VINA RESULT:      -8.0      3.849      6.460
REMARK  Name = 
REMARK  3 active torsions:
REMARK  status: ('A' for Active; 'I' for Inactive)
REMARK    1  A    between atoms: C_1  and  N_2
REMARK    2  A    between atoms: C_9  and  C_10
REMARK    3  A    between atoms: C_14  and  C_15
REMARK                            x       y       z     vdW  Elec       q    Type
REMARK                         _______ _______ _______ _____ _____    ______ ____
ROOT
ATOM      1  C   UNL     1       0.841   8.605  21.394  0.00  0.00    +0.000 C 
ATOM      2  N   UNL     1       1.582   8.125  20.251  0.00  0.00    +0.000 N 
ATOM      3  C   UNL     1       1.939   6.836  20.180  0.00  0.00    +0.000 A 
ATOM      4  N   UNL     1       1.212   5.871  20.822  0.00  0.00    +0.000 NA
ATOM      5  C   UNL     1       1.843   4.766  20.501  0.00  0.00    +0.000 A 
ATOM      6  C   UNL     1       1.634   3.401  20.775  0.00  0.00    +0.000 A 
ATOM      7  C   UNL     1       2.505   2.522  20.255  0.00  0.00    +0.000 A 
ATOM      8  N   UNL     1       3.611   2.847  19.496  0.00  0.00    +0.000 NA
ATOM      9  C   UNL     1       3.848   4.115  19.251  0.00  0.00    +0.000 A 
ATOM     10  N   UNL     1       2.937   5.072  19.735  0.00  0.00    +0.000 N 
ATOM     11  N   UNL     1       3.002   6.398  19.504  0.00  0.00    +0.000 NA
ATOM     12  H   UNL     1       2.259   8.779  19.878  0.00  0.00    +0.000 HD
ENDROOT
BRANCH   9  13
ATOM     13  C   UNL     1       5.095   4.455  18.505  0.00  0.00    +0.000 A 
ATOM     14  C   UNL     1       6.145   5.086  19.183  0.00  0.00    +0.000 A 
ATOM     15  C   UNL     1       7.273   5.518  18.485  0.00  0.00    +0.000 A 
ATOM     16  C   UNL     1       7.351   5.340  17.103  0.00  0.00    +0.000 A 
ATOM     17  C   UNL     1       6.303   4.723  16.404  0.00  0.00    +0.000 A 
ATOM     18  C   UNL     1       5.181   4.271  17.119  0.00  0.00    +0.000 A 
BRANCH  17  19
ATOM     19  C   UNL     1       6.343   4.570  14.903  0.00  0.00    +0.000 C 
ATOM     20  F   UNL     1       5.293   5.160  14.267  0.00  0.00    +0.000 F 
ATOM     21  F   UNL     1       7.466   5.106  14.350  0.00  0.00    +0.000 F 
ATOM     22  F   UNL     1       6.323   3.264  14.518  0.00  0.00    +0.000 F 
ENDBRANCH  17  19
ENDBRANCH   9  13
TORSDOF 2
ENDMDL
MODEL 4
REMARK VINA RESULT:      -8.0      1.534      1.850
REMARK  Name = 
REMARK  3 active torsions:
REMARK  status: ('A' for Active; 'I' for Inactive)
REMARK    1  A    between atoms: C_1  and  N_2
REMARK    2  A    between atoms: C_9  and  C_10
REMARK    3  A    between atoms: C_14  and  C_15
REMARK                            x       y       z     vdW  Elec       q    Type
REMARK                         _______ _______ _______ _____ _____    ______ ____
ROOT
ATOM      1  C   UNL     1       6.662   3.548  12.425  0.00  0.00    +0.000 C 
ATOM      2  N   UNL     1       5.520   3.886  13.241  0.00  0.00    +0.000 N 
ATOM      3  C   UNL     1       5.702   4.376  14.475  0.00  0.00    +0.000 A 
ATOM      4  N   UNL     1       6.842   5.060  14.795  0.00  0.00    +0.000 NA
ATOM      5  C   UNL     1       6.642   5.394  16.048  0.00  0.00    +0.000 A 
ATOM      6  C   UNL     1       7.375   6.132  16.998  0.00  0.00    +0.000 A 
ATOM      7  C   UNL     1       6.837   6.281  18.219  0.00  0.00    +0.000 A 
ATOM      8  N   UNL     1       5.634   5.746  18.634  0.00  0.00    +0.000 NA
ATOM      9  C   UNL     1       4.945   5.026  17.779  0.00  0.00    +0.000 A 
ATOM     10  N   UNL     1       5.444   4.880  16.471  0.00  0.00    +0.000 N 
ATOM     11  N   UNL     1       4.819   4.237  15.464  0.00  0.00    +0.000 NA
ATOM     12  H   UNL     1       4.725   3.266  13.139  0.00  0.00    +0.000 HD
ENDROOT
BRANCH   9  13
ATOM     13  C   UNL     1       3.692   4.381  18.269  0.00  0.00    +0.000 A 
ATOM     14  C   UNL     1       2.568   4.352  17.433  0.00  0.00    +0.000 A 
ATOM     15  C   UNL     1       1.352   3.859  17.908  0.00  0.00    +0.000 A 
ATOM     16  C   UNL     1       1.246   3.410  19.226  0.00  0.00    +0.000 A 
ATOM     17  C   UNL     1       2.356   3.445  20.081  0.00  0.00    +0.000 A 
ATOM     18  C   UNL     1       3.583   3.922  19.587  0.00  0.00    +0.000 A 
BRANCH  17  19
ATOM     19  C   UNL     1       2.250   3.016  21.524  0.00  0.00    +0.000 C 
ATOM     20  F   UNL     1       1.050   2.454  21.839  0.00  0.00    +0.000 F 
ATOM     21  F   UNL     1       3.195   2.099  21.871  0.00  0.00    +0.000 F 
ATOM     22  F   UNL     1       2.408   4.060  22.385  0.00  0.00    +0.000 F 
ENDBRANCH  17  19
ENDBRANCH   9  13
TORSDOF 2
ENDMDL
MODEL 5
REMARK VINA RESULT:      -7.9      1.405      2.041
REMARK  Name = 
REMARK  3 active torsions:
REMARK  status: ('A' for Active; 'I' for Inactive)
REMARK    1  A    between atoms: C_1  and  N_2
REMARK    2  A    between atoms: C_9  and  C_10
REMARK    3  A    between atoms: C_14  and  C_15
REMARK                            x       y       z     vdW  Elec       q    Type
REMARK                         _______ _______ _______ _____ _____    ______ ____
ROOT
ATOM      1  C   UNL     1       7.758   5.166  13.174  0.00  0.00    +0.000 C 
ATOM      2  N   UNL     1       6.538   5.106  13.944  0.00  0.00    +0.000 N 
ATOM      3  C   UNL     1       6.589   5.162  15.282  0.00  0.00    +0.000 A 
ATOM      4  N   UNL     1       7.622   5.794  15.918  0.00  0.00    +0.000 NA
ATOM      5  C   UNL     1       7.311   5.663  17.186  0.00  0.00    +0.000 A 
ATOM      6  C   UNL     1       7.896   6.096  18.391  0.00  0.00    +0.000 A 
ATOM      7  C   UNL     1       7.273   5.774  19.535  0.00  0.00    +0.000 A 
ATOM      8  N   UNL     1       6.117   5.027  19.633  0.00  0.00    +0.000 NA
ATOM      9  C   UNL     1       5.566   4.583  18.527  0.00  0.00    +0.000 A 
ATOM     10  N   UNL     1       6.156   4.933  17.298  0.00  0.00    +0.000 N 
ATOM     11  N   UNL     1       5.670   4.619  16.081  0.00  0.00    +0.000 NA
ATOM     12  H   UNL     1       5.827   4.491  13.568  0.00  0.00    +0.000 HD
ENDROOT
BRANCH   9  13
ATOM     13  C   UNL     1       4.368   3.703  18.654  0.00  0.00    +0.000 A 
ATOM     14  C   UNL     1       4.130   2.730  17.676  0.00  0.00    +0.000 A 
ATOM     15  C   UNL     1       2.958   1.973  17.709  0.00  0.00    +0.000 A 
ATOM     16  C   UNL     1       2.008   2.196  18.707  0.00  0.00    +0.000 A 
ATOM     17  C   UNL     1       2.223   3.177  19.687  0.00  0.00    +0.000 A 
ATOM     18  C   UNL     1       3.416   3.918  19.659  0.00  0.00    +0.000 A 
BRANCH  17  19
ATOM     19  C   UNL     1       1.185   3.473  20.742  0.00  0.00    +0.000 C 
ATOM     20  F   UNL     1       1.624   3.260  22.013  0.00  0.00    +0.000 F 
ATOM     21  F   UNL     1       0.753   4.763  20.706  0.00  0.00    +0.000 F 
ATOM     22  F   UNL     1       0.072   2.701  20.600  0.00  0.00    +0.000 F 
ENDBRANCH  17  19
ENDBRANCH   9  13
TORSDOF 2
ENDMDL
MODEL 6
REMARK VINA RESULT:      -7.7      3.729      6.390
REMARK  Name = 
REMARK  3 active torsions:
REMARK  status: ('A' for Active; 'I' for Inactive)
REMARK    1  A    between atoms: C_1  and  N_2
REMARK    2  A    between atoms: C_9  and  C_10
REMARK    3  A    between atoms: C_14  and  C_15
REMARK                            x       y       z     vdW  Elec       q    Type
REMARK                         _______ _______ _______ _____ _____    ______ ____
ROOT
ATOM      1  C   UNL     1      -0.822  10.141  23.230  0.00  0.00    +0.000 C 
ATOM      2  N   UNL     1       0.337   9.318  22.978  0.00  0.00    +0.000 N 
ATOM      3  C   UNL     1       0.767   9.137  21.722  0.00  0.00    +0.000 A 
ATOM      4  N   UNL     1       0.526  10.076  20.756  0.00  0.00    +0.000 NA
ATOM      5  C   UNL     1       1.110   9.566  19.698  0.00  0.00    +0.000 A 
ATOM      6  C   UNL     1       1.291  10.000  18.371  0.00  0.00    +0.000 A 
ATOM      7  C   UNL     1       1.971   9.194  17.540  0.00  0.00    +0.000 A 
ATOM      8  N   UNL     1       2.485   7.956  17.871  0.00  0.00    +0.000 NA
ATOM      9  C   UNL     1       2.304   7.512  19.093  0.00  0.00    +0.000 A 
ATOM     10  N   UNL     1       1.637   8.341  20.014  0.00  0.00    +0.000 N 
ATOM     11  N   UNL     1       1.441   8.059  21.318  0.00  0.00    +0.000 NA
ATOM     12  H   UNL     1       0.425   8.509  23.581  0.00  0.00    +0.000 HD
ENDROOT
BRANCH   9  13
ATOM     13  C   UNL     1       2.787   6.136  19.409  0.00  0.00    +0.000 A 
ATOM     14  C   UNL     1       4.148   5.841  19.259  0.00  0.00    +0.000 A 
ATOM     15  C   UNL     1       4.607   4.535  19.437  0.00  0.00    +0.000 A 
ATOM     16  C   UNL     1       3.708   3.513  19.744  0.00  0.00    +0.000 A 
ATOM     17  C   UNL     1       2.340   3.787  19.883  0.00  0.00    +0.000 A 
ATOM     18  C   UNL     1       1.890   5.109  19.725  0.00  0.00    +0.000 A 
BRANCH  17  19
ATOM     19  C   UNL     1       1.343   2.688  20.161  0.00  0.00    +0.000 C 
ATOM     20  F   UNL     1       0.111   2.922  19.631  0.00  0.00    +0.000 F 
ATOM     21  F   UNL     1       1.740   1.482  19.668  0.00  0.00    +0.000 F 
ATOM     22  F   UNL     1       1.143   2.499  21.495  0.00  0.00    +0.000 F 
ENDBRANCH  17  19
ENDBRANCH   9  13
TORSDOF 2
ENDMDL
MODEL 7
REMARK VINA RESULT:      -7.7      4.089      6.621
REMARK  Name = 
REMARK  3 active torsions:
REMARK  status: ('A' for Active; 'I' for Inactive)
REMARK    1  A    between atoms: C_1  and  N_2
REMARK    2  A    between atoms: C_9  and  C_10
REMARK    3  A    between atoms: C_14  and  C_15
REMARK                            x       y       z     vdW  Elec       q    Type
REMARK                         _______ _______ _______ _____ _____    ______ ____
ROOT
ATOM      1  C   UNL     1       1.809   7.975  20.376  0.00  0.00    +0.000 C 
ATOM      2  N   UNL     1       2.270   7.550  19.075  0.00  0.00    +0.000 N 
ATOM      3  C   UNL     1       2.553   6.259  18.856  0.00  0.00    +0.000 A 
ATOM      4  N   UNL     1       1.943   5.274  19.583  0.00  0.00    +0.000 NA
ATOM      5  C   UNL     1       2.447   4.176  19.072  0.00  0.00    +0.000 A 
ATOM      6  C   UNL     1       2.248   2.802  19.306  0.00  0.00    +0.000 A 
ATOM      7  C   UNL     1       2.954   1.936  18.562  0.00  0.00    +0.000 A 
ATOM      8  N   UNL     1       3.885   2.280  17.602  0.00  0.00    +0.000 NA
ATOM      9  C   UNL     1       4.113   3.554  17.385  0.00  0.00    +0.000 A 
ATOM     10  N   UNL     1       3.364   4.501  18.107  0.00  0.00    +0.000 N 
ATOM     11  N   UNL     1       3.430   5.838  17.944  0.00  0.00    +0.000 NA
ATOM     12  H   UNL     1       2.877   8.208  18.603  0.00  0.00    +0.000 HD
ENDROOT
BRANCH   9  13
ATOM     13  C   UNL     1       5.185   3.909  16.408  0.00  0.00    +0.000 A 
ATOM     14  C   UNL     1       6.227   4.751  16.816  0.00  0.00    +0.000 A 
ATOM     15  C   UNL     1       7.177   5.190  15.892  0.00  0.00    +0.000 A 
ATOM     16  C   UNL     1       7.080   4.808  14.554  0.00  0.00    +0.000 A 
ATOM     17  C   UNL     1       6.035   3.977  14.125  0.00  0.00    +0.000 A 
ATOM     18  C   UNL     1       5.096   3.520  15.066  0.00  0.00    +0.000 A 
BRANCH  17  19
ATOM     19  C   UNL     1       5.880   3.595  12.673  0.00  0.00    +0.000 C 
ATOM     20  F   UNL     1       6.122   2.278  12.426  0.00  0.00    +0.000 F 
ATOM     21  F   UNL     1       4.629   3.842  12.195  0.00  0.00    +0.000 F 
ATOM     22  F   UNL     1       6.732   4.287  11.865  0.00  0.00    +0.000 F 
ENDBRANCH  17  19
ENDBRANCH   9  13
TORSDOF 2
ENDMDL
MODEL 8
REMARK VINA RESULT:      -7.6      1.981      3.718
REMARK  Name = 
REMARK  3 active torsions:
REMARK  status: ('A' for Active; 'I' for Inactive)
REMARK    1  A    between atoms: C_1  and  N_2
REMARK    2  A    between atoms: C_9  and  C_10
REMARK    3  A    between atoms: C_14  and  C_15
REMARK                            x       y       z     vdW  Elec       q    Type
REMARK                         _______ _______ _______ _____ _____    ______ ____
ROOT
ATOM      1  C   UNL     1       8.564   8.407  18.415  0.00  0.00    +0.000 C 
ATOM      2  N   UNL     1       8.008   7.130  18.794  0.00  0.00    +0.000 N 
ATOM      3  C   UNL     1       7.356   6.390  17.887  0.00  0.00    +0.000 A 
ATOM      4  N   UNL     1       7.642   6.503  16.554  0.00  0.00    +0.000 NA
ATOM      5  C   UNL     1       6.839   5.623  16.005  0.00  0.00    +0.000 A 
ATOM      6  C   UNL     1       6.620   5.180  14.687  0.00  0.00    +0.000 A 
ATOM      7  C   UNL     1       5.694   4.226  14.497  0.00  0.00    +0.000 A 
ATOM      8  N   UNL     1       4.915   3.660  15.486  0.00  0.00    +0.000 NA
ATOM      9  C   UNL     1       5.076   4.077  16.720  0.00  0.00    +0.000 A 
ATOM     10  N   UNL     1       6.067   5.042  16.978  0.00  0.00    +0.000 N 
ATOM     11  N   UNL     1       6.401   5.512  18.196  0.00  0.00    +0.000 NA
ATOM     12  H   UNL     1       7.627   7.093  19.731  0.00  0.00    +0.000 HD
ENDROOT
BRANCH   9  13
ATOM     13  C   UNL     1       4.165   3.519  17.763  0.00  0.00    +0.000 A 
ATOM     14  C   UNL     1       3.868   2.151  17.748  0.00  0.00    +0.000 A 
ATOM     15  C   UNL     1       2.932   1.626  18.640  0.00  0.00    +0.000 A 
ATOM     16  C   UNL     1       2.271   2.466  19.537  0.00  0.00    +0.000 A 
ATOM     17  C   UNL     1       2.544   3.842  19.556  0.00  0.00    +0.000 A 
ATOM     18  C   UNL     1       3.506   4.358  18.671  0.00  0.00    +0.000 A 
BRANCH  17  19
ATOM     19  C   UNL     1       1.803   4.777  20.480  0.00  0.00    +0.000 C 
ATOM     20  F   UNL     1       1.846   6.080  20.087  0.00  0.00    +0.000 F 
ATOM     21  F   UNL     1       0.482   4.464  20.594  0.00  0.00    +0.000 F 
ATOM     22  F   UNL     1       2.303   4.754  21.746  0.00  0.00    +0.000 F 
ENDBRANCH  17  19
ENDBRANCH   9  13
TORSDOF 2
ENDMDL
MODEL 9
REMARK VINA RESULT:      -7.5      3.806      6.192
REMARK  Name = 
REMARK  3 active torsions:
REMARK  status: ('A' for Active; 'I' for Inactive)
REMARK    1  A    between atoms: C_1  and  N_2
REMARK    2  A    between atoms: C_9  and  C_10
REMARK    3  A    between atoms: C_14  and  C_15
REMARK                            x       y       z     vdW  Elec       q    Type
REMARK                         _______ _______ _______ _____ _____    ______ ____
ROOT
ATOM      1  C   UNL     1       1.620  10.511  18.431  0.00  0.00    +0.000 C 
ATOM      2  N   UNL     1       2.215   9.410  17.710  0.00  0.00    +0.000 N 
ATOM      3  C   UNL     1       2.422   8.241  18.330  0.00  0.00    +0.000 A 
ATOM      4  N   UNL     1       1.644   7.862  19.389  0.00  0.00    +0.000 NA
ATOM      5  C   UNL     1       2.123   6.680  19.698  0.00  0.00    +0.000 A 
ATOM      6  C   UNL     1       1.786   5.702  20.653  0.00  0.00    +0.000 A 
ATOM      7  C   UNL     1       2.514   4.574  20.672  0.00  0.00    +0.000 A 
ATOM      8  N   UNL     1       3.588   4.303  19.849  0.00  0.00    +0.000 NA
ATOM      9  C   UNL     1       3.944   5.210  18.970  0.00  0.00    +0.000 A 
ATOM     10  N   UNL     1       3.183   6.390  18.880  0.00  0.00    +0.000 N 
ATOM     11  N   UNL     1       3.376   7.377  17.982  0.00  0.00    +0.000 NA
ATOM     12  H   UNL     1       2.930   9.675  17.044  0.00  0.00    +0.000 HD
ENDROOT
BRANCH   9  13
ATOM     13  C   UNL     1       5.161   4.939  18.149  0.00  0.00    +0.000 A 
ATOM     14  C   UNL     1       6.424   5.060  18.742  0.00  0.00    +0.000 A 
ATOM     15  C   UNL     1       7.578   4.925  17.969  0.00  0.00    +0.000 A 
ATOM     16  C   UNL     1       7.478   4.688  16.597  0.00  0.00    +0.000 A 
ATOM     17  C   UNL     1       6.222   4.579  15.984  0.00  0.00    +0.000 A 
ATOM     18  C   UNL     1       5.065   4.693  16.774  0.00  0.00    +0.000 A 
BRANCH  17  19
ATOM     19  C   UNL     1       6.091   4.378  14.494  0.00  0.00    +0.000 C 
ATOM     20  F   UNL     1       6.339   3.101  14.091  0.00  0.00    +0.000 F 
ATOM     21  F   UNL     1       4.847   4.681  14.031  0.00  0.00    +0.000 F 
ATOM     22  F   UNL     1       6.953   5.163  13.790  0.00  0.00    +0.000 F 
ENDBRANCH  17  19
ENDBRANCH   9  13
TORSDOF 2
ENDMDL
