MODEL 1
REMARK VINA RESULT:      -6.4      0.000      0.000
REMARK  Name = 
REMARK  7 active torsions:
REMARK  status: ('A' for Active; 'I' for Inactive)
REMARK    1  A    between atoms: C_1  and  N_2
REMARK    2  A    between atoms: N_2  and  C_3
REMARK    3  A    between atoms: N_2  and  C_4
REMARK    4  A    between atoms: C_4  and  C_5
REMARK    5  A    between atoms: C_5  and  N_6
REMARK    6  A    between atoms: N_13  and  C_14
REMARK    7  A    between atoms: N_17  and  C_18
REMARK                            x       y       z     vdW  Elec       q    Type
REMARK                         _______ _______ _______ _____ _____    ______ ____
ROOT
ATOM      1  N   UNL     1       4.185   3.399  18.695  0.00  0.00    +0.000 N 
ATOM      2  C   UNL     1       3.598   2.797  17.629  0.00  0.00    +0.000 A 
ATOM      3  N   UNL     1       4.145   3.183  16.452  0.00  0.00    +0.000 NA
ATOM      4  C   UNL     1       5.110   4.049  16.820  0.00  0.00    +0.000 A 
ATOM      5  C   UNL     1       5.149   4.175  18.167  0.00  0.00    +0.000 A 
ATOM      6  C   UNL     1       6.077   5.012  18.776  0.00  0.00    +0.000 A 
ATOM      7  O   UNL     1       6.120   5.118  19.989  0.00  0.00    +0.000 OA
ATOM      8  N   UNL     1       6.958   5.711  17.961  0.00  0.00    +0.000 N 
ATOM      9  C   UNL     1       7.979   6.597  18.543  0.00  0.00    +0.000 C 
ATOM     10  C   UNL     1       6.880   5.582  16.574  0.00  0.00    +0.000 A 
ATOM     11  O   UNL     1       7.646   6.216  15.864  0.00  0.00    +0.000 OA
ATOM     12  N   UNL     1       5.938   4.741  15.993  0.00  0.00    +0.000 N 
ATOM     13  C   UNL     1       5.794   4.590  14.540  0.00  0.00    +0.000 C 
ENDROOT
BRANCH   1  14
ATOM     14  C   UNL     1       3.768   3.282  20.092  0.00  0.00    +0.000 C 
BRANCH  14  15
ATOM     15  C   UNL     1       2.672   4.326  20.378  0.00  0.00    +0.000 C 
BRANCH  15  17
ATOM     16  C   UNL     1       0.658   3.179  19.580  0.00  0.00    +0.000 C 
ATOM     17  N   UNL     1       1.388   3.687  20.756  0.00  0.00    +0.000 NA
ATOM     18  C   UNL     1       1.624   2.579  21.696  0.00  0.00    +0.000 C 
ENDBRANCH  15  17
ENDBRANCH  14  15
ENDBRANCH   1  14
TORSDOF 3
ENDMDL
MODEL 2
REMARK VINA RESULT:      -6.2      2.229      5.424
REMARK  Name = 
REMARK  7 active torsions:
REMARK  status: ('A' for Active; 'I' for Inactive)
REMARK    1  A    between atoms: C_1  and  N_2
REMARK    2  A    between atoms: N_2  and  C_3
REMARK    3  A    between atoms: N_2  and  C_4
REMARK    4  A    between atoms: C_4  and  C_5
REMARK    5  A    between atoms: C_5  and  N_6
REMARK    6  A    between atoms: N_13  and  C_14
REMARK    7  A    between atoms: N_17  and  C_18
REMARK                            x       y       z     vdW  Elec       q    Type
REMARK                         _______ _______ _______ _____ _____    ______ ____
ROOT
ATOM      1  N   UNL     1       4.697   4.960  16.799  0.00  0.00    +0.000 N 
ATOM      2  C   UNL     1       4.777   3.612  16.664  0.00  0.00    +0.000 A 
ATOM      3  N   UNL     1       4.001   2.956  17.558  0.00  0.00    +0.000 NA
ATOM      4  C   UNL     1       3.419   3.948  18.260  0.00  0.00    +0.000 A 
ATOM      5  C   UNL     1       3.823   5.156  17.803  0.00  0.00    +0.000 A 
ATOM      6  C   UNL     1       3.342   6.329  18.373  0.00  0.00    +0.000 A 
ATOM      7  O   UNL     1       3.697   7.417  17.954  0.00  0.00    +0.000 OA
ATOM      8  N   UNL     1       2.439   6.221  19.423  0.00  0.00    +0.000 N 
ATOM      9  C   UNL     1       1.876   7.424  20.057  0.00  0.00    +0.000 C 
ATOM     10  C   UNL     1       2.059   4.963  19.892  0.00  0.00    +0.000 A 
ATOM     11  O   UNL     1       1.279   4.878  20.829  0.00  0.00    +0.000 OA
ATOM     12  N   UNL     1       2.560   3.807  19.305  0.00  0.00    +0.000 N 
ATOM     13  C   UNL     1       2.215   2.461  19.777  0.00  0.00    +0.000 C 
ENDROOT
BRANCH   1  14
ATOM     14  C   UNL     1       5.482   5.952  16.064  0.00  0.00    +0.000 C 
BRANCH  14  15
ATOM     15  C   UNL     1       6.936   5.921  16.574  0.00  0.00    +0.000 C 
BRANCH  15  17
ATOM     16  C   UNL     1       7.787   5.878  18.872  0.00  0.00    +0.000 C 
ATOM     17  N   UNL     1       7.091   6.672  17.843  0.00  0.00    +0.000 NA
ATOM     18  C   UNL     1       7.833   7.922  17.610  0.00  0.00    +0.000 C 
ENDBRANCH  15  17
ENDBRANCH  14  15
ENDBRANCH   1  14
TORSDOF 3
ENDMDL
MODEL 3
REMARK VINA RESULT:      -6.1      2.416      5.775
REMARK  Name = 
REMARK  7 active torsions:
REMARK  status: ('A' for Active; 'I' for Inactive)
REMARK    1  A    between atoms: C_1  and  N_2
REMARK    2  A    between atoms: N_2  and  C_3
REMARK    3  A    between atoms: N_2  and  C_4
REMARK    4  A    between atoms: C_4  and  C_5
REMARK    5  A    between atoms: C_5  and  N_6
REMARK    6  A    between atoms: N_13  and  C_14
REMARK    7  A    between atoms: N_17  and  C_18
REMARK                            x       y       z     vdW  Elec       q    Type
REMARK                         _______ _______ _______ _____ _____    ______ ____
ROOT
ATOM      1  N   UNL     1       4.110   6.131  17.309  0.00  0.00    +0.000 N 
ATOM      2  C   UNL     1       3.494   7.160  17.945  0.00  0.00    +0.000 A 
ATOM      3  N   UNL     1       2.654   6.738  18.919  0.00  0.00    +0.000 NA
ATOM      4  C   UNL     1       2.773   5.395  18.878  0.00  0.00    +0.000 A 
ATOM      5  C   UNL     1       3.654   5.024  17.922  0.00  0.00    +0.000 A 
ATOM      6  C   UNL     1       3.944   3.681  17.706  0.00  0.00    +0.000 A 
ATOM      7  O   UNL     1       4.746   3.346  16.852  0.00  0.00    +0.000 OA
ATOM      8  N   UNL     1       3.301   2.740  18.498  0.00  0.00    +0.000 N 
ATOM      9  C   UNL     1       3.578   1.303  18.335  0.00  0.00    +0.000 C 
ATOM     10  C   UNL     1       2.377   3.149  19.460  0.00  0.00    +0.000 A 
ATOM     11  O   UNL     1       1.801   2.312  20.140  0.00  0.00    +0.000 OA
ATOM     12  N   UNL     1       2.104   4.499  19.651  0.00  0.00    +0.000 N 
ATOM     13  C   UNL     1       1.122   4.982  20.629  0.00  0.00    +0.000 C 
ENDROOT
BRANCH   1  14
ATOM     14  C   UNL     1       4.994   6.236  16.149  0.00  0.00    +0.000 C 
BRANCH  14  15
ATOM     15  C   UNL     1       6.401   6.649  16.624  0.00  0.00    +0.000 C 
BRANCH  15  17
ATOM     16  C   UNL     1       7.628   4.651  17.339  0.00  0.00    +0.000 C 
ATOM     17  N   UNL     1       7.424   5.638  16.263  0.00  0.00    +0.000 NA
ATOM     18  C   UNL     1       7.036   4.936  15.029  0.00  0.00    +0.000 C 
ENDBRANCH  15  17
ENDBRANCH  14  15
ENDBRANCH   1  14
TORSDOF 3
ENDMDL
MODEL 4
REMARK VINA RESULT:      -5.9      2.446      6.040
REMARK  Name = 
REMARK  7 active torsions:
REMARK  status: ('A' for Active; 'I' for Inactive)
REMARK    1  A    between atoms: C_1  and  N_2
REMARK    2  A    between atoms: N_2  and  C_3
REMARK    3  A    between atoms: N_2  and  C_4
REMARK    4  A    between atoms: C_4  and  C_5
REMARK    5  A    between atoms: C_5  and  N_6
REMARK    6  A    between atoms: N_13  and  C_14
REMARK    7  A    between atoms: N_17  and  C_18
REMARK                            x       y       z     vdW  Elec       q    Type
REMARK                         _______ _______ _______ _____ _____    ______ ____
ROOT
ATOM      1  N   UNL     1       4.991   4.844  16.825  0.00  0.00    +0.000 N 
ATOM      2  C   UNL     1       5.161   6.191  16.844  0.00  0.00    +0.000 A 
ATOM      3  N   UNL     1       4.325   6.805  17.715  0.00  0.00    +0.000 NA
ATOM      4  C   UNL     1       3.625   5.786  18.253  0.00  0.00    +0.000 A 
ATOM      5  C   UNL     1       4.027   4.604  17.732  0.00  0.00    +0.000 A 
ATOM      6  C   UNL     1       3.448   3.411  18.148  0.00  0.00    +0.000 A 
ATOM      7  O   UNL     1       3.817   2.345  17.688  0.00  0.00    +0.000 OA
ATOM      8  N   UNL     1       2.448   3.472  19.110  0.00  0.00    +0.000 N 
ATOM      9  C   UNL     1       1.809   2.243  19.610  0.00  0.00    +0.000 C 
ATOM     10  C   UNL     1       2.035   4.707  19.612  0.00  0.00    +0.000 A 
ATOM     11  O   UNL     1       1.141   4.752  20.444  0.00  0.00    +0.000 OA
ATOM     12  N   UNL     1       2.629   5.884  19.173  0.00  0.00    +0.000 N 
ATOM     13  C   UNL     1       2.214   7.210  19.647  0.00  0.00    +0.000 C 
ENDROOT
BRANCH   1  14
ATOM     14  C   UNL     1       5.657   3.901  15.927  0.00  0.00    +0.000 C 
BRANCH  14  15
ATOM     15  C   UNL     1       5.400   4.328  14.469  0.00  0.00    +0.000 C 
BRANCH  15  17
ATOM     16  C   UNL     1       5.908   3.339  12.284  0.00  0.00    +0.000 C 
ATOM     17  N   UNL     1       6.462   3.839  13.556  0.00  0.00    +0.000 NA
ATOM     18  C   UNL     1       7.429   4.912  13.275  0.00  0.00    +0.000 C 
ENDBRANCH  15  17
ENDBRANCH  14  15
ENDBRANCH   1  14
TORSDOF 3
ENDMDL
MODEL 5
REMARK VINA RESULT:      -5.9      1.493      1.880
REMARK  Name = 
REMARK  7 active torsions:
REMARK  status: ('A' for Active; 'I' for Inactive)
REMARK    1  A    between atoms: C_1  and  N_2
REMARK    2  A    between atoms: N_2  and  C_3
REMARK    3  A    between atoms: N_2  and  C_4
REMARK    4  A    between atoms: C_4  and  C_5
REMARK    5  A    between atoms: C_5  and  N_6
REMARK    6  A    between atoms: N_13  and  C_14
REMARK    7  A    between atoms: N_17  and  C_18
REMARK                            x       y       z     vdW  Elec       q    Type
REMARK                         _______ _______ _______ _____ _____    ______ ____
ROOT
ATOM      1  N   UNL     1       3.569   4.060  18.580  0.00  0.00    +0.000 N 
ATOM      2  C   UNL     1       2.965   3.373  17.577  0.00  0.00    +0.000 A 
ATOM      3  N   UNL     1       3.645   3.458  16.409  0.00  0.00    +0.000 NA
ATOM      4  C   UNL     1       4.712   4.222  16.719  0.00  0.00    +0.000 A 
ATOM      5  C   UNL     1       4.679   4.578  18.024  0.00  0.00    +0.000 A 
ATOM      6  C   UNL     1       5.689   5.362  18.572  0.00  0.00    +0.000 A 
ATOM      7  O   UNL     1       5.666   5.673  19.750  0.00  0.00    +0.000 OA
ATOM      8  N   UNL     1       6.724   5.767  17.740  0.00  0.00    +0.000 N 
ATOM      9  C   UNL     1       7.834   6.580  18.262  0.00  0.00    +0.000 C 
ATOM     10  C   UNL     1       6.719   5.407  16.392  0.00  0.00    +0.000 A 
ATOM     11  O   UNL     1       7.625   5.784  15.663  0.00  0.00    +0.000 OA
ATOM     12  N   UNL     1       5.694   4.626  15.871  0.00  0.00    +0.000 N 
ATOM     13  C   UNL     1       5.626   4.243  14.456  0.00  0.00    +0.000 C 
ENDROOT
BRANCH   1  14
ATOM     14  C   UNL     1       3.046   4.256  19.932  0.00  0.00    +0.000 C 
BRANCH  14  15
ATOM     15  C   UNL     1       1.890   5.274  19.880  0.00  0.00    +0.000 C 
BRANCH  15  17
ATOM     16  C   UNL     1       2.436   7.323  18.651  0.00  0.00    +0.000 C 
ATOM     17  N   UNL     1       2.381   6.670  19.972  0.00  0.00    +0.000 NA
ATOM     18  C   UNL     1       1.517   7.458  20.867  0.00  0.00    +0.000 C 
ENDBRANCH  15  17
ENDBRANCH  14  15
ENDBRANCH   1  14
TORSDOF 3
ENDMDL
MODEL 6
REMARK VINA RESULT:      -5.8      2.210      5.500
REMARK  Name = 
REMARK  7 active torsions:
REMARK  status: ('A' for Active; 'I' for Inactive)
REMARK    1  A    between atoms: C_1  and  N_2
REMARK    2  A    between atoms: N_2  and  C_3
REMARK    3  A    between atoms: N_2  and  C_4
REMARK    4  A    between atoms: C_4  and  C_5
REMARK    5  A    between atoms: C_5  and  N_6
REMARK    6  A    between atoms: N_13  and  C_14
REMARK    7  A    between atoms: N_17  and  C_18
REMARK                            x       y       z     vdW  Elec       q    Type
REMARK                         _______ _______ _______ _____ _____    ______ ____
ROOT
ATOM      1  N   UNL     1       4.147   3.524  17.444  0.00  0.00    +0.000 N 
ATOM      2  C   UNL     1       3.887   2.265  17.881  0.00  0.00    +0.000 A 
ATOM      3  N   UNL     1       3.045   2.249  18.941  0.00  0.00    +0.000 NA
ATOM      4  C   UNL     1       2.776   3.553  19.151  0.00  0.00    +0.000 A 
ATOM      5  C   UNL     1       3.425   4.324  18.249  0.00  0.00    +0.000 A 
ATOM      6  C   UNL     1       3.287   5.708  18.268  0.00  0.00    +0.000 A 
ATOM      7  O   UNL     1       3.862   6.403  17.449  0.00  0.00    +0.000 OA
ATOM      8  N   UNL     1       2.467   6.268  19.239  0.00  0.00    +0.000 N 
ATOM      9  C   UNL     1       2.261   7.725  19.301  0.00  0.00    +0.000 C 
ATOM     10  C   UNL     1       1.829   5.450  20.173  0.00  0.00    +0.000 A 
ATOM     11  O   UNL     1       1.125   5.953  21.035  0.00  0.00    +0.000 OA
ATOM     12  N   UNL     1       1.990   4.070  20.132  0.00  0.00    +0.000 N 
ATOM     13  C   UNL     1       1.365   3.167  21.106  0.00  0.00    +0.000 C 
ENDROOT
BRANCH   1  14
ATOM     14  C   UNL     1       5.091   3.897  16.391  0.00  0.00    +0.000 C 
BRANCH  14  15
ATOM     15  C   UNL     1       6.489   4.083  17.012  0.00  0.00    +0.000 C 
BRANCH  15  17
ATOM     16  C   UNL     1       6.958   4.986  14.782  0.00  0.00    +0.000 C 
ATOM     17  N   UNL     1       7.331   5.001  16.209  0.00  0.00    +0.000 NA
ATOM     18  C   UNL     1       7.225   6.376  16.722  0.00  0.00    +0.000 C 
ENDBRANCH  15  17
ENDBRANCH  14  15
ENDBRANCH   1  14
TORSDOF 3
ENDMDL
MODEL 7
REMARK VINA RESULT:      -5.8      2.133      5.604
REMARK  Name = 
REMARK  7 active torsions:
REMARK  status: ('A' for Active; 'I' for Inactive)
REMARK    1  A    between atoms: C_1  and  N_2
REMARK    2  A    between atoms: N_2  and  C_3
REMARK    3  A    between atoms: N_2  and  C_4
REMARK    4  A    between atoms: C_4  and  C_5
REMARK    5  A    between atoms: C_5  and  N_6
REMARK    6  A    between atoms: N_13  and  C_14
REMARK    7  A    between atoms: N_17  and  C_18
REMARK                            x       y       z     vdW  Elec       q    Type
REMARK                         _______ _______ _______ _____ _____    ______ ____
ROOT
ATOM      1  N   UNL     1       4.444   6.135  18.011  0.00  0.00    +0.000 N 
ATOM      2  C   UNL     1       3.362   6.954  18.015  0.00  0.00    +0.000 A 
ATOM      3  N   UNL     1       2.342   6.459  18.755  0.00  0.00    +0.000 NA
ATOM      4  C   UNL     1       2.829   5.295  19.228  0.00  0.00    +0.000 A 
ATOM      5  C   UNL     1       4.096   5.098  18.795  0.00  0.00    +0.000 A 
ATOM      6  C   UNL     1       4.805   3.962  19.168  0.00  0.00    +0.000 A 
ATOM      7  O   UNL     1       5.950   3.789  18.787  0.00  0.00    +0.000 OA
ATOM      8  N   UNL     1       4.174   3.040  19.993  0.00  0.00    +0.000 N 
ATOM      9  C   UNL     1       4.877   1.827  20.441  0.00  0.00    +0.000 C 
ATOM     10  C   UNL     1       2.858   3.256  20.403  0.00  0.00    +0.000 A 
ATOM     11  O   UNL     1       2.304   2.430  21.114  0.00  0.00    +0.000 OA
ATOM     12  N   UNL     1       2.172   4.399  20.011  0.00  0.00    +0.000 N 
ATOM     13  C   UNL     1       0.779   4.661  20.392  0.00  0.00    +0.000 C 
ENDROOT
BRANCH   1  14
ATOM     14  C   UNL     1       5.668   6.321  17.232  0.00  0.00    +0.000 C 
BRANCH  14  15
ATOM     15  C   UNL     1       5.328   6.227  15.732  0.00  0.00    +0.000 C 
BRANCH  15  17
ATOM     16  C   UNL     1       7.292   4.770  15.902  0.00  0.00    +0.000 C 
ATOM     17  N   UNL     1       6.303   5.386  14.997  0.00  0.00    +0.000 NA
ATOM     18  C   UNL     1       5.606   4.327  14.250  0.00  0.00    +0.000 C 
ENDBRANCH  15  17
ENDBRANCH  14  15
ENDBRANCH   1  14
TORSDOF 3
ENDMDL
MODEL 8
REMARK VINA RESULT:      -5.8      1.529      2.808
REMARK  Name = 
REMARK  7 active torsions:
REMARK  status: ('A' for Active; 'I' for Inactive)
REMARK    1  A    between atoms: C_1  and  N_2
REMARK    2  A    between atoms: N_2  and  C_3
REMARK    3  A    between atoms: N_2  and  C_4
REMARK    4  A    between atoms: C_4  and  C_5
REMARK    5  A    between atoms: C_5  and  N_6
REMARK    6  A    between atoms: N_13  and  C_14
REMARK    7  A    between atoms: N_17  and  C_18
REMARK                            x       y       z     vdW  Elec       q    Type
REMARK                         _______ _______ _______ _____ _____    ______ ____
ROOT
ATOM      1  N   UNL     1       4.162   3.934  18.789  0.00  0.00    +0.000 N 
ATOM      2  C   UNL     1       4.575   4.658  19.860  0.00  0.00    +0.000 A 
ATOM      3  N   UNL     1       5.615   5.472  19.564  0.00  0.00    +0.000 NA
ATOM      4  C   UNL     1       5.837   5.239  18.255  0.00  0.00    +0.000 A 
ATOM      5  C   UNL     1       4.960   4.325  17.779  0.00  0.00    +0.000 A 
ATOM      6  C   UNL     1       4.995   3.935  16.445  0.00  0.00    +0.000 A 
ATOM      7  O   UNL     1       4.199   3.120  16.013  0.00  0.00    +0.000 OA
ATOM      8  N   UNL     1       5.954   4.510  15.622  0.00  0.00    +0.000 N 
ATOM      9  C   UNL     1       6.031   4.157  14.195  0.00  0.00    +0.000 C 
ATOM     10  C   UNL     1       6.862   5.432  16.145  0.00  0.00    +0.000 A 
ATOM     11  O   UNL     1       7.715   5.918  15.418  0.00  0.00    +0.000 OA
ATOM     12  N   UNL     1       6.807   5.799  17.485  0.00  0.00    +0.000 N 
ATOM     13  C   UNL     1       7.754   6.741  18.092  0.00  0.00    +0.000 C 
ENDROOT
BRANCH   1  14
ATOM     14  C   UNL     1       3.135   2.892  18.792  0.00  0.00    +0.000 C 
BRANCH  14  15
ATOM     15  C   UNL     1       1.749   3.551  18.658  0.00  0.00    +0.000 C 
BRANCH  15  17
ATOM     16  C   UNL     1       1.555   2.589  20.904  0.00  0.00    +0.000 C 
ATOM     17  N   UNL     1       1.026   3.583  19.952  0.00  0.00    +0.000 NA
ATOM     18  C   UNL     1       1.111   4.923  20.554  0.00  0.00    +0.000 C 
ENDBRANCH  15  17
ENDBRANCH  14  15
ENDBRANCH   1  14
TORSDOF 3
ENDMDL
MODEL 9
REMARK VINA RESULT:      -5.8      2.528      5.515
REMARK  Name = 
REMARK  7 active torsions:
REMARK  status: ('A' for Active; 'I' for Inactive)
REMARK    1  A    between atoms: C_1  and  N_2
REMARK    2  A    between atoms: N_2  and  C_3
REMARK    3  A    between atoms: N_2  and  C_4
REMARK    4  A    between atoms: C_4  and  C_5
REMARK    5  A    between atoms: C_5  and  N_6
REMARK    6  A    between atoms: N_13  and  C_14
REMARK    7  A    between atoms: N_17  and  C_18
REMARK                            x       y       z     vdW  Elec       q    Type
REMARK                         _______ _______ _______ _____ _____    ______ ____
ROOT
ATOM      1  N   UNL     1       4.751   4.689  17.504  0.00  0.00    +0.000 N 
ATOM      2  C   UNL     1       4.796   3.467  18.094  0.00  0.00    +0.000 A 
ATOM      3  N   UNL     1       3.987   3.386  19.177  0.00  0.00    +0.000 NA
ATOM      4  C   UNL     1       3.421   4.608  19.242  0.00  0.00    +0.000 A 
ATOM      5  C   UNL     1       3.866   5.393  18.234  0.00  0.00    +0.000 A 
ATOM      6  C   UNL     1       3.408   6.698  18.094  0.00  0.00    +0.000 A 
ATOM      7  O   UNL     1       3.800   7.402  17.180  0.00  0.00    +0.000 OA
ATOM      8  N   UNL     1       2.486   7.168  19.020  0.00  0.00    +0.000 N 
ATOM      9  C   UNL     1       1.946   8.534  18.917  0.00  0.00    +0.000 C 
ATOM     10  C   UNL     1       2.063   6.345  20.065  0.00  0.00    +0.000 A 
ATOM     11  O   UNL     1       1.266   6.773  20.886  0.00  0.00    +0.000 OA
ATOM     12  N   UNL     1       2.542   5.046  20.182  0.00  0.00    +0.000 N 
ATOM     13  C   UNL     1       2.152   4.149  21.276  0.00  0.00    +0.000 C 
ENDROOT
BRANCH   1  14
ATOM     14  C   UNL     1       5.575   5.139  16.383  0.00  0.00    +0.000 C 
BRANCH  14  15
ATOM     15  C   UNL     1       7.019   5.353  16.875  0.00  0.00    +0.000 C 
BRANCH  15  17
ATOM     16  C   UNL     1       7.962   5.888  19.073  0.00  0.00    +0.000 C 
ATOM     17  N   UNL     1       7.085   6.342  17.978  0.00  0.00    +0.000 NA
ATOM     18  C   UNL     1       7.567   7.639  17.477  0.00  0.00    +0.000 C 
ENDBRANCH  15  17
ENDBRANCH  14  15
ENDBRANCH   1  14
TORSDOF 3
ENDMDL
