MODEL 1
REMARK VINA RESULT:      -7.5      0.000      0.000
REMARK  Name = 
REMARK  9 active torsions:
REMARK  status: ('A' for Active; 'I' for Inactive)
REMARK    1  A    between atoms: C_1  and  C_2
REMARK    2  A    between atoms: C_2  and  O_3
REMARK    3  A    between atoms: O_3  and  C_4
REMARK    4  A    between atoms: C_6  and  C_7
REMARK    5  A    between atoms: C_7  and  N_8
REMARK    6  A    between atoms: N_8  and  C_9
REMARK    7  A    between atoms: C_17  and  O_18
REMARK    8  A    between atoms: O_18  and  C_19
REMARK    9  A    between atoms: C_19  and  C_20
REMARK                            x       y       z     vdW  Elec       q    Type
REMARK                         _______ _______ _______ _____ _____    ______ ____
ROOT
ATOM      1  C   UNL     1       2.642   5.803  19.648  0.00  0.00    +0.000 A 
ATOM      2  C   UNL     1       3.494   5.198  18.714  0.00  0.00    +0.000 A 
ATOM      3  C   UNL     1       3.921   5.886  17.572  0.00  0.00    +0.000 A 
ATOM      4  C   UNL     1       3.494   7.200  17.367  0.00  0.00    +0.000 A 
ATOM      5  C   UNL     1       2.620   7.823  18.259  0.00  0.00    +0.000 A 
ATOM      6 CL   UNL     1       2.251   9.507  17.895  0.00  0.00    +0.000 Cl
ATOM      7  C   UNL     1       2.152   7.116  19.406  0.00  0.00    +0.000 A 
ENDROOT
BRANCH   1   8
ATOM      8  O   UNL     1       2.366   5.084  20.774  0.00  0.00    +0.000 OA
BRANCH   8  10
ATOM      9  C   UNL     1       2.074   2.873  21.607  0.00  0.00    +0.000 C 
ATOM     10  C   UNL     1       1.443   4.060  20.895  0.00  0.00    +0.000 C 
ENDBRANCH   8  10
ENDBRANCH   1   8
BRANCH   3  11
ATOM     11  C   UNL     1       4.877   5.248  16.601  0.00  0.00    +0.000 C 
BRANCH  11  12
ATOM     12  N   UNL     1       5.801   6.242  16.037  0.00  0.00    +0.000 NA
ATOM     13  H   UNL     1       5.322   7.173  16.037  0.00  0.00    +0.000 HD
BRANCH  12  14
ATOM     14  C   UNL     1       7.024   6.362  16.852  0.00  0.00    +0.000 C 
ATOM     15  C   UNL     1       7.143   7.703  17.587  0.00  0.00    +0.000 C 
ATOM     16  C   UNL     1       8.293   7.412  18.534  0.00  0.00    +0.000 C 
ATOM     17  C   UNL     1       8.051   5.974  19.014  0.00  0.00    +0.000 C 
ATOM     18  C   UNL     1       7.010   5.402  18.037  0.00  0.00    +0.000 C 
ENDBRANCH  12  14
ENDBRANCH  11  12
ENDBRANCH   3  11
BRANCH   7  19
ATOM     19  O   UNL     1       1.265   7.638  20.295  0.00  0.00    +0.000 OA
BRANCH  19  20
ATOM     20  C   UNL     1       1.512   8.342  21.461  0.00  0.00    +0.000 C 
BRANCH  20  21
ATOM     21  C   UNL     1       0.508   9.448  21.659  0.00  0.00    +0.000 A 
ATOM     22  C   UNL     1       0.160  10.334  20.620  0.00  0.00    +0.000 A 
ATOM     23  C   UNL     1      -0.761  11.360  20.850  0.00  0.00    +0.000 A 
ATOM     24  C   UNL     1      -1.351  11.507  22.108  0.00  0.00    +0.000 A 
ATOM     25  F   UNL     1      -2.243  12.503  22.326  0.00  0.00    +0.000 F 
ATOM     26  C   UNL     1      -1.017  10.626  23.140  0.00  0.00    +0.000 A 
ATOM     27  C   UNL     1      -0.090   9.606  22.920  0.00  0.00    +0.000 A 
ENDBRANCH  20  21
ENDBRANCH  19  20
ENDBRANCH   7  19
TORSDOF 8
ENDMDL
MODEL 2
REMARK VINA RESULT:      -7.5      4.704      6.568
REMARK  Name = 
REMARK  9 active torsions:
REMARK  status: ('A' for Active; 'I' for Inactive)
REMARK    1  A    between atoms: C_1  and  C_2
REMARK    2  A    between atoms: C_2  and  O_3
REMARK    3  A    between atoms: O_3  and  C_4
REMARK    4  A    between atoms: C_6  and  C_7
REMARK    5  A    between atoms: C_7  and  N_8
REMARK    6  A    between atoms: N_8  and  C_9
REMARK    7  A    between atoms: C_17  and  O_18
REMARK    8  A    between atoms: O_18  and  C_19
REMARK    9  A    between atoms: C_19  and  C_20
REMARK                            x       y       z     vdW  Elec       q    Type
REMARK                         _______ _______ _______ _____ _____    ______ ____
ROOT
ATOM      1  C   UNL     1       6.034   5.403  16.192  0.00  0.00    +0.000 A 
ATOM      2  C   UNL     1       6.914   6.413  16.602  0.00  0.00    +0.000 A 
ATOM      3  C   UNL     1       7.240   6.584  17.953  0.00  0.00    +0.000 A 
ATOM      4  C   UNL     1       6.683   5.727  18.904  0.00  0.00    +0.000 A 
ATOM      5  C   UNL     1       5.778   4.730  18.536  0.00  0.00    +0.000 A 
ATOM      6 CL   UNL     1       5.237   3.686  19.848  0.00  0.00    +0.000 Cl
ATOM      7  C   UNL     1       5.413   4.572  17.166  0.00  0.00    +0.000 A 
ENDROOT
BRANCH   1   8
ATOM      8  O   UNL     1       5.861   5.256  14.847  0.00  0.00    +0.000 OA
BRANCH   8  10
ATOM      9  C   UNL     1       5.987   3.682  13.066  0.00  0.00    +0.000 C 
ATOM     10  C   UNL     1       6.738   4.656  13.961  0.00  0.00    +0.000 C 
ENDBRANCH   8  10
ENDBRANCH   1   8
BRANCH   3  11
ATOM     11  C   UNL     1       8.226   7.638  18.380  0.00  0.00    +0.000 C 
BRANCH  11  12
ATOM     12  N   UNL     1       7.851   8.958  17.853  0.00  0.00    +0.000 NA
ATOM     13  H   UNL     1       6.990   9.279  18.354  0.00  0.00    +0.000 HD
BRANCH  12  14
ATOM     14  C   UNL     1       8.912   9.953  18.093  0.00  0.00    +0.000 C 
ATOM     15  C   UNL     1       8.481  11.394  17.795  0.00  0.00    +0.000 C 
ATOM     16  C   UNL     1       9.632  12.173  18.404  0.00  0.00    +0.000 C 
ATOM     17  C   UNL     1       9.965  11.428  19.704  0.00  0.00    +0.000 C 
ATOM     18  C   UNL     1       9.252  10.071  19.574  0.00  0.00    +0.000 C 
ENDBRANCH  12  14
ENDBRANCH  11  12
ENDBRANCH   3  11
BRANCH   7  19
ATOM     19  O   UNL     1       4.504   3.656  16.735  0.00  0.00    +0.000 OA
BRANCH  19  20
ATOM     20  C   UNL     1       3.129   3.773  16.637  0.00  0.00    +0.000 C 
BRANCH  20  21
ATOM     21  C   UNL     1       2.460   3.521  17.963  0.00  0.00    +0.000 A 
ATOM     22  C   UNL     1       1.972   4.572  18.764  0.00  0.00    +0.000 A 
ATOM     23  C   UNL     1       1.376   4.298  19.999  0.00  0.00    +0.000 A 
ATOM     24  C   UNL     1       1.252   2.978  20.442  0.00  0.00    +0.000 A 
ATOM     25  F   UNL     1       0.674   2.717  21.639  0.00  0.00    +0.000 F 
ATOM     26  C   UNL     1       1.727   1.930  19.649  0.00  0.00    +0.000 A 
ATOM     27  C   UNL     1       2.332   2.199  18.420  0.00  0.00    +0.000 A 
ENDBRANCH  20  21
ENDBRANCH  19  20
ENDBRANCH   7  19
TORSDOF 8
ENDMDL
MODEL 3
REMARK VINA RESULT:      -7.5      0.836      1.034
REMARK  Name = 
REMARK  9 active torsions:
REMARK  status: ('A' for Active; 'I' for Inactive)
REMARK    1  A    between atoms: C_1  and  C_2
REMARK    2  A    between atoms: C_2  and  O_3
REMARK    3  A    between atoms: O_3  and  C_4
REMARK    4  A    between atoms: C_6  and  C_7
REMARK    5  A    between atoms: C_7  and  N_8
REMARK    6  A    between atoms: N_8  and  C_9
REMARK    7  A    between atoms: C_17  and  O_18
REMARK    8  A    between atoms: O_18  and  C_19
REMARK    9  A    between atoms: C_19  and  C_20
REMARK                            x       y       z     vdW  Elec       q    Type
REMARK                         _______ _______ _______ _____ _____    ______ ____
ROOT
ATOM      1  C   UNL     1       2.639   5.383  20.159  0.00  0.00    +0.000 A 
ATOM      2  C   UNL     1       3.484   4.640  19.325  0.00  0.00    +0.000 A 
ATOM      3  C   UNL     1       3.944   5.161  18.110  0.00  0.00    +0.000 A 
ATOM      4  C   UNL     1       3.558   6.448  17.730  0.00  0.00    +0.000 A 
ATOM      5  C   UNL     1       2.692   7.206  18.520  0.00  0.00    +0.000 A 
ATOM      6 CL   UNL     1       2.376   8.838  17.935  0.00  0.00    +0.000 Cl
ATOM      7  C   UNL     1       2.190   6.667  19.741  0.00  0.00    +0.000 A 
ENDROOT
BRANCH   1   8
ATOM      8  O   UNL     1       2.329   4.825  21.365  0.00  0.00    +0.000 OA
BRANCH   8  10
ATOM      9  C   UNL     1       1.122   2.788  21.122  0.00  0.00    +0.000 C 
ATOM     10  C   UNL     1       2.355   3.479  21.683  0.00  0.00    +0.000 C 
ENDBRANCH   8  10
ENDBRANCH   1   8
BRANCH   3  11
ATOM     11  C   UNL     1       4.892   4.376  17.244  0.00  0.00    +0.000 C 
BRANCH  11  12
ATOM     12  N   UNL     1       6.122   4.042  17.975  0.00  0.00    +0.000 NA
ATOM     13  H   UNL     1       6.504   3.148  17.585  0.00  0.00    +0.000 HD
BRANCH  12  14
ATOM     14  C   UNL     1       7.150   5.085  17.803  0.00  0.00    +0.000 C 
ATOM     15  C   UNL     1       6.677   6.283  16.970  0.00  0.00    +0.000 C 
ATOM     16  C   UNL     1       7.800   7.272  17.223  0.00  0.00    +0.000 C 
ATOM     17  C   UNL     1       8.144   7.103  18.709  0.00  0.00    +0.000 C 
ATOM     18  C   UNL     1       7.474   5.781  19.121  0.00  0.00    +0.000 C 
ENDBRANCH  12  14
ENDBRANCH  11  12
ENDBRANCH   3  11
BRANCH   7  19
ATOM     19  O   UNL     1       1.308   7.324  20.542  0.00  0.00    +0.000 OA
BRANCH  19  20
ATOM     20  C   UNL     1       1.562   8.154  21.621  0.00  0.00    +0.000 C 
BRANCH  20  21
ATOM     21  C   UNL     1       0.562   9.278  21.696  0.00  0.00    +0.000 A 
ATOM     22  C   UNL     1       0.203  10.034  20.563  0.00  0.00    +0.000 A 
ATOM     23  C   UNL     1      -0.713  11.083  20.679  0.00  0.00    +0.000 A 
ATOM     24  C   UNL     1      -1.287  11.382  21.918  0.00  0.00    +0.000 A 
ATOM     25  F   UNL     1      -2.174  12.400  22.025  0.00  0.00    +0.000 F 
ATOM     26  C   UNL     1      -0.942  10.632  23.045  0.00  0.00    +0.000 A 
ATOM     27  C   UNL     1      -0.019   9.589  22.937  0.00  0.00    +0.000 A 
ENDBRANCH  20  21
ENDBRANCH  19  20
ENDBRANCH   7  19
TORSDOF 8
ENDMDL
MODEL 4
REMARK VINA RESULT:      -7.5      0.317      1.005
REMARK  Name = 
REMARK  9 active torsions:
REMARK  status: ('A' for Active; 'I' for Inactive)
REMARK    1  A    between atoms: C_1  and  C_2
REMARK    2  A    between atoms: C_2  and  O_3
REMARK    3  A    between atoms: O_3  and  C_4
REMARK    4  A    between atoms: C_6  and  C_7
REMARK    5  A    between atoms: C_7  and  N_8
REMARK    6  A    between atoms: N_8  and  C_9
REMARK    7  A    between atoms: C_17  and  O_18
REMARK    8  A    between atoms: O_18  and  C_19
REMARK    9  A    between atoms: C_19  and  C_20
REMARK                            x       y       z     vdW  Elec       q    Type
REMARK                         _______ _______ _______ _____ _____    ______ ____
ROOT
ATOM      1  C   UNL     1       2.617   5.782  19.761  0.00  0.00    +0.000 A 
ATOM      2  C   UNL     1       3.455   5.150  18.834  0.00  0.00    +0.000 A 
ATOM      3  C   UNL     1       3.872   5.806  17.670  0.00  0.00    +0.000 A 
ATOM      4  C   UNL     1       3.449   7.116  17.436  0.00  0.00    +0.000 A 
ATOM      5  C   UNL     1       2.588   7.766  18.321  0.00  0.00    +0.000 A 
ATOM      6 CL   UNL     1       2.223   9.442  17.918  0.00  0.00    +0.000 Cl
ATOM      7  C   UNL     1       2.130   7.091  19.491  0.00  0.00    +0.000 A 
ENDROOT
BRANCH   1   8
ATOM      8  O   UNL     1       2.351   5.094  20.909  0.00  0.00    +0.000 OA
BRANCH   8  10
ATOM      9  C   UNL     1       1.188   3.017  20.924  0.00  0.00    +0.000 C 
ATOM     10  C   UNL     1       2.516   3.735  21.115  0.00  0.00    +0.000 C 
ENDBRANCH   8  10
ENDBRANCH   1   8
BRANCH   3  11
ATOM     11  C   UNL     1       4.814   5.138  16.704  0.00  0.00    +0.000 C 
BRANCH  11  12
ATOM     12  N   UNL     1       5.721   6.116  16.088  0.00  0.00    +0.000 NA
ATOM     13  H   UNL     1       5.237   7.044  16.065  0.00  0.00    +0.000 HD
BRANCH  12  14
ATOM     14  C   UNL     1       6.959   6.270  16.874  0.00  0.00    +0.000 C 
ATOM     15  C   UNL     1       7.086   7.636  17.559  0.00  0.00    +0.000 C 
ATOM     16  C   UNL     1       8.255   7.385  18.493  0.00  0.00    +0.000 C 
ATOM     17  C   UNL     1       8.030   5.963  19.027  0.00  0.00    +0.000 C 
ATOM     18  C   UNL     1       6.974   5.352  18.091  0.00  0.00    +0.000 C 
ENDBRANCH  12  14
ENDBRANCH  11  12
ENDBRANCH   3  11
BRANCH   7  19
ATOM     19  O   UNL     1       1.256   7.640  20.377  0.00  0.00    +0.000 OA
BRANCH  19  20
ATOM     20  C   UNL     1       1.521   8.364  21.527  0.00  0.00    +0.000 C 
BRANCH  20  21
ATOM     21  C   UNL     1       0.506   9.459  21.733  0.00  0.00    +0.000 A 
ATOM     22  C   UNL     1      -0.092   9.695  22.986  0.00  0.00    +0.000 A 
ATOM     23  C   UNL     1      -1.045  10.707  23.132  0.00  0.00    +0.000 A 
ATOM     24  C   UNL     1      -1.402  11.498  22.037  0.00  0.00    +0.000 A 
ATOM     25  F   UNL     1      -2.327  12.478  22.182  0.00  0.00    +0.000 F 
ATOM     26  C   UNL     1      -0.808  11.275  20.792  0.00  0.00    +0.000 A 
ATOM     27  C   UNL     1       0.137  10.258  20.639  0.00  0.00    +0.000 A 
ENDBRANCH  20  21
ENDBRANCH  19  20
ENDBRANCH   7  19
TORSDOF 8
ENDMDL
MODEL 5
REMARK VINA RESULT:      -7.4      4.908      6.454
REMARK  Name = 
REMARK  9 active torsions:
REMARK  status: ('A' for Active; 'I' for Inactive)
REMARK    1  A    between atoms: C_1  and  C_2
REMARK    2  A    between atoms: C_2  and  O_3
REMARK    3  A    between atoms: O_3  and  C_4
REMARK    4  A    between atoms: C_6  and  C_7
REMARK    5  A    between atoms: C_7  and  N_8
REMARK    6  A    between atoms: N_8  and  C_9
REMARK    7  A    between atoms: C_17  and  O_18
REMARK    8  A    between atoms: O_18  and  C_19
REMARK    9  A    between atoms: C_19  and  C_20
REMARK                            x       y       z     vdW  Elec       q    Type
REMARK                         _______ _______ _______ _____ _____    ______ ____
ROOT
ATOM      1  C   UNL     1       5.926   4.833  16.186  0.00  0.00    +0.000 A 
ATOM      2  C   UNL     1       6.981   5.738  16.355  0.00  0.00    +0.000 A 
ATOM      3  C   UNL     1       6.931   6.731  17.342  0.00  0.00    +0.000 A 
ATOM      4  C   UNL     1       5.812   6.811  18.173  0.00  0.00    +0.000 A 
ATOM      5  C   UNL     1       4.728   5.946  18.013  0.00  0.00    +0.000 A 
ATOM      6 CL   UNL     1       3.439   6.130  19.199  0.00  0.00    +0.000 Cl
ATOM      7  C   UNL     1       4.756   4.956  16.986  0.00  0.00    +0.000 A 
ENDROOT
BRANCH   1   8
ATOM      8  O   UNL     1       6.116   3.844  15.265  0.00  0.00    +0.000 OA
BRANCH   8  10
ATOM      9  C   UNL     1       5.365   3.642  13.015  0.00  0.00    +0.000 C 
ATOM     10  C   UNL     1       6.510   4.005  13.949  0.00  0.00    +0.000 C 
ENDBRANCH   8  10
ENDBRANCH   1   8
BRANCH   3  11
ATOM     11  C   UNL     1       8.090   7.667  17.552  0.00  0.00    +0.000 C 
BRANCH  11  12
ATOM     12  N   UNL     1       7.625   9.041  17.789  0.00  0.00    +0.000 NA
ATOM     13  H   UNL     1       7.042   9.044  18.659  0.00  0.00    +0.000 HD
BRANCH  12  14
ATOM     14  C   UNL     1       8.756   9.963  17.999  0.00  0.00    +0.000 C 
ATOM     15  C   UNL     1       8.393  11.438  17.793  0.00  0.00    +0.000 C 
ATOM     16  C   UNL     1       9.626  12.121  18.356  0.00  0.00    +0.000 C 
ATOM     17  C   UNL     1       9.997  11.298  19.598  0.00  0.00    +0.000 C 
ATOM     18  C   UNL     1       9.198   9.992  19.459  0.00  0.00    +0.000 C 
ENDBRANCH  12  14
ENDBRANCH  11  12
ENDBRANCH   3  11
BRANCH   7  19
ATOM     19  O   UNL     1       3.722   4.108  16.737  0.00  0.00    +0.000 OA
BRANCH  19  20
ATOM     20  C   UNL     1       3.538   2.808  17.175  0.00  0.00    +0.000 C 
BRANCH  20  21
ATOM     21  C   UNL     1       2.827   2.771  18.503  0.00  0.00    +0.000 A 
ATOM     22  C   UNL     1       1.429   2.911  18.605  0.00  0.00    +0.000 A 
ATOM     23  C   UNL     1       0.810   2.893  19.858  0.00  0.00    +0.000 A 
ATOM     24  C   UNL     1       1.572   2.724  21.017  0.00  0.00    +0.000 A 
ATOM     25  F   UNL     1       0.968   2.707  22.229  0.00  0.00    +0.000 F 
ATOM     26  C   UNL     1       2.959   2.576  20.923  0.00  0.00    +0.000 A 
ATOM     27  C   UNL     1       3.584   2.604  19.674  0.00  0.00    +0.000 A 
ENDBRANCH  20  21
ENDBRANCH  19  20
ENDBRANCH   7  19
TORSDOF 8
ENDMDL
MODEL 6
REMARK VINA RESULT:      -7.4      3.845      8.144
REMARK  Name = 
REMARK  9 active torsions:
REMARK  status: ('A' for Active; 'I' for Inactive)
REMARK    1  A    between atoms: C_1  and  C_2
REMARK    2  A    between atoms: C_2  and  O_3
REMARK    3  A    between atoms: O_3  and  C_4
REMARK    4  A    between atoms: C_6  and  C_7
REMARK    5  A    between atoms: C_7  and  N_8
REMARK    6  A    between atoms: N_8  and  C_9
REMARK    7  A    between atoms: C_17  and  O_18
REMARK    8  A    between atoms: O_18  and  C_19
REMARK    9  A    between atoms: C_19  and  C_20
REMARK                            x       y       z     vdW  Elec       q    Type
REMARK                         _______ _______ _______ _____ _____    ______ ____
ROOT
ATOM      1  C   UNL     1       2.703   4.862  20.083  0.00  0.00    +0.000 A 
ATOM      2  C   UNL     1       1.906   5.873  20.635  0.00  0.00    +0.000 A 
ATOM      3  C   UNL     1       1.892   7.163  20.091  0.00  0.00    +0.000 A 
ATOM      4  C   UNL     1       2.681   7.440  18.973  0.00  0.00    +0.000 A 
ATOM      5  C   UNL     1       3.513   6.468  18.415  0.00  0.00    +0.000 A 
ATOM      6 CL   UNL     1       4.375   6.961  16.960  0.00  0.00    +0.000 Cl
ATOM      7  C   UNL     1       3.560   5.161  18.987  0.00  0.00    +0.000 A 
ENDROOT
BRANCH   1   8
ATOM      8  O   UNL     1       2.569   3.617  20.625  0.00  0.00    +0.000 OA
BRANCH   8  10
ATOM      9  C   UNL     1       0.981   2.467  19.277  0.00  0.00    +0.000 C 
ATOM     10  C   UNL     1       1.413   2.861  20.681  0.00  0.00    +0.000 C 
ENDBRANCH   8  10
ENDBRANCH   1   8
BRANCH   3  11
ATOM     11  C   UNL     1       0.994   8.229  20.658  0.00  0.00    +0.000 C 
BRANCH  11  12
ATOM     12  N   UNL     1       1.441   8.642  21.995  0.00  0.00    +0.000 NA
ATOM     13  H   UNL     1       2.477   8.792  21.963  0.00  0.00    +0.000 HD
BRANCH  12  14
ATOM     14  C   UNL     1       0.813   9.910  22.405  0.00  0.00    +0.000 C 
ATOM     15  C   UNL     1       0.302  10.751  21.229  0.00  0.00    +0.000 C 
ATOM     16  C   UNL     1      -0.526  11.795  21.957  0.00  0.00    +0.000 C 
ATOM     17  C   UNL     1      -1.237  11.019  23.075  0.00  0.00    +0.000 C 
ATOM     18  C   UNL     1      -0.492   9.677  23.160  0.00  0.00    +0.000 C 
ENDBRANCH  12  14
ENDBRANCH  11  12
ENDBRANCH   3  11
BRANCH   7  19
ATOM     19  O   UNL     1       4.377   4.175  18.529  0.00  0.00    +0.000 OA
BRANCH  19  20
ATOM     20  C   UNL     1       4.295   3.452  17.351  0.00  0.00    +0.000 C 
BRANCH  20  21
ATOM     21  C   UNL     1       5.293   3.943  16.336  0.00  0.00    +0.000 A 
ATOM     22  C   UNL     1       6.564   4.421  16.710  0.00  0.00    +0.000 A 
ATOM     23  C   UNL     1       7.455   4.888  15.739  0.00  0.00    +0.000 A 
ATOM     24  C   UNL     1       7.094   4.873  14.389  0.00  0.00    +0.000 A 
ATOM     25  F   UNL     1       7.961   5.326  13.452  0.00  0.00    +0.000 F 
ATOM     26  C   UNL     1       5.838   4.393  14.009  0.00  0.00    +0.000 A 
ATOM     27  C   UNL     1       4.940   3.935  14.976  0.00  0.00    +0.000 A 
ENDBRANCH  20  21
ENDBRANCH  19  20
ENDBRANCH   7  19
TORSDOF 8
ENDMDL
MODEL 7
REMARK VINA RESULT:      -7.3      3.216      7.455
REMARK  Name = 
REMARK  9 active torsions:
REMARK  status: ('A' for Active; 'I' for Inactive)
REMARK    1  A    between atoms: C_1  and  C_2
REMARK    2  A    between atoms: C_2  and  O_3
REMARK    3  A    between atoms: O_3  and  C_4
REMARK    4  A    between atoms: C_6  and  C_7
REMARK    5  A    between atoms: C_7  and  N_8
REMARK    6  A    between atoms: N_8  and  C_9
REMARK    7  A    between atoms: C_17  and  O_18
REMARK    8  A    between atoms: O_18  and  C_19
REMARK    9  A    between atoms: C_19  and  C_20
REMARK                            x       y       z     vdW  Elec       q    Type
REMARK                         _______ _______ _______ _____ _____    ______ ____
ROOT
ATOM      1  C   UNL     1       2.833   4.362  19.045  0.00  0.00    +0.000 A 
ATOM      2  C   UNL     1       2.201   4.988  20.126  0.00  0.00    +0.000 A 
ATOM      3  C   UNL     1       2.028   6.377  20.158  0.00  0.00    +0.000 A 
ATOM      4  C   UNL     1       2.488   7.147  19.087  0.00  0.00    +0.000 A 
ATOM      5  C   UNL     1       3.151   6.561  18.008  0.00  0.00    +0.000 A 
ATOM      6 CL   UNL     1       3.589   7.665  16.707  0.00  0.00    +0.000 Cl
ATOM      7  C   UNL     1       3.364   5.150  17.986  0.00  0.00    +0.000 A 
ENDROOT
BRANCH   1   8
ATOM      8  O   UNL     1       2.863   2.997  19.065  0.00  0.00    +0.000 OA
BRANCH   8  10
ATOM      9  C   UNL     1       0.610   2.277  18.800  0.00  0.00    +0.000 C 
ATOM     10  C   UNL     1       2.053   2.143  18.338  0.00  0.00    +0.000 C 
ENDBRANCH   8  10
ENDBRANCH   1   8
BRANCH   3  11
ATOM     11  C   UNL     1       1.302   7.037  21.299  0.00  0.00    +0.000 C 
BRANCH  11  12
ATOM     12  N   UNL     1       1.583   8.479  21.342  0.00  0.00    +0.000 NA
ATOM     13  H   UNL     1       1.921   8.776  20.396  0.00  0.00    +0.000 HD
BRANCH  12  14
ATOM     14  C   UNL     1       0.369   9.254  21.653  0.00  0.00    +0.000 C 
ATOM     15  C   UNL     1       0.120   9.432  23.155  0.00  0.00    +0.000 C 
ATOM     16  C   UNL     1      -0.976  10.482  23.146  0.00  0.00    +0.000 C 
ATOM     17  C   UNL     1      -0.575  11.456  22.029  0.00  0.00    +0.000 C 
ATOM     18  C   UNL     1       0.504  10.712  21.224  0.00  0.00    +0.000 C 
ENDBRANCH  12  14
ENDBRANCH  11  12
ENDBRANCH   3  11
BRANCH   7  19
ATOM     19  O   UNL     1       4.040   4.512  16.994  0.00  0.00    +0.000 OA
BRANCH  19  20
ATOM     20  C   UNL     1       5.347   4.057  16.984  0.00  0.00    +0.000 C 
BRANCH  20  21
ATOM     21  C   UNL     1       6.295   5.098  17.521  0.00  0.00    +0.000 A 
ATOM     22  C   UNL     1       6.816   5.028  18.827  0.00  0.00    +0.000 A 
ATOM     23  C   UNL     1       7.677   6.026  19.296  0.00  0.00    +0.000 A 
ATOM     24  C   UNL     1       8.033   7.093  18.467  0.00  0.00    +0.000 A 
ATOM     25  F   UNL     1       8.866   8.058  18.926  0.00  0.00    +0.000 F 
ATOM     26  C   UNL     1       7.525   7.165  17.167  0.00  0.00    +0.000 A 
ATOM     27  C   UNL     1       6.657   6.177  16.697  0.00  0.00    +0.000 A 
ENDBRANCH  20  21
ENDBRANCH  19  20
ENDBRANCH   7  19
TORSDOF 8
ENDMDL
MODEL 8
REMARK VINA RESULT:      -7.2      0.790      1.485
REMARK  Name = 
REMARK  9 active torsions:
REMARK  status: ('A' for Active; 'I' for Inactive)
REMARK    1  A    between atoms: C_1  and  C_2
REMARK    2  A    between atoms: C_2  and  O_3
REMARK    3  A    between atoms: O_3  and  C_4
REMARK    4  A    between atoms: C_6  and  C_7
REMARK    5  A    between atoms: C_7  and  N_8
REMARK    6  A    between atoms: N_8  and  C_9
REMARK    7  A    between atoms: C_17  and  O_18
REMARK    8  A    between atoms: O_18  and  C_19
REMARK    9  A    between atoms: C_19  and  C_20
REMARK                            x       y       z     vdW  Elec       q    Type
REMARK                         _______ _______ _______ _____ _____    ______ ____
ROOT
ATOM      1  C   UNL     1       2.717   5.256  20.112  0.00  0.00    +0.000 A 
ATOM      2  C   UNL     1       3.478   4.532  19.185  0.00  0.00    +0.000 A 
ATOM      3  C   UNL     1       3.817   5.079  17.942  0.00  0.00    +0.000 A 
ATOM      4  C   UNL     1       3.395   6.372  17.627  0.00  0.00    +0.000 A 
ATOM      5  C   UNL     1       2.609   7.111  18.512  0.00  0.00    +0.000 A 
ATOM      6 CL   UNL     1       2.236   8.753  17.993  0.00  0.00    +0.000 Cl
ATOM      7  C   UNL     1       2.228   6.547  19.765  0.00  0.00    +0.000 A 
ENDROOT
BRANCH   1   8
ATOM      8  O   UNL     1       2.525   4.672  21.330  0.00  0.00    +0.000 OA
BRANCH   8  10
ATOM      9  C   UNL     1       0.870   3.214  20.437  0.00  0.00    +0.000 C 
ATOM     10  C   UNL     1       1.818   3.512  21.588  0.00  0.00    +0.000 C 
ENDBRANCH   8  10
ENDBRANCH   1   8
BRANCH   3  11
ATOM     11  C   UNL     1       4.679   4.314  16.973  0.00  0.00    +0.000 C 
BRANCH  11  12
ATOM     12  N   UNL     1       6.074   4.262  17.432  0.00  0.00    +0.000 NA
ATOM     13  H   UNL     1       6.678   4.005  16.617  0.00  0.00    +0.000 HD
BRANCH  12  14
ATOM     14  C   UNL     1       6.524   5.573  17.934  0.00  0.00    +0.000 C 
ATOM     15  C   UNL     1       7.842   5.513  18.714  0.00  0.00    +0.000 C 
ATOM     16  C   UNL     1       8.180   6.988  18.826  0.00  0.00    +0.000 C 
ATOM     17  C   UNL     1       7.797   7.582  17.463  0.00  0.00    +0.000 C 
ATOM     18  C   UNL     1       6.922   6.507  16.796  0.00  0.00    +0.000 C 
ENDBRANCH  12  14
ENDBRANCH  11  12
ENDBRANCH   3  11
BRANCH   7  19
ATOM     19  O   UNL     1       1.427   7.185  20.660  0.00  0.00    +0.000 OA
BRANCH  19  20
ATOM     20  C   UNL     1       1.773   8.096  21.644  0.00  0.00    +0.000 C 
BRANCH  20  21
ATOM     21  C   UNL     1       0.748   9.194  21.759  0.00  0.00    +0.000 A 
ATOM     22  C   UNL     1       0.089   9.474  22.972  0.00  0.00    +0.000 A 
ATOM     23  C   UNL     1      -0.872  10.488  23.034  0.00  0.00    +0.000 A 
ATOM     24  C   UNL     1      -1.176  11.238  21.895  0.00  0.00    +0.000 A 
ATOM     25  F   UNL     1      -2.108  12.219  21.959  0.00  0.00    +0.000 F 
ATOM     26  C   UNL     1      -0.521  10.971  20.690  0.00  0.00    +0.000 A 
ATOM     27  C   UNL     1       0.432   9.952  20.620  0.00  0.00    +0.000 A 
ENDBRANCH  20  21
ENDBRANCH  19  20
ENDBRANCH   7  19
TORSDOF 8
ENDMDL
MODEL 9
REMARK VINA RESULT:      -7.1      3.829      8.115
REMARK  Name = 
REMARK  9 active torsions:
REMARK  status: ('A' for Active; 'I' for Inactive)
REMARK    1  A    between atoms: C_1  and  C_2
REMARK    2  A    between atoms: C_2  and  O_3
REMARK    3  A    between atoms: O_3  and  C_4
REMARK    4  A    between atoms: C_6  and  C_7
REMARK    5  A    between atoms: C_7  and  N_8
REMARK    6  A    between atoms: N_8  and  C_9
REMARK    7  A    between atoms: C_17  and  O_18
REMARK    8  A    between atoms: O_18  and  C_19
REMARK    9  A    between atoms: C_19  and  C_20
REMARK                            x       y       z     vdW  Elec       q    Type
REMARK                         _______ _______ _______ _____ _____    ______ ____
ROOT
ATOM      1  C   UNL     1       2.102   4.573  19.566  0.00  0.00    +0.000 A 
ATOM      2  C   UNL     1       1.453   5.392  20.499  0.00  0.00    +0.000 A 
ATOM      3  C   UNL     1       1.569   6.787  20.443  0.00  0.00    +0.000 A 
ATOM      4  C   UNL     1       2.341   7.367  19.433  0.00  0.00    +0.000 A 
ATOM      5  C   UNL     1       3.028   6.581  18.507  0.00  0.00    +0.000 A 
ATOM      6 CL   UNL     1       3.883   7.475  17.253  0.00  0.00    +0.000 Cl
ATOM      7  C   UNL     1       2.944   5.159  18.580  0.00  0.00    +0.000 A 
ENDROOT
BRANCH   1   8
ATOM      8  O   UNL     1       1.844   3.236  19.648  0.00  0.00    +0.000 OA
BRANCH   8  10
ATOM      9  C   UNL     1       2.117   2.438  21.874  0.00  0.00    +0.000 C 
ATOM     10  C   UNL     1       1.190   2.582  20.677  0.00  0.00    +0.000 C 
ENDBRANCH   8  10
ENDBRANCH   1   8
BRANCH   3  11
ATOM     11  C   UNL     1       0.827   7.662  21.416  0.00  0.00    +0.000 C 
BRANCH  11  12
ATOM     12  N   UNL     1       1.687   8.741  21.920  0.00  0.00    +0.000 NA
ATOM     13  H   UNL     1       2.397   8.966  21.184  0.00  0.00    +0.000 HD
BRANCH  12  14
ATOM     14  C   UNL     1       0.912   9.965  22.191  0.00  0.00    +0.000 C 
ATOM     15  C   UNL     1       0.073  10.437  20.998  0.00  0.00    +0.000 C 
ATOM     16  C   UNL     1      -0.803  11.487  21.657  0.00  0.00    +0.000 C 
ATOM     17  C   UNL     1      -1.170  10.889  23.023  0.00  0.00    +0.000 C 
ATOM     18  C   UNL     1      -0.188   9.722  23.219  0.00  0.00    +0.000 C 
ENDBRANCH  12  14
ENDBRANCH  11  12
ENDBRANCH   3  11
BRANCH   7  19
ATOM     19  O   UNL     1       3.619   4.326  17.743  0.00  0.00    +0.000 OA
BRANCH  19  20
ATOM     20  C   UNL     1       4.949   3.945  17.781  0.00  0.00    +0.000 C 
BRANCH  20  21
ATOM     21  C   UNL     1       5.647   4.257  16.483  0.00  0.00    +0.000 A 
ATOM     22  C   UNL     1       5.075   3.944  15.235  0.00  0.00    +0.000 A 
ATOM     23  C   UNL     1       5.764   4.231  14.053  0.00  0.00    +0.000 A 
ATOM     24  C   UNL     1       7.021   4.839  14.102  0.00  0.00    +0.000 A 
ATOM     25  F   UNL     1       7.686   5.115  12.955  0.00  0.00    +0.000 F 
ATOM     26  C   UNL     1       7.593   5.159  15.337  0.00  0.00    +0.000 A 
ATOM     27  C   UNL     1       6.913   4.865  16.521  0.00  0.00    +0.000 A 
ENDBRANCH  20  21
ENDBRANCH  19  20
ENDBRANCH   7  19
TORSDOF 8
ENDMDL
