MODEL 1
REMARK VINA RESULT:     -10.0      0.000      0.000
REMARK  Name = 
REMARK  6 active torsions:
REMARK  status: ('A' for Active; 'I' for Inactive)
REMARK    1  A    between atoms: C_1  and  C_2
REMARK    2  A    between atoms: C_7  and  C_8
REMARK    3  A    between atoms: C_10  and  O_11
REMARK    4  A    between atoms: C_16  and  C_17
REMARK    5  A    between atoms: C_20  and  N_21
REMARK    6  A    between atoms: C_22  and  C_23
REMARK                            x       y       z     vdW  Elec       q    Type
REMARK                         _______ _______ _______ _____ _____    ______ ____
ROOT
ATOM      1  C   UNL     1      -2.649  14.129  24.261  0.00  0.00    +0.000 C 
ATOM      2  C   UNL     1      -2.760  13.569  22.866  0.00  0.00    +0.000 A 
ATOM      3  C   UNL     1      -1.801  12.632  22.388  0.00  0.00    +0.000 A 
ATOM      4  C   UNL     1      -1.846  12.063  21.096  0.00  0.00    +0.000 A 
ATOM      5  C   UNL     1      -2.938  12.470  20.300  0.00  0.00    +0.000 A 
ATOM      6  C   UNL     1      -3.882  13.426  20.753  0.00  0.00    +0.000 A 
ATOM      7  C   UNL     1      -3.822  13.975  22.032  0.00  0.00    +0.000 A 
ATOM      8  C   UNL     1      -4.860  14.971  22.478  0.00  0.00    +0.000 C 
ATOM      9  N   UNL     1      -3.096  11.974  18.990  0.00  0.00    +0.000 N 
ATOM     10  C   UNL     1      -4.247  11.822  18.236  0.00  0.00    +0.000 A 
ATOM     11  N   UNL     1      -3.934  11.468  17.013  0.00  0.00    +0.000 NA
ATOM     12  N   UNL     1      -2.569  11.352  16.942  0.00  0.00    +0.000 NA
ATOM     13  C   UNL     1      -2.074  11.662  18.121  0.00  0.00    +0.000 A 
ATOM     14  C   UNL     1      -0.647  11.830  18.461  0.00  0.00    +0.000 C 
ATOM     15  C   UNL     1      -0.316  10.885  19.607  0.00  0.00    +0.000 C 
ATOM     16  N   UNL     1      -0.881  11.034  20.785  0.00  0.00    +0.000 NA
ENDROOT
BRANCH  15  17
ATOM     17  C   UNL     1       0.705   9.729  19.329  0.00  0.00    +0.000 A 
ATOM     18  C   UNL     1       1.297   9.477  18.066  0.00  0.00    +0.000 A 
ATOM     19  C   UNL     1       2.091   8.317  17.792  0.00  0.00    +0.000 A 
ATOM     20  C   UNL     1       2.382   7.408  18.803  0.00  0.00    +0.000 A 
ATOM     21  C   UNL     1       1.896   7.716  20.100  0.00  0.00    +0.000 A 
ATOM     22  C   UNL     1       1.063   8.831  20.342  0.00  0.00    +0.000 A 
BRANCH  20  23
ATOM     23  N   UNL     1       3.090   6.171  18.604  0.00  0.00    +0.000 N 
ATOM     24  C   UNL     1       4.447   6.086  18.251  0.00  0.00    +0.000 A 
ATOM     25  C   UNL     1       4.794   6.081  16.771  0.00  0.00    +0.000 C 
ATOM     26  N   UNL     1       4.953   5.149  19.036  0.00  0.00    +0.000 NA
ATOM     27  C   UNL     1       3.988   4.195  18.865  0.00  0.00    +0.000 A 
ATOM     28  C   UNL     1       4.132   2.807  18.812  0.00  0.00    +0.000 A 
ATOM     29  N   UNL     1       3.100   2.044  18.381  0.00  0.00    +0.000 NA
ATOM     30  C   UNL     1       1.920   2.654  18.105  0.00  0.00    +0.000 A 
ATOM     31  C   UNL     1       1.642   4.023  18.228  0.00  0.00    +0.000 A 
ATOM     32  C   UNL     1       2.750   4.809  18.548  0.00  0.00    +0.000 A 
ENDBRANCH  20  23
ENDBRANCH  15  17
BRANCH  10  33
ATOM     33  O   UNL     1      -5.504  11.941  18.651  0.00  0.00    +0.000 OA
ATOM     34  H   UNL     1      -6.056  11.327  18.141  0.00  0.00    +0.000 HD
ENDBRANCH  10  33
TORSDOF 3
ENDMDL
MODEL 2
REMARK VINA RESULT:      -9.5      2.963      4.126
REMARK  Name = 
REMARK  6 active torsions:
REMARK  status: ('A' for Active; 'I' for Inactive)
REMARK    1  A    between atoms: C_1  and  C_2
REMARK    2  A    between atoms: C_7  and  C_8
REMARK    3  A    between atoms: C_10  and  O_11
REMARK    4  A    between atoms: C_16  and  C_17
REMARK    5  A    between atoms: C_20  and  N_21
REMARK    6  A    between atoms: C_22  and  C_23
REMARK                            x       y       z     vdW  Elec       q    Type
REMARK                         _______ _______ _______ _____ _____    ______ ____
ROOT
ATOM      1  C   UNL     1       2.833  16.881  17.410  0.00  0.00    +0.000 C 
ATOM      2  C   UNL     1       2.093  15.997  18.381  0.00  0.00    +0.000 A 
ATOM      3  C   UNL     1       2.215  14.581  18.302  0.00  0.00    +0.000 A 
ATOM      4  C   UNL     1       1.556  13.693  19.181  0.00  0.00    +0.000 A 
ATOM      5  C   UNL     1       0.773  14.310  20.180  0.00  0.00    +0.000 A 
ATOM      6  C   UNL     1       0.617  15.717  20.249  0.00  0.00    +0.000 A 
ATOM      7  C   UNL     1       1.279  16.578  19.375  0.00  0.00    +0.000 A 
ATOM      8  C   UNL     1       1.101  18.069  19.500  0.00  0.00    +0.000 C 
ATOM      9  N   UNL     1       0.064  13.534  21.118  0.00  0.00    +0.000 N 
ATOM     10  C   UNL     1      -0.338  13.851  22.404  0.00  0.00    +0.000 A 
ATOM     11  N   UNL     1      -1.106  12.900  22.878  0.00  0.00    +0.000 NA
ATOM     12  N   UNL     1      -1.203  11.919  21.924  0.00  0.00    +0.000 NA
ATOM     13  C   UNL     1      -0.510  12.305  20.875  0.00  0.00    +0.000 A 
ATOM     14  C   UNL     1      -0.466  11.642  19.555  0.00  0.00    +0.000 C 
ATOM     15  C   UNL     1       0.986  11.322  19.232  0.00  0.00    +0.000 C 
ATOM     16  N   UNL     1       1.865  12.286  19.065  0.00  0.00    +0.000 NA
ENDROOT
BRANCH  15  17
ATOM     17  C   UNL     1       1.395   9.814  19.119  0.00  0.00    +0.000 A 
ATOM     18  C   UNL     1       1.366   8.899  20.200  0.00  0.00    +0.000 A 
ATOM     19  C   UNL     1       1.905   7.574  20.118  0.00  0.00    +0.000 A 
ATOM     20  C   UNL     1       2.421   7.096  18.918  0.00  0.00    +0.000 A 
ATOM     21  C   UNL     1       2.341   7.963  17.797  0.00  0.00    +0.000 A 
ATOM     22  C   UNL     1       1.865   9.289  17.909  0.00  0.00    +0.000 A 
BRANCH  20  23
ATOM     23  N   UNL     1       3.065   5.819  18.762  0.00  0.00    +0.000 N 
ATOM     24  C   UNL     1       4.421   5.653  18.438  0.00  0.00    +0.000 A 
ATOM     25  C   UNL     1       4.794   5.590  16.964  0.00  0.00    +0.000 C 
ATOM     26  N   UNL     1       4.862   4.710  19.255  0.00  0.00    +0.000 NA
ATOM     27  C   UNL     1       3.850   3.805  19.089  0.00  0.00    +0.000 A 
ATOM     28  C   UNL     1       3.920   2.410  19.074  0.00  0.00    +0.000 A 
ATOM     29  N   UNL     1       2.856   1.693  18.643  0.00  0.00    +0.000 NA
ATOM     30  C   UNL     1       1.716   2.358  18.330  0.00  0.00    +0.000 A 
ATOM     31  C   UNL     1       1.510   3.742  18.413  0.00  0.00    +0.000 A 
ATOM     32  C   UNL     1       2.652   4.476  18.734  0.00  0.00    +0.000 A 
ENDBRANCH  20  23
ENDBRANCH  15  17
BRANCH  10  33
ATOM     33  O   UNL     1       0.018  14.912  23.121  0.00  0.00    +0.000 OA
ATOM     34  H   UNL     1       0.343  14.607  23.983  0.00  0.00    +0.000 HD
ENDBRANCH  10  33
TORSDOF 3
ENDMDL
MODEL 3
REMARK VINA RESULT:      -9.4      1.108      1.918
REMARK  Name = 
REMARK  6 active torsions:
REMARK  status: ('A' for Active; 'I' for Inactive)
REMARK    1  A    between atoms: C_1  and  C_2
REMARK    2  A    between atoms: C_7  and  C_8
REMARK    3  A    between atoms: C_10  and  O_11
REMARK    4  A    between atoms: C_16  and  C_17
REMARK    5  A    between atoms: C_20  and  N_21
REMARK    6  A    between atoms: C_22  and  C_23
REMARK                            x       y       z     vdW  Elec       q    Type
REMARK                         _______ _______ _______ _____ _____    ______ ____
ROOT
ATOM      1  C   UNL     1      -1.762  14.601  24.565  0.00  0.00    +0.000 C 
ATOM      2  C   UNL     1      -2.085  13.976  23.231  0.00  0.00    +0.000 A 
ATOM      3  C   UNL     1      -1.206  13.015  22.656  0.00  0.00    +0.000 A 
ATOM      4  C   UNL     1      -1.448  12.386  21.415  0.00  0.00    +0.000 A 
ATOM      5  C   UNL     1      -2.651  12.757  20.779  0.00  0.00    +0.000 A 
ATOM      6  C   UNL     1      -3.518  13.736  21.326  0.00  0.00    +0.000 A 
ATOM      7  C   UNL     1      -3.265  14.344  22.554  0.00  0.00    +0.000 A 
ATOM      8  C   UNL     1      -4.227  15.363  23.107  0.00  0.00    +0.000 C 
ATOM      9  N   UNL     1      -3.007  12.200  19.534  0.00  0.00    +0.000 N 
ATOM     10  C   UNL     1      -4.259  12.015  18.974  0.00  0.00    +0.000 A 
ATOM     11  N   UNL     1      -4.137  11.604  17.735  0.00  0.00    +0.000 NA
ATOM     12  N   UNL     1      -2.799  11.481  17.460  0.00  0.00    +0.000 NA
ATOM     13  C   UNL     1      -2.130  11.844  18.533  0.00  0.00    +0.000 A 
ATOM     14  C   UNL     1      -0.668  12.025  18.640  0.00  0.00    +0.000 C 
ATOM     15  C   UNL     1      -0.159  11.135  19.764  0.00  0.00    +0.000 C 
ATOM     16  N   UNL     1      -0.536  11.341  21.007  0.00  0.00    +0.000 NA
ENDROOT
BRANCH  15  17
ATOM     17  C   UNL     1       0.812   9.965  19.387  0.00  0.00    +0.000 A 
ATOM     18  C   UNL     1       1.467   9.847  18.136  0.00  0.00    +0.000 A 
ATOM     19  C   UNL     1       2.212   8.687  17.749  0.00  0.00    +0.000 A 
ATOM     20  C   UNL     1       2.389   7.634  18.640  0.00  0.00    +0.000 A 
ATOM     21  C   UNL     1       1.840   7.796  19.938  0.00  0.00    +0.000 A 
ATOM     22  C   UNL     1       1.055   8.918  20.285  0.00  0.00    +0.000 A 
BRANCH  20  23
ATOM     23  N   UNL     1       3.039   6.393  18.312  0.00  0.00    +0.000 N 
ATOM     24  C   UNL     1       2.608   5.133  18.758  0.00  0.00    +0.000 A 
ATOM     25  C   UNL     1       3.154   4.626  20.084  0.00  0.00    +0.000 C 
ATOM     26  N   UNL     1       2.666   4.348  17.694  0.00  0.00    +0.000 NA
ATOM     27  C   UNL     1       3.914   4.692  17.254  0.00  0.00    +0.000 A 
ATOM     28  C   UNL     1       4.880   3.884  16.649  0.00  0.00    +0.000 A 
ATOM     29  N   UNL     1       6.146   4.342  16.517  0.00  0.00    +0.000 NA
ATOM     30  C   UNL     1       6.411   5.619  16.891  0.00  0.00    +0.000 A 
ATOM     31  C   UNL     1       5.492   6.543  17.408  0.00  0.00    +0.000 A 
ATOM     32  C   UNL     1       4.224   6.015  17.658  0.00  0.00    +0.000 A 
ENDBRANCH  20  23
ENDBRANCH  15  17
BRANCH  10  33
ATOM     33  O   UNL     1      -5.438  12.157  19.572  0.00  0.00    +0.000 OA
ATOM     34  H   UNL     1      -5.445  13.005  20.043  0.00  0.00    +0.000 HD
ENDBRANCH  10  33
TORSDOF 3
ENDMDL
MODEL 4
REMARK VINA RESULT:      -9.4      2.720     10.108
REMARK  Name = 
REMARK  6 active torsions:
REMARK  status: ('A' for Active; 'I' for Inactive)
REMARK    1  A    between atoms: C_1  and  C_2
REMARK    2  A    between atoms: C_7  and  C_8
REMARK    3  A    between atoms: C_10  and  O_11
REMARK    4  A    between atoms: C_16  and  C_17
REMARK    5  A    between atoms: C_20  and  N_21
REMARK    6  A    between atoms: C_22  and  C_23
REMARK                            x       y       z     vdW  Elec       q    Type
REMARK                         _______ _______ _______ _____ _____    ______ ____
ROOT
ATOM      1  C   UNL     1       6.396   6.162  15.223  0.00  0.00    +0.000 C 
ATOM      2  C   UNL     1       5.309   5.732  16.175  0.00  0.00    +0.000 A 
ATOM      3  C   UNL     1       4.514   6.705  16.846  0.00  0.00    +0.000 A 
ATOM      4  C   UNL     1       3.477   6.375  17.745  0.00  0.00    +0.000 A 
ATOM      5  C   UNL     1       3.255   4.993  17.923  0.00  0.00    +0.000 A 
ATOM      6  C   UNL     1       4.060   4.015  17.286  0.00  0.00    +0.000 A 
ATOM      7  C   UNL     1       5.078   4.360  16.399  0.00  0.00    +0.000 A 
ATOM      8  C   UNL     1       5.893   3.286  15.727  0.00  0.00    +0.000 C 
ATOM      9  N   UNL     1       2.248   4.534  18.796  0.00  0.00    +0.000 N 
ATOM     10  C   UNL     1       1.535   3.347  18.776  0.00  0.00    +0.000 A 
ATOM     11  N   UNL     1       0.800   3.251  19.858  0.00  0.00    +0.000 NA
ATOM     12  N   UNL     1       0.991   4.387  20.601  0.00  0.00    +0.000 NA
ATOM     13  C   UNL     1       1.860   5.145  19.968  0.00  0.00    +0.000 A 
ATOM     14  C   UNL     1       2.484   6.384  20.475  0.00  0.00    +0.000 C 
ATOM     15  C   UNL     1       2.193   7.503  19.486  0.00  0.00    +0.000 C 
ATOM     16  N   UNL     1       2.670   7.457  18.261  0.00  0.00    +0.000 NA
ENDROOT
BRANCH  15  17
ATOM     17  C   UNL     1       1.301   8.696  19.973  0.00  0.00    +0.000 A 
ATOM     18  C   UNL     1       0.680   8.757  21.244  0.00  0.00    +0.000 A 
ATOM     19  C   UNL     1      -0.267   9.769  21.605  0.00  0.00    +0.000 A 
ATOM     20  C   UNL     1      -0.563  10.803  20.723  0.00  0.00    +0.000 A 
ATOM     21  C   UNL     1       0.147  10.818  19.495  0.00  0.00    +0.000 A 
ATOM     22  C   UNL     1       1.031   9.779  19.128  0.00  0.00    +0.000 A 
BRANCH  20  23
ATOM     23  N   UNL     1      -1.565  11.808  20.958  0.00  0.00    +0.000 N 
ATOM     24  C   UNL     1      -1.797  12.905  20.112  0.00  0.00    +0.000 A 
ATOM     25  C   UNL     1      -1.007  14.178  20.370  0.00  0.00    +0.000 C 
ATOM     26  N   UNL     1      -3.112  12.976  19.987  0.00  0.00    +0.000 NA
ATOM     27  C   UNL     1      -3.450  12.858  21.307  0.00  0.00    +0.000 A 
ATOM     28  C   UNL     1      -4.496  13.474  22.000  0.00  0.00    +0.000 A 
ATOM     29  N   UNL     1      -4.515  13.435  23.352  0.00  0.00    +0.000 NA
ATOM     30  C   UNL     1      -3.562  12.709  23.989  0.00  0.00    +0.000 A 
ATOM     31  C   UNL     1      -2.535  11.970  23.384  0.00  0.00    +0.000 A 
ATOM     32  C   UNL     1      -2.453  12.126  22.000  0.00  0.00    +0.000 A 
ENDBRANCH  20  23
ENDBRANCH  15  17
BRANCH  10  33
ATOM     33  O   UNL     1       1.512   2.437  17.808  0.00  0.00    +0.000 OA
ATOM     34  H   UNL     1       2.405   2.360  17.435  0.00  0.00    +0.000 HD
ENDBRANCH  10  33
TORSDOF 3
ENDMDL
MODEL 5
REMARK VINA RESULT:      -9.3      2.407      3.389
REMARK  Name = 
REMARK  6 active torsions:
REMARK  status: ('A' for Active; 'I' for Inactive)
REMARK    1  A    between atoms: C_1  and  C_2
REMARK    2  A    between atoms: C_7  and  C_8
REMARK    3  A    between atoms: C_10  and  O_11
REMARK    4  A    between atoms: C_16  and  C_17
REMARK    5  A    between atoms: C_20  and  N_21
REMARK    6  A    between atoms: C_22  and  C_23
REMARK                            x       y       z     vdW  Elec       q    Type
REMARK                         _______ _______ _______ _____ _____    ______ ____
ROOT
ATOM      1  C   UNL     1      -0.166  16.945  17.738  0.00  0.00    +0.000 C 
ATOM      2  C   UNL     1      -0.367  15.877  18.782  0.00  0.00    +0.000 A 
ATOM      3  C   UNL     1       0.212  14.587  18.612  0.00  0.00    +0.000 A 
ATOM      4  C   UNL     1       0.069  13.542  19.551  0.00  0.00    +0.000 A 
ATOM      5  C   UNL     1      -0.676  13.868  20.704  0.00  0.00    +0.000 A 
ATOM      6  C   UNL     1      -1.285  15.138  20.869  0.00  0.00    +0.000 A 
ATOM      7  C   UNL     1      -1.130  16.159  19.934  0.00  0.00    +0.000 A 
ATOM      8  C   UNL     1      -1.776  17.500  20.162  0.00  0.00    +0.000 C 
ATOM      9  N   UNL     1      -0.891  12.910  21.715  0.00  0.00    +0.000 N 
ATOM     10  C   UNL     1      -1.130  13.091  23.066  0.00  0.00    +0.000 A 
ATOM     11  N   UNL     1      -1.426  11.942  23.624  0.00  0.00    +0.000 NA
ATOM     12  N   UNL     1      -1.361  10.973  22.656  0.00  0.00    +0.000 NA
ATOM     13  C   UNL     1      -1.049  11.556  21.519  0.00  0.00    +0.000 A 
ATOM     14  C   UNL     1      -1.028  10.927  20.182  0.00  0.00    +0.000 C 
ATOM     15  C   UNL     1       0.359  11.120  19.587  0.00  0.00    +0.000 C 
ATOM     16  N   UNL     1       0.810  12.324  19.312  0.00  0.00    +0.000 NA
ENDROOT
BRANCH  15  17
ATOM     17  C   UNL     1       1.226   9.841  19.327  0.00  0.00    +0.000 A 
ATOM     18  C   UNL     1       1.888   9.564  18.105  0.00  0.00    +0.000 A 
ATOM     19  C   UNL     1       2.530   8.314  17.830  0.00  0.00    +0.000 A 
ATOM     20  C   UNL     1       2.597   7.326  18.807  0.00  0.00    +0.000 A 
ATOM     21  C   UNL     1       2.045   7.642  20.075  0.00  0.00    +0.000 A 
ATOM     22  C   UNL     1       1.359   8.854  20.312  0.00  0.00    +0.000 A 
BRANCH  20  23
ATOM     23  N   UNL     1       3.137   6.009  18.595  0.00  0.00    +0.000 N 
ATOM     24  C   UNL     1       4.444   5.755  18.145  0.00  0.00    +0.000 A 
ATOM     25  C   UNL     1       4.672   5.674  16.644  0.00  0.00    +0.000 C 
ATOM     26  N   UNL     1       4.895   4.782  18.919  0.00  0.00    +0.000 NA
ATOM     27  C   UNL     1       3.815   3.947  18.851  0.00  0.00    +0.000 A 
ATOM     28  C   UNL     1       3.790   2.550  18.831  0.00  0.00    +0.000 A 
ATOM     29  N   UNL     1       2.646   1.907  18.503  0.00  0.00    +0.000 NA
ATOM     30  C   UNL     1       1.528   2.647  18.297  0.00  0.00    +0.000 A 
ATOM     31  C   UNL     1       1.423   4.041  18.396  0.00  0.00    +0.000 A 
ATOM     32  C   UNL     1       2.636   4.696  18.608  0.00  0.00    +0.000 A 
ENDBRANCH  20  23
ENDBRANCH  15  17
BRANCH  10  33
ATOM     33  O   UNL     1      -1.029  14.221  23.759  0.00  0.00    +0.000 OA
ATOM     34  H   UNL     1      -0.310  14.124  24.404  0.00  0.00    +0.000 HD
ENDBRANCH  10  33
TORSDOF 3
ENDMDL
MODEL 6
REMARK VINA RESULT:      -9.3      2.995     10.182
REMARK  Name = 
REMARK  6 active torsions:
REMARK  status: ('A' for Active; 'I' for Inactive)
REMARK    1  A    between atoms: C_1  and  C_2
REMARK    2  A    between atoms: C_7  and  C_8
REMARK    3  A    between atoms: C_10  and  O_11
REMARK    4  A    between atoms: C_16  and  C_17
REMARK    5  A    between atoms: C_20  and  N_21
REMARK    6  A    between atoms: C_22  and  C_23
REMARK                            x       y       z     vdW  Elec       q    Type
REMARK                         _______ _______ _______ _____ _____    ______ ____
ROOT
ATOM      1  C   UNL     1       6.455   6.185  15.382  0.00  0.00    +0.000 C 
ATOM      2  C   UNL     1       5.347   5.728  16.296  0.00  0.00    +0.000 A 
ATOM      3  C   UNL     1       4.543   6.681  16.984  0.00  0.00    +0.000 A 
ATOM      4  C   UNL     1       3.485   6.325  17.850  0.00  0.00    +0.000 A 
ATOM      5  C   UNL     1       3.253   4.939  17.975  0.00  0.00    +0.000 A 
ATOM      6  C   UNL     1       4.067   3.980  17.321  0.00  0.00    +0.000 A 
ATOM      7  C   UNL     1       5.104   4.350  16.467  0.00  0.00    +0.000 A 
ATOM      8  C   UNL     1       5.929   3.296  15.776  0.00  0.00    +0.000 C 
ATOM      9  N   UNL     1       2.227   4.456  18.810  0.00  0.00    +0.000 N 
ATOM     10  C   UNL     1       1.509   3.275  18.735  0.00  0.00    +0.000 A 
ATOM     11  N   UNL     1       0.752   3.145  19.797  0.00  0.00    +0.000 NA
ATOM     12  N   UNL     1       0.933   4.254  20.584  0.00  0.00    +0.000 NA
ATOM     13  C   UNL     1       1.818   5.029  19.995  0.00  0.00    +0.000 A 
ATOM     14  C   UNL     1       2.437   6.246  20.557  0.00  0.00    +0.000 C 
ATOM     15  C   UNL     1       2.171   7.400  19.602  0.00  0.00    +0.000 C 
ATOM     16  N   UNL     1       2.673   7.394  18.386  0.00  0.00    +0.000 NA
ENDROOT
BRANCH  15  17
ATOM     17  C   UNL     1       1.275   8.580  20.112  0.00  0.00    +0.000 A 
ATOM     18  C   UNL     1       0.885   9.684  19.315  0.00  0.00    +0.000 A 
ATOM     19  C   UNL     1       0.213  10.833  19.844  0.00  0.00    +0.000 A 
ATOM     20  C   UNL     1      -0.160  10.875  21.184  0.00  0.00    +0.000 A 
ATOM     21  C   UNL     1       0.118   9.722  21.962  0.00  0.00    +0.000 A 
ATOM     22  C   UNL     1       0.837   8.623  21.441  0.00  0.00    +0.000 A 
BRANCH  20  23
ATOM     23  N   UNL     1      -0.752  12.018  21.825  0.00  0.00    +0.000 N 
ATOM     24  C   UNL     1      -2.121  12.139  22.118  0.00  0.00    +0.000 A 
ATOM     25  C   UNL     1      -3.021  12.748  21.054  0.00  0.00    +0.000 C 
ATOM     26  N   UNL     1      -2.173  12.608  23.353  0.00  0.00    +0.000 NA
ATOM     27  C   UNL     1      -1.258  13.616  23.229  0.00  0.00    +0.000 A 
ATOM     28  C   UNL     1      -1.261  14.878  23.828  0.00  0.00    +0.000 A 
ATOM     29  N   UNL     1      -0.408  15.830  23.385  0.00  0.00    +0.000 NA
ATOM     30  C   UNL     1       0.496  15.492  22.431  0.00  0.00    +0.000 A 
ATOM     31  C   UNL     1       0.651  14.228  21.843  0.00  0.00    +0.000 A 
ATOM     32  C   UNL     1      -0.318  13.296  22.217  0.00  0.00    +0.000 A 
ENDBRANCH  20  23
ENDBRANCH  15  17
BRANCH  10  33
ATOM     33  O   UNL     1       1.501   2.398  17.736  0.00  0.00    +0.000 OA
ATOM     34  H   UNL     1       1.628   2.879  16.902  0.00  0.00    +0.000 HD
ENDBRANCH  10  33
TORSDOF 3
ENDMDL
MODEL 7
REMARK VINA RESULT:      -9.1      3.152     10.181
REMARK  Name = 
REMARK  6 active torsions:
REMARK  status: ('A' for Active; 'I' for Inactive)
REMARK    1  A    between atoms: C_1  and  C_2
REMARK    2  A    between atoms: C_7  and  C_8
REMARK    3  A    between atoms: C_10  and  O_11
REMARK    4  A    between atoms: C_16  and  C_17
REMARK    5  A    between atoms: C_20  and  N_21
REMARK    6  A    between atoms: C_22  and  C_23
REMARK                            x       y       z     vdW  Elec       q    Type
REMARK                         _______ _______ _______ _____ _____    ______ ____
ROOT
ATOM      1  C   UNL     1       6.297   5.987  15.158  0.00  0.00    +0.000 C 
ATOM      2  C   UNL     1       5.221   5.584  16.134  0.00  0.00    +0.000 A 
ATOM      3  C   UNL     1       4.464   6.576  16.820  0.00  0.00    +0.000 A 
ATOM      4  C   UNL     1       3.439   6.271  17.743  0.00  0.00    +0.000 A 
ATOM      5  C   UNL     1       3.189   4.894  17.928  0.00  0.00    +0.000 A 
ATOM      6  C   UNL     1       3.958   3.898  17.276  0.00  0.00    +0.000 A 
ATOM      7  C   UNL     1       4.963   4.218  16.366  0.00  0.00    +0.000 A 
ATOM      8  C   UNL     1       5.739   3.124  15.679  0.00  0.00    +0.000 C 
ATOM      9  N   UNL     1       2.191   4.460  18.824  0.00  0.00    +0.000 N 
ATOM     10  C   UNL     1       1.452   3.290  18.822  0.00  0.00    +0.000 A 
ATOM     11  N   UNL     1       0.738   3.212  19.919  0.00  0.00    +0.000 NA
ATOM     12  N   UNL     1       0.972   4.345  20.657  0.00  0.00    +0.000 NA
ATOM     13  C   UNL     1       1.843   5.082  20.002  0.00  0.00    +0.000 A 
ATOM     14  C   UNL     1       2.506   6.307  20.493  0.00  0.00    +0.000 C 
ATOM     15  C   UNL     1       2.220   7.431  19.508  0.00  0.00    +0.000 C 
ATOM     16  N   UNL     1       2.669   7.372  18.274  0.00  0.00    +0.000 NA
ENDROOT
BRANCH  15  17
ATOM     17  C   UNL     1       1.366   8.644  20.012  0.00  0.00    +0.000 A 
ATOM     18  C   UNL     1       0.806   9.630  19.163  0.00  0.00    +0.000 A 
ATOM     19  C   UNL     1       0.178  10.820  19.653  0.00  0.00    +0.000 A 
ATOM     20  C   UNL     1       0.023  11.023  21.021  0.00  0.00    +0.000 A 
ATOM     21  C   UNL     1       0.471   9.983  21.876  0.00  0.00    +0.000 A 
ATOM     22  C   UNL     1       1.144   8.844  21.380  0.00  0.00    +0.000 A 
BRANCH  20  23
ATOM     23  N   UNL     1      -0.509  12.224  21.608  0.00  0.00    +0.000 N 
ATOM     24  C   UNL     1      -1.106  12.285  22.878  0.00  0.00    +0.000 A 
ATOM     25  C   UNL     1      -2.603  12.034  22.969  0.00  0.00    +0.000 C 
ATOM     26  N   UNL     1      -0.596  13.362  23.451  0.00  0.00    +0.000 NA
ATOM     27  C   UNL     1      -0.754  14.240  22.415  0.00  0.00    +0.000 A 
ATOM     28  C   UNL     1      -1.070  15.601  22.463  0.00  0.00    +0.000 A 
ATOM     29  N   UNL     1      -1.435  16.242  21.329  0.00  0.00    +0.000 NA
ATOM     30  C   UNL     1      -1.388  15.557  20.159  0.00  0.00    +0.000 A 
ATOM     31  C   UNL     1      -0.985  14.225  19.989  0.00  0.00    +0.000 A 
ATOM     32  C   UNL     1      -0.736  13.543  21.181  0.00  0.00    +0.000 A 
ENDBRANCH  20  23
ENDBRANCH  15  17
BRANCH  10  33
ATOM     33  O   UNL     1       1.386   2.379  17.856  0.00  0.00    +0.000 OA
ATOM     34  H   UNL     1       0.896   1.610  18.190  0.00  0.00    +0.000 HD
ENDBRANCH  10  33
TORSDOF 3
ENDMDL
MODEL 8
REMARK VINA RESULT:      -9.1      1.221      2.404
REMARK  Name = 
REMARK  6 active torsions:
REMARK  status: ('A' for Active; 'I' for Inactive)
REMARK    1  A    between atoms: C_1  and  C_2
REMARK    2  A    between atoms: C_7  and  C_8
REMARK    3  A    between atoms: C_10  and  O_11
REMARK    4  A    between atoms: C_16  and  C_17
REMARK    5  A    between atoms: C_20  and  N_21
REMARK    6  A    between atoms: C_22  and  C_23
REMARK                            x       y       z     vdW  Elec       q    Type
REMARK                         _______ _______ _______ _____ _____    ______ ____
ROOT
ATOM      1  C   UNL     1      -1.172  14.461  24.147  0.00  0.00    +0.000 C 
ATOM      2  C   UNL     1      -1.563  13.823  22.839  0.00  0.00    +0.000 A 
ATOM      3  C   UNL     1      -0.786  12.762  22.294  0.00  0.00    +0.000 A 
ATOM      4  C   UNL     1      -1.096  12.115  21.078  0.00  0.00    +0.000 A 
ATOM      5  C   UNL     1      -2.263  12.578  20.433  0.00  0.00    +0.000 A 
ATOM      6  C   UNL     1      -3.027  13.656  20.948  0.00  0.00    +0.000 A 
ATOM      7  C   UNL     1      -2.707  14.279  22.153  0.00  0.00    +0.000 A 
ATOM      8  C   UNL     1      -3.561  15.406  22.673  0.00  0.00    +0.000 C 
ATOM      9  N   UNL     1      -2.680  12.015  19.211  0.00  0.00    +0.000 N 
ATOM     10  C   UNL     1      -3.948  11.932  18.664  0.00  0.00    +0.000 A 
ATOM     11  N   UNL     1      -3.876  11.467  17.440  0.00  0.00    +0.000 NA
ATOM     12  N   UNL     1      -2.558  11.206  17.164  0.00  0.00    +0.000 NA
ATOM     13  C   UNL     1      -1.849  11.540  18.220  0.00  0.00    +0.000 A 
ATOM     14  C   UNL     1      -0.375  11.582  18.315  0.00  0.00    +0.000 C 
ATOM     15  C   UNL     1       0.053  10.687  19.468  0.00  0.00    +0.000 C 
ATOM     16  N   UNL     1      -0.293  10.973  20.705  0.00  0.00    +0.000 NA
ENDROOT
BRANCH  15  17
ATOM     17  C   UNL     1       0.904   9.416  19.130  0.00  0.00    +0.000 A 
ATOM     18  C   UNL     1       1.287   8.439  20.081  0.00  0.00    +0.000 A 
ATOM     19  C   UNL     1       2.206   7.380  19.789  0.00  0.00    +0.000 A 
ATOM     20  C   UNL     1       2.712   7.221  18.502  0.00  0.00    +0.000 A 
ATOM     21  C   UNL     1       2.238   8.122  17.514  0.00  0.00    +0.000 A 
ATOM     22  C   UNL     1       1.381   9.199  17.831  0.00  0.00    +0.000 A 
BRANCH  20  23
ATOM     23  N   UNL     1       3.706   6.249  18.135  0.00  0.00    +0.000 N 
ATOM     24  C   UNL     1       3.592   4.870  18.381  0.00  0.00    +0.000 A 
ATOM     25  C   UNL     1       4.116   4.342  19.707  0.00  0.00    +0.000 C 
ATOM     26  N   UNL     1       3.972   4.284  17.258  0.00  0.00    +0.000 NA
ATOM     27  C   UNL     1       5.117   4.995  17.031  0.00  0.00    +0.000 A 
ATOM     28  C   UNL     1       6.324   4.557  16.482  0.00  0.00    +0.000 A 
ATOM     29  N   UNL     1       7.423   5.340  16.574  0.00  0.00    +0.000 NA
ATOM     30  C   UNL     1       7.289   6.577  17.115  0.00  0.00    +0.000 A 
ATOM     31  C   UNL     1       6.104   7.151  17.596  0.00  0.00    +0.000 A 
ATOM     32  C   UNL     1       5.011   6.284  17.613  0.00  0.00    +0.000 A 
ENDBRANCH  20  23
ENDBRANCH  15  17
BRANCH  10  33
ATOM     33  O   UNL     1      -5.103  12.209  19.260  0.00  0.00    +0.000 OA
ATOM     34  H   UNL     1      -4.939  12.334  20.208  0.00  0.00    +0.000 HD
ENDBRANCH  10  33
TORSDOF 3
ENDMDL
MODEL 9
REMARK VINA RESULT:      -9.1      1.350      1.530
REMARK  Name = 
REMARK  6 active torsions:
REMARK  status: ('A' for Active; 'I' for Inactive)
REMARK    1  A    between atoms: C_1  and  C_2
REMARK    2  A    between atoms: C_7  and  C_8
REMARK    3  A    between atoms: C_10  and  O_11
REMARK    4  A    between atoms: C_16  and  C_17
REMARK    5  A    between atoms: C_20  and  N_21
REMARK    6  A    between atoms: C_22  and  C_23
REMARK                            x       y       z     vdW  Elec       q    Type
REMARK                         _______ _______ _______ _____ _____    ______ ____
ROOT
ATOM      1  C   UNL     1      -1.239  15.311  24.332  0.00  0.00    +0.000 C 
ATOM      2  C   UNL     1      -1.643  14.524  23.112  0.00  0.00    +0.000 A 
ATOM      3  C   UNL     1      -0.876  13.400  22.694  0.00  0.00    +0.000 A 
ATOM      4  C   UNL     1      -1.199  12.615  21.565  0.00  0.00    +0.000 A 
ATOM      5  C   UNL     1      -2.368  13.005  20.878  0.00  0.00    +0.000 A 
ATOM      6  C   UNL     1      -3.122  14.141  21.265  0.00  0.00    +0.000 A 
ATOM      7  C   UNL     1      -2.790  14.902  22.384  0.00  0.00    +0.000 A 
ATOM      8  C   UNL     1      -3.634  16.089  22.771  0.00  0.00    +0.000 C 
ATOM      9  N   UNL     1      -2.797  12.302  19.735  0.00  0.00    +0.000 N 
ATOM     10  C   UNL     1      -4.070  12.162  19.210  0.00  0.00    +0.000 A 
ATOM     11  N   UNL     1      -4.010  11.554  18.050  0.00  0.00    +0.000 NA
ATOM     12  N   UNL     1      -2.695  11.253  17.798  0.00  0.00    +0.000 NA
ATOM     13  C   UNL     1      -1.976  11.707  18.802  0.00  0.00    +0.000 A 
ATOM     14  C   UNL     1      -0.502  11.750  18.882  0.00  0.00    +0.000 C 
ATOM     15  C   UNL     1      -0.070  10.997  20.131  0.00  0.00    +0.000 C 
ATOM     16  N   UNL     1      -0.405  11.431  21.326  0.00  0.00    +0.000 NA
ENDROOT
BRANCH  15  17
ATOM     17  C   UNL     1       0.771   9.689  19.941  0.00  0.00    +0.000 A 
ATOM     18  C   UNL     1       1.475   9.361  18.756  0.00  0.00    +0.000 A 
ATOM     19  C   UNL     1       2.094   8.087  18.540  0.00  0.00    +0.000 A 
ATOM     20  C   UNL     1       2.091   7.124  19.544  0.00  0.00    +0.000 A 
ATOM     21  C   UNL     1       1.495   7.489  20.779  0.00  0.00    +0.000 A 
ATOM     22  C   UNL     1       0.835   8.725  20.955  0.00  0.00    +0.000 A 
BRANCH  20  23
ATOM     23  N   UNL     1       2.603   5.789  19.388  0.00  0.00    +0.000 N 
ATOM     24  C   UNL     1       2.977   5.224  18.157  0.00  0.00    +0.000 A 
ATOM     25  C   UNL     1       1.907   4.497  17.358  0.00  0.00    +0.000 C 
ATOM     26  N   UNL     1       4.132   4.621  18.387  0.00  0.00    +0.000 NA
ATOM     27  C   UNL     1       3.794   3.961  19.536  0.00  0.00    +0.000 A 
ATOM     28  C   UNL     1       4.202   2.698  19.969  0.00  0.00    +0.000 A 
ATOM     29  N   UNL     1       3.563   2.108  21.006  0.00  0.00    +0.000 NA
ATOM     30  C   UNL     1       2.604   2.814  21.656  0.00  0.00    +0.000 A 
ATOM     31  C   UNL     1       2.195   4.124  21.368  0.00  0.00    +0.000 A 
ATOM     32  C   UNL     1       2.772   4.667  20.219  0.00  0.00    +0.000 A 
ENDBRANCH  20  23
ENDBRANCH  15  17
BRANCH  10  33
ATOM     33  O   UNL     1      -5.219  12.516  19.776  0.00  0.00    +0.000 OA
ATOM     34  H   UNL     1      -5.239  13.483  19.856  0.00  0.00    +0.000 HD
ENDBRANCH  10  33
TORSDOF 3
ENDMDL
