MODEL 1
REMARK VINA RESULT:      -8.0      0.000      0.000
REMARK  Name = 
REMARK  6 active torsions:
REMARK  status: ('A' for Active; 'I' for Inactive)
REMARK    1  A    between atoms: C_1  and  O_2
REMARK    2  A    between atoms: O_2  and  C_3
REMARK    3  A    between atoms: C_6  and  C_7
REMARK    4  A    between atoms: N_18  and  C_19
REMARK    5  A    between atoms: C_19  and  C_20
REMARK    6  A    between atoms: C_20  and  N_21
REMARK                            x       y       z     vdW  Elec       q    Type
REMARK                         _______ _______ _______ _____ _____    ______ ____
ROOT
ATOM      1  C   UNL     1       2.424   8.402  18.188  0.00  0.00    +0.000 C 
ATOM      2  O   UNL     1       2.476   8.958  17.097  0.00  0.00    +0.000 OA
ATOM      3  N   UNL     1       3.131   7.284  18.597  0.00  0.00    +0.000 N 
ATOM      4  C   UNL     1       4.021   6.651  17.755  0.00  0.00    +0.000 A 
ATOM      5  N   UNL     1       4.336   7.026  16.541  0.00  0.00    +0.000 NA
ATOM      6  C   UNL     1       5.051   6.004  16.001  0.00  0.00    +0.000 A 
ATOM      7  C   UNL     1       5.531   5.891  14.686  0.00  0.00    +0.000 A 
ATOM      8  C   UNL     1       6.170   4.715  14.302  0.00  0.00    +0.000 A 
ATOM      9  C   UNL     1       6.314   3.668  15.216  0.00  0.00    +0.000 A 
ATOM     10  C   UNL     1       5.866   3.775  16.546  0.00  0.00    +0.000 A 
ATOM     11  C   UNL     1       5.247   4.977  16.928  0.00  0.00    +0.000 A 
ATOM     12  N   UNL     1       4.702   5.483  18.092  0.00  0.00    +0.000 N 
ATOM     13  H   UNL     1       2.893   6.855  19.476  0.00  0.00    +0.000 HD
ENDROOT
BRANCH   1  17
ATOM     14  C   UNL     1      -0.279  10.187  21.014  0.00  0.00    +0.000 A 
ATOM     15  C   UNL     1      -0.165  10.675  19.713  0.00  0.00    +0.000 A 
ATOM     16  C   UNL     1       0.697  10.064  18.802  0.00  0.00    +0.000 A 
ATOM     17  C   UNL     1       1.468   8.961  19.190  0.00  0.00    +0.000 A 
ATOM     18  C   UNL     1       1.370   8.482  20.500  0.00  0.00    +0.000 A 
ATOM     19  C   UNL     1       0.493   9.094  21.409  0.00  0.00    +0.000 A 
BRANCH  14  21
ATOM     20  C   UNL     1      -1.107  10.546  23.199  0.00  0.00    +0.000 C 
ATOM     21  O   UNL     1      -1.125  10.895  21.820  0.00  0.00    +0.000 OA
ENDBRANCH  14  21
ENDBRANCH   1  17
BRANCH  12  22
ATOM     22  C   UNL     1       4.684   4.919  19.430  0.00  0.00    +0.000 C 
BRANCH  22  23
ATOM     23  C   UNL     1       3.596   3.903  19.821  0.00  0.00    +0.000 C 
BRANCH  23  24
ATOM     24  N   UNL     1       2.246   4.369  19.395  0.00  0.00    +0.000 NA
ATOM     25  C   UNL     1       1.271   4.323  20.502  0.00  0.00    +0.000 C 
ATOM     26  C   UNL     1       0.782   2.887  20.505  0.00  0.00    +0.000 C 
ATOM     27  C   UNL     1       0.698   2.551  19.028  0.00  0.00    +0.000 C 
ATOM     28  C   UNL     1       1.626   3.543  18.341  0.00  0.00    +0.000 C 
ENDBRANCH  23  24
ENDBRANCH  22  23
ENDBRANCH  12  22
TORSDOF 5
ENDMDL
MODEL 2
REMARK VINA RESULT:      -8.0      0.859      1.177
REMARK  Name = 
REMARK  6 active torsions:
REMARK  status: ('A' for Active; 'I' for Inactive)
REMARK    1  A    between atoms: C_1  and  O_2
REMARK    2  A    between atoms: O_2  and  C_3
REMARK    3  A    between atoms: C_6  and  C_7
REMARK    4  A    between atoms: N_18  and  C_19
REMARK    5  A    between atoms: C_19  and  C_20
REMARK    6  A    between atoms: C_20  and  N_21
REMARK                            x       y       z     vdW  Elec       q    Type
REMARK                         _______ _______ _______ _____ _____    ______ ____
ROOT
ATOM      1  C   UNL     1       2.268   8.299  18.870  0.00  0.00    +0.000 C 
ATOM      2  O   UNL     1       2.356   8.978  17.853  0.00  0.00    +0.000 OA
ATOM      3  N   UNL     1       2.919   7.109  19.146  0.00  0.00    +0.000 N 
ATOM      4  C   UNL     1       3.785   6.539  18.238  0.00  0.00    +0.000 A 
ATOM      5  N   UNL     1       4.129   7.039  17.078  0.00  0.00    +0.000 NA
ATOM      6  C   UNL     1       4.800   6.056  16.423  0.00  0.00    +0.000 A 
ATOM      7  C   UNL     1       5.286   6.077  15.106  0.00  0.00    +0.000 A 
ATOM      8  C   UNL     1       5.873   4.926  14.587  0.00  0.00    +0.000 A 
ATOM      9  C   UNL     1       5.961   3.772  15.370  0.00  0.00    +0.000 A 
ATOM     10  C   UNL     1       5.506   3.742  16.703  0.00  0.00    +0.000 A 
ATOM     11  C   UNL     1       4.940   4.918  17.223  0.00  0.00    +0.000 A 
ATOM     12  N   UNL     1       4.409   5.309  18.436  0.00  0.00    +0.000 N 
ATOM     13  H   UNL     1       2.653   6.590  19.967  0.00  0.00    +0.000 HD
ENDROOT
BRANCH   1  17
ATOM     14  C   UNL     1      -0.361   9.860  21.892  0.00  0.00    +0.000 A 
ATOM     15  C   UNL     1      -0.125  10.556  20.708  0.00  0.00    +0.000 A 
ATOM     16  C   UNL     1       0.709  10.020  19.727  0.00  0.00    +0.000 A 
ATOM     17  C   UNL     1       1.330   8.780  19.928  0.00  0.00    +0.000 A 
ATOM     18  C   UNL     1       1.111   8.090  21.125  0.00  0.00    +0.000 A 
ATOM     19  C   UNL     1       0.262   8.629  22.103  0.00  0.00    +0.000 A 
BRANCH  14  21
ATOM     20  C   UNL     1      -1.162  11.928  22.711  0.00  0.00    +0.000 C 
ATOM     21  O   UNL     1      -1.163  10.508  22.789  0.00  0.00    +0.000 OA
ENDBRANCH  14  21
ENDBRANCH   1  17
BRANCH  12  22
ATOM     22  C   UNL     1       4.353   4.591  19.698  0.00  0.00    +0.000 C 
BRANCH  22  23
ATOM     23  C   UNL     1       3.911   3.117  19.725  0.00  0.00    +0.000 C 
BRANCH  23  24
ATOM     24  N   UNL     1       2.834   2.897  20.731  0.00  0.00    +0.000 NA
ATOM     25  C   UNL     1       1.702   2.133  20.170  0.00  0.00    +0.000 C 
ATOM     26  C   UNL     1       0.852   3.183  19.480  0.00  0.00    +0.000 C 
ATOM     27  C   UNL     1       0.943   4.369  20.421  0.00  0.00    +0.000 C 
ATOM     28  C   UNL     1       2.210   4.137  21.232  0.00  0.00    +0.000 C 
ENDBRANCH  23  24
ENDBRANCH  22  23
ENDBRANCH  12  22
TORSDOF 5
ENDMDL
MODEL 3
REMARK VINA RESULT:      -7.9      0.390      1.001
REMARK  Name = 
REMARK  6 active torsions:
REMARK  status: ('A' for Active; 'I' for Inactive)
REMARK    1  A    between atoms: C_1  and  O_2
REMARK    2  A    between atoms: O_2  and  C_3
REMARK    3  A    between atoms: C_6  and  C_7
REMARK    4  A    between atoms: N_18  and  C_19
REMARK    5  A    between atoms: C_19  and  C_20
REMARK    6  A    between atoms: C_20  and  N_21
REMARK                            x       y       z     vdW  Elec       q    Type
REMARK                         _______ _______ _______ _____ _____    ______ ____
ROOT
ATOM      1  C   UNL     1       2.465   8.333  18.337  0.00  0.00    +0.000 C 
ATOM      2  O   UNL     1       2.470   8.914  17.258  0.00  0.00    +0.000 OA
ATOM      3  N   UNL     1       3.201   7.217  18.696  0.00  0.00    +0.000 N 
ATOM      4  C   UNL     1       4.067   6.614  17.808  0.00  0.00    +0.000 A 
ATOM      5  N   UNL     1       4.333   7.020  16.592  0.00  0.00    +0.000 NA
ATOM      6  C   UNL     1       5.041   6.020  16.003  0.00  0.00    +0.000 A 
ATOM      7  C   UNL     1       5.474   5.942  14.670  0.00  0.00    +0.000 A 
ATOM      8  C   UNL     1       6.113   4.783  14.237  0.00  0.00    +0.000 A 
ATOM      9  C   UNL     1       6.305   3.719  15.122  0.00  0.00    +0.000 A 
ATOM     10  C   UNL     1       5.904   3.791  16.469  0.00  0.00    +0.000 A 
ATOM     11  C   UNL     1       5.284   4.976  16.900  0.00  0.00    +0.000 A 
ATOM     12  N   UNL     1       4.775   5.449  18.094  0.00  0.00    +0.000 N 
ATOM     13  H   UNL     1       3.000   6.765  19.573  0.00  0.00    +0.000 HD
ENDROOT
BRANCH   1  17
ATOM     14  C   UNL     1      -0.225   9.662  21.417  0.00  0.00    +0.000 A 
ATOM     15  C   UNL     1       0.740   8.687  21.668  0.00  0.00    +0.000 A 
ATOM     16  C   UNL     1       1.621   8.290  20.664  0.00  0.00    +0.000 A 
ATOM     17  C   UNL     1       1.539   8.857  19.385  0.00  0.00    +0.000 A 
ATOM     18  C   UNL     1       0.559   9.821  19.125  0.00  0.00    +0.000 A 
ATOM     19  C   UNL     1      -0.318  10.225  20.143  0.00  0.00    +0.000 A 
BRANCH  14  21
ATOM     20  C   UNL     1      -1.023  11.272  22.952  0.00  0.00    +0.000 C 
ATOM     21  O   UNL     1      -1.053   9.935  22.468  0.00  0.00    +0.000 OA
ENDBRANCH  14  21
ENDBRANCH   1  17
BRANCH  12  22
ATOM     22  C   UNL     1       4.814   4.856  19.419  0.00  0.00    +0.000 C 
BRANCH  22  23
ATOM     23  C   UNL     1       3.734   3.843  19.839  0.00  0.00    +0.000 C 
BRANCH  23  24
ATOM     24  N   UNL     1       2.366   4.382  19.596  0.00  0.00    +0.000 NA
ATOM     25  C   UNL     1       1.521   4.311  20.804  0.00  0.00    +0.000 C 
ATOM     26  C   UNL     1       0.973   2.896  20.789  0.00  0.00    +0.000 C 
ATOM     27  C   UNL     1       0.708   2.647  19.316  0.00  0.00    +0.000 C 
ATOM     28  C   UNL     1       1.595   3.641  18.579  0.00  0.00    +0.000 C 
ENDBRANCH  23  24
ENDBRANCH  22  23
ENDBRANCH  12  22
TORSDOF 5
ENDMDL
MODEL 4
REMARK VINA RESULT:      -7.7      0.698      1.079
REMARK  Name = 
REMARK  6 active torsions:
REMARK  status: ('A' for Active; 'I' for Inactive)
REMARK    1  A    between atoms: C_1  and  O_2
REMARK    2  A    between atoms: O_2  and  C_3
REMARK    3  A    between atoms: C_6  and  C_7
REMARK    4  A    between atoms: N_18  and  C_19
REMARK    5  A    between atoms: C_19  and  C_20
REMARK    6  A    between atoms: C_20  and  N_21
REMARK                            x       y       z     vdW  Elec       q    Type
REMARK                         _______ _______ _______ _____ _____    ______ ____
ROOT
ATOM      1  C   UNL     1       2.375   8.441  18.217  0.00  0.00    +0.000 C 
ATOM      2  O   UNL     1       2.499   9.017  17.142  0.00  0.00    +0.000 OA
ATOM      3  N   UNL     1       3.021   7.290  18.634  0.00  0.00    +0.000 N 
ATOM      4  C   UNL     1       3.926   6.642  17.821  0.00  0.00    +0.000 A 
ATOM      5  N   UNL     1       4.313   7.029  16.632  0.00  0.00    +0.000 NA
ATOM      6  C   UNL     1       5.015   5.993  16.103  0.00  0.00    +0.000 A 
ATOM      7  C   UNL     1       5.553   5.889  14.810  0.00  0.00    +0.000 A 
ATOM      8  C   UNL     1       6.167   4.698  14.431  0.00  0.00    +0.000 A 
ATOM      9  C   UNL     1       6.230   3.628  15.327  0.00  0.00    +0.000 A 
ATOM     10  C   UNL     1       5.723   3.725  16.637  0.00  0.00    +0.000 A 
ATOM     11  C   UNL     1       5.130   4.941  17.016  0.00  0.00    +0.000 A 
ATOM     12  N   UNL     1       4.549   5.443  18.164  0.00  0.00    +0.000 N 
ATOM     13  H   UNL     1       2.726   6.852  19.491  0.00  0.00    +0.000 HD
ENDROOT
BRANCH   1  17
ATOM     14  C   UNL     1      -0.401  10.267  20.945  0.00  0.00    +0.000 A 
ATOM     15  C   UNL     1      -0.246  10.741  19.643  0.00  0.00    +0.000 A 
ATOM     16  C   UNL     1       0.639  10.118  18.764  0.00  0.00    +0.000 A 
ATOM     17  C   UNL     1       1.393   9.014  19.185  0.00  0.00    +0.000 A 
ATOM     18  C   UNL     1       1.254   8.549  20.497  0.00  0.00    +0.000 A 
ATOM     19  C   UNL     1       0.354   9.174  21.373  0.00  0.00    +0.000 A 
BRANCH  14  21
ATOM     20  C   UNL     1      -1.077  10.883  23.125  0.00  0.00    +0.000 C 
ATOM     21  O   UNL     1      -1.266  10.986  21.720  0.00  0.00    +0.000 OA
ENDBRANCH  14  21
ENDBRANCH   1  17
BRANCH  12  22
ATOM     22  C   UNL     1       4.447   4.853  19.487  0.00  0.00    +0.000 C 
BRANCH  22  23
ATOM     23  C   UNL     1       4.423   3.323  19.646  0.00  0.00    +0.000 C 
BRANCH  23  24
ATOM     24  N   UNL     1       3.030   2.822  19.820  0.00  0.00    +0.000 NA
ATOM     25  C   UNL     1       2.704   1.750  18.858  0.00  0.00    +0.000 C 
ATOM     26  C   UNL     1       2.287   2.492  17.603  0.00  0.00    +0.000 C 
ATOM     27  C   UNL     1       1.509   3.675  18.148  0.00  0.00    +0.000 C 
ATOM     28  C   UNL     1       1.987   3.839  19.584  0.00  0.00    +0.000 C 
ENDBRANCH  23  24
ENDBRANCH  22  23
ENDBRANCH  12  22
TORSDOF 5
ENDMDL
MODEL 5
REMARK VINA RESULT:      -7.6      1.724      2.295
REMARK  Name = 
REMARK  6 active torsions:
REMARK  status: ('A' for Active; 'I' for Inactive)
REMARK    1  A    between atoms: C_1  and  O_2
REMARK    2  A    between atoms: O_2  and  C_3
REMARK    3  A    between atoms: C_6  and  C_7
REMARK    4  A    between atoms: N_18  and  C_19
REMARK    5  A    between atoms: C_19  and  C_20
REMARK    6  A    between atoms: C_20  and  N_21
REMARK                            x       y       z     vdW  Elec       q    Type
REMARK                         _______ _______ _______ _____ _____    ______ ____
ROOT
ATOM      1  C   UNL     1       1.795   9.164  18.069  0.00  0.00    +0.000 C 
ATOM      2  O   UNL     1       2.704   9.854  17.622  0.00  0.00    +0.000 OA
ATOM      3  N   UNL     1       1.778   7.788  18.218  0.00  0.00    +0.000 N 
ATOM      4  C   UNL     1       2.859   7.014  17.851  0.00  0.00    +0.000 A 
ATOM      5  N   UNL     1       4.000   7.452  17.385  0.00  0.00    +0.000 NA
ATOM      6  C   UNL     1       4.675   6.360  16.940  0.00  0.00    +0.000 A 
ATOM      7  C   UNL     1       5.907   6.325  16.268  0.00  0.00    +0.000 A 
ATOM      8  C   UNL     1       6.391   5.100  15.814  0.00  0.00    +0.000 A 
ATOM      9  C   UNL     1       5.648   3.935  16.020  0.00  0.00    +0.000 A 
ATOM     10  C   UNL     1       4.425   3.948  16.718  0.00  0.00    +0.000 A 
ATOM     11  C   UNL     1       3.961   5.185  17.194  0.00  0.00    +0.000 A 
ATOM     12  N   UNL     1       2.865   5.622  17.913  0.00  0.00    +0.000 N 
ATOM     13  H   UNL     1       0.914   7.339  18.476  0.00  0.00    +0.000 HD
ENDROOT
BRANCH   1  17
ATOM     14  C   UNL     1      -1.839  11.245  19.044  0.00  0.00    +0.000 A 
ATOM     15  C   UNL     1      -1.747  10.440  17.909  0.00  0.00    +0.000 A 
ATOM     16  C   UNL     1      -0.568   9.751  17.625  0.00  0.00    +0.000 A 
ATOM     17  C   UNL     1       0.542   9.870  18.471  0.00  0.00    +0.000 A 
ATOM     18  C   UNL     1       0.458  10.693  19.599  0.00  0.00    +0.000 A 
ATOM     19  C   UNL     1      -0.734  11.375  19.886  0.00  0.00    +0.000 A 
BRANCH  14  21
ATOM     20  C   UNL     1      -4.058  11.527  18.279  0.00  0.00    +0.000 C 
ATOM     21  O   UNL     1      -3.030  11.898  19.189  0.00  0.00    +0.000 OA
ENDBRANCH  14  21
ENDBRANCH   1  17
BRANCH  12  22
ATOM     22  C   UNL     1       1.804   4.856  18.543  0.00  0.00    +0.000 C 
BRANCH  22  23
ATOM     23  C   UNL     1       1.841   4.595  20.059  0.00  0.00    +0.000 C 
BRANCH  23  24
ATOM     24  N   UNL     1       1.722   3.139  20.357  0.00  0.00    +0.000 NA
ATOM     25  C   UNL     1       2.825   2.660  21.213  0.00  0.00    +0.000 C 
ATOM     26  C   UNL     1       3.954   2.375  20.240  0.00  0.00    +0.000 C 
ATOM     27  C   UNL     1       3.231   1.786  19.042  0.00  0.00    +0.000 C 
ATOM     28  C   UNL     1       1.794   2.270  19.167  0.00  0.00    +0.000 C 
ENDBRANCH  23  24
ENDBRANCH  22  23
ENDBRANCH  12  22
TORSDOF 5
ENDMDL
MODEL 6
REMARK VINA RESULT:      -7.5      0.697      1.408
REMARK  Name = 
REMARK  6 active torsions:
REMARK  status: ('A' for Active; 'I' for Inactive)
REMARK    1  A    between atoms: C_1  and  O_2
REMARK    2  A    between atoms: O_2  and  C_3
REMARK    3  A    between atoms: C_6  and  C_7
REMARK    4  A    between atoms: N_18  and  C_19
REMARK    5  A    between atoms: C_19  and  C_20
REMARK    6  A    between atoms: C_20  and  N_21
REMARK                            x       y       z     vdW  Elec       q    Type
REMARK                         _______ _______ _______ _____ _____    ______ ____
ROOT
ATOM      1  C   UNL     1       2.350   8.482  18.458  0.00  0.00    +0.000 C 
ATOM      2  O   UNL     1       2.480   9.084  17.399  0.00  0.00    +0.000 OA
ATOM      3  N   UNL     1       2.956   7.295  18.831  0.00  0.00    +0.000 N 
ATOM      4  C   UNL     1       3.823   6.637  17.984  0.00  0.00    +0.000 A 
ATOM      5  N   UNL     1       4.206   7.044  16.801  0.00  0.00    +0.000 NA
ATOM      6  C   UNL     1       4.859   5.997  16.230  0.00  0.00    +0.000 A 
ATOM      7  C   UNL     1       5.372   5.912  14.927  0.00  0.00    +0.000 A 
ATOM      8  C   UNL     1       5.933   4.709  14.502  0.00  0.00    +0.000 A 
ATOM      9  C   UNL     1       5.968   3.611  15.366  0.00  0.00    +0.000 A 
ATOM     10  C   UNL     1       5.485   3.689  16.686  0.00  0.00    +0.000 A 
ATOM     11  C   UNL     1       4.947   4.915  17.110  0.00  0.00    +0.000 A 
ATOM     12  N   UNL     1       4.403   5.405  18.282  0.00  0.00    +0.000 N 
ATOM     13  H   UNL     1       2.658   6.843  19.680  0.00  0.00    +0.000 HD
ENDROOT
BRANCH   1  17
ATOM     14  C   UNL     1      -0.405   9.980  21.399  0.00  0.00    +0.000 A 
ATOM     15  C   UNL     1       0.482   8.947  21.697  0.00  0.00    +0.000 A 
ATOM     16  C   UNL     1       1.387   8.494  20.738  0.00  0.00    +0.000 A 
ATOM     17  C   UNL     1       1.406   9.064  19.459  0.00  0.00    +0.000 A 
ATOM     18  C   UNL     1       0.503  10.087  19.151  0.00  0.00    +0.000 A 
ATOM     19  C   UNL     1      -0.398  10.547  20.123  0.00  0.00    +0.000 A 
BRANCH  14  21
ATOM     20  C   UNL     1      -1.139  11.620  22.936  0.00  0.00    +0.000 C 
ATOM     21  O   UNL     1      -1.268  10.306  22.408  0.00  0.00    +0.000 OA
ENDBRANCH  14  21
ENDBRANCH   1  17
BRANCH  12  22
ATOM     22  C   UNL     1       4.299   4.780  19.589  0.00  0.00    +0.000 C 
BRANCH  22  23
ATOM     23  C   UNL     1       2.913   4.495  20.196  0.00  0.00    +0.000 C 
BRANCH  23  24
ATOM     24  N   UNL     1       2.658   3.030  20.292  0.00  0.00    +0.000 NA
ATOM     25  C   UNL     1       3.180   2.301  19.119  0.00  0.00    +0.000 C 
ATOM     26  C   UNL     1       2.080   2.431  18.082  0.00  0.00    +0.000 C 
ATOM     27  C   UNL     1       0.814   2.305  18.909  0.00  0.00    +0.000 C 
ATOM     28  C   UNL     1       1.229   2.666  20.329  0.00  0.00    +0.000 C 
ENDBRANCH  23  24
ENDBRANCH  22  23
ENDBRANCH  12  22
TORSDOF 5
ENDMDL
MODEL 7
REMARK VINA RESULT:      -7.5      1.721      2.370
REMARK  Name = 
REMARK  6 active torsions:
REMARK  status: ('A' for Active; 'I' for Inactive)
REMARK    1  A    between atoms: C_1  and  O_2
REMARK    2  A    between atoms: O_2  and  C_3
REMARK    3  A    between atoms: C_6  and  C_7
REMARK    4  A    between atoms: N_18  and  C_19
REMARK    5  A    between atoms: C_19  and  C_20
REMARK    6  A    between atoms: C_20  and  N_21
REMARK                            x       y       z     vdW  Elec       q    Type
REMARK                         _______ _______ _______ _____ _____    ______ ____
ROOT
ATOM      1  C   UNL     1       1.563   9.565  18.123  0.00  0.00    +0.000 C 
ATOM      2  O   UNL     1       2.428  10.186  17.516  0.00  0.00    +0.000 OA
ATOM      3  N   UNL     1       1.566   8.220  18.449  0.00  0.00    +0.000 N 
ATOM      4  C   UNL     1       2.616   7.399  18.095  0.00  0.00    +0.000 A 
ATOM      5  N   UNL     1       3.711   7.767  17.480  0.00  0.00    +0.000 NA
ATOM      6  C   UNL     1       4.351   6.622  17.124  0.00  0.00    +0.000 A 
ATOM      7  C   UNL     1       5.522   6.493  16.360  0.00  0.00    +0.000 A 
ATOM      8  C   UNL     1       5.971   5.217  16.028  0.00  0.00    +0.000 A 
ATOM      9  C   UNL     1       5.253   4.093  16.445  0.00  0.00    +0.000 A 
ATOM     10  C   UNL     1       4.094   4.203  17.237  0.00  0.00    +0.000 A 
ATOM     11  C   UNL     1       3.667   5.494  17.588  0.00  0.00    +0.000 A 
ATOM     12  N   UNL     1       2.634   6.027  18.335  0.00  0.00    +0.000 N 
ATOM     13  H   UNL     1       0.730   7.813  18.835  0.00  0.00    +0.000 HD
ENDROOT
BRANCH   1  17
ATOM     14  C   UNL     1      -1.891  11.726  19.495  0.00  0.00    +0.000 A 
ATOM     15  C   UNL     1      -0.642  11.904  20.089  0.00  0.00    +0.000 A 
ATOM     16  C   UNL     1       0.472  11.215  19.611  0.00  0.00    +0.000 A 
ATOM     17  C   UNL     1       0.346  10.325  18.536  0.00  0.00    +0.000 A 
ATOM     18  C   UNL     1      -0.910  10.130  17.952  0.00  0.00    +0.000 A 
ATOM     19  C   UNL     1      -2.025  10.834  18.429  0.00  0.00    +0.000 A 
BRANCH  14  21
ATOM     20  C   UNL     1      -4.186  12.290  19.468  0.00  0.00    +0.000 C 
ATOM     21  O   UNL     1      -2.909  12.426  20.079  0.00  0.00    +0.000 OA
ENDBRANCH  14  21
ENDBRANCH   1  17
BRANCH  12  22
ATOM     22  C   UNL     1       1.634   5.355  19.146  0.00  0.00    +0.000 C 
BRANCH  22  23
ATOM     23  C   UNL     1       1.924   5.050  20.626  0.00  0.00    +0.000 C 
BRANCH  23  24
ATOM     24  N   UNL     1       1.451   3.686  20.997  0.00  0.00    +0.000 NA
ATOM     25  C   UNL     1       2.542   2.850  21.534  0.00  0.00    +0.000 C 
ATOM     26  C   UNL     1       3.220   2.287  20.299  0.00  0.00    +0.000 C 
ATOM     27  C   UNL     1       2.055   2.007  19.368  0.00  0.00    +0.000 C 
ATOM     28  C   UNL     1       0.926   2.899  19.865  0.00  0.00    +0.000 C 
ENDBRANCH  23  24
ENDBRANCH  22  23
ENDBRANCH  12  22
TORSDOF 5
ENDMDL
MODEL 8
REMARK VINA RESULT:      -7.5      2.116      4.775
REMARK  Name = 
REMARK  6 active torsions:
REMARK  status: ('A' for Active; 'I' for Inactive)
REMARK    1  A    between atoms: C_1  and  O_2
REMARK    2  A    between atoms: O_2  and  C_3
REMARK    3  A    between atoms: C_6  and  C_7
REMARK    4  A    between atoms: N_18  and  C_19
REMARK    5  A    between atoms: C_19  and  C_20
REMARK    6  A    between atoms: C_20  and  N_21
REMARK                            x       y       z     vdW  Elec       q    Type
REMARK                         _______ _______ _______ _____ _____    ______ ____
ROOT
ATOM      1  C   UNL     1       1.172   8.732  20.312  0.00  0.00    +0.000 C 
ATOM      2  O   UNL     1       0.496   8.254  21.216  0.00  0.00    +0.000 OA
ATOM      3  N   UNL     1       2.071   8.071  19.494  0.00  0.00    +0.000 N 
ATOM      4  C   UNL     1       2.305   6.719  19.633  0.00  0.00    +0.000 A 
ATOM      5  N   UNL     1       1.709   5.913  20.474  0.00  0.00    +0.000 NA
ATOM      6  C   UNL     1       2.400   4.744  20.437  0.00  0.00    +0.000 A 
ATOM      7  C   UNL     1       2.204   3.604  21.233  0.00  0.00    +0.000 A 
ATOM      8  C   UNL     1       3.083   2.532  21.100  0.00  0.00    +0.000 A 
ATOM      9  C   UNL     1       4.143   2.606  20.193  0.00  0.00    +0.000 A 
ATOM     10  C   UNL     1       4.337   3.729  19.366  0.00  0.00    +0.000 A 
ATOM     11  C   UNL     1       3.428   4.793  19.491  0.00  0.00    +0.000 A 
ATOM     12  N   UNL     1       3.251   6.021  18.885  0.00  0.00    +0.000 N 
ATOM     13  H   UNL     1       2.656   8.612  18.878  0.00  0.00    +0.000 HD
ENDROOT
BRANCH   1  17
ATOM     14  C   UNL     1       0.978  12.956  19.534  0.00  0.00    +0.000 A 
ATOM     15  C   UNL     1       1.384  12.056  18.550  0.00  0.00    +0.000 A 
ATOM     16  C   UNL     1       1.413  10.687  18.813  0.00  0.00    +0.000 A 
ATOM     17  C   UNL     1       1.047  10.202  20.075  0.00  0.00    +0.000 A 
ATOM     18  C   UNL     1       0.658  11.105  21.070  0.00  0.00    +0.000 A 
ATOM     19  C   UNL     1       0.620  12.480  20.796  0.00  0.00    +0.000 A 
BRANCH  14  21
ATOM     20  C   UNL     1      -0.223  14.928  19.027  0.00  0.00    +0.000 C 
ATOM     21  O   UNL     1       1.031  14.271  19.166  0.00  0.00    +0.000 OA
ENDBRANCH  14  21
ENDBRANCH   1  17
BRANCH  12  22
ATOM     22  C   UNL     1       3.955   6.608  17.758  0.00  0.00    +0.000 C 
BRANCH  22  23
ATOM     23  C   UNL     1       4.623   5.699  16.711  0.00  0.00    +0.000 C 
BRANCH  23  24
ATOM     24  N   UNL     1       5.981   6.199  16.353  0.00  0.00    +0.000 NA
ATOM     25  C   UNL     1       6.924   5.094  16.091  0.00  0.00    +0.000 C 
ATOM     26  C   UNL     1       7.425   4.699  17.467  0.00  0.00    +0.000 C 
ATOM     27  C   UNL     1       7.554   6.033  18.179  0.00  0.00    +0.000 C 
ATOM     28  C   UNL     1       6.638   6.981  17.418  0.00  0.00    +0.000 C 
ENDBRANCH  23  24
ENDBRANCH  22  23
ENDBRANCH  12  22
TORSDOF 5
ENDMDL
MODEL 9
REMARK VINA RESULT:      -7.4      2.025      4.718
REMARK  Name = 
REMARK  6 active torsions:
REMARK  status: ('A' for Active; 'I' for Inactive)
REMARK    1  A    between atoms: C_1  and  O_2
REMARK    2  A    between atoms: O_2  and  C_3
REMARK    3  A    between atoms: C_6  and  C_7
REMARK    4  A    between atoms: N_18  and  C_19
REMARK    5  A    between atoms: C_19  and  C_20
REMARK    6  A    between atoms: C_20  and  N_21
REMARK                            x       y       z     vdW  Elec       q    Type
REMARK                         _______ _______ _______ _____ _____    ______ ____
ROOT
ATOM      1  C   UNL     1       1.152   8.640  20.346  0.00  0.00    +0.000 C 
ATOM      2  O   UNL     1       0.480   8.136  21.238  0.00  0.00    +0.000 OA
ATOM      3  N   UNL     1       2.070   8.009  19.524  0.00  0.00    +0.000 N 
ATOM      4  C   UNL     1       2.329   6.660  19.644  0.00  0.00    +0.000 A 
ATOM      5  N   UNL     1       1.743   5.830  20.469  0.00  0.00    +0.000 NA
ATOM      6  C   UNL     1       2.457   4.675  20.419  0.00  0.00    +0.000 A 
ATOM      7  C   UNL     1       2.278   3.520  21.196  0.00  0.00    +0.000 A 
ATOM      8  C   UNL     1       3.179   2.467  21.053  0.00  0.00    +0.000 A 
ATOM      9  C   UNL     1       4.244   2.576  20.155  0.00  0.00    +0.000 A 
ATOM     10  C   UNL     1       4.421   3.715  19.346  0.00  0.00    +0.000 A 
ATOM     11  C   UNL     1       3.490   4.758  19.481  0.00  0.00    +0.000 A 
ATOM     12  N   UNL     1       3.294   5.992  18.892  0.00  0.00    +0.000 N 
ATOM     13  H   UNL     1       2.648   8.571  18.921  0.00  0.00    +0.000 HD
ENDROOT
BRANCH   1  17
ATOM     14  C   UNL     1       0.551  12.865  19.824  0.00  0.00    +0.000 A 
ATOM     15  C   UNL     1       0.298  12.243  21.046  0.00  0.00    +0.000 A 
ATOM     16  C   UNL     1       0.526  10.876  21.203  0.00  0.00    +0.000 A 
ATOM     17  C   UNL     1       1.000  10.110  20.130  0.00  0.00    +0.000 A 
ATOM     18  C   UNL     1       1.235  10.729  18.898  0.00  0.00    +0.000 A 
ATOM     19  C   UNL     1       1.014  12.106  18.748  0.00  0.00    +0.000 A 
BRANCH  14  21
ATOM     20  C   UNL     1      -1.010  14.566  20.331  0.00  0.00    +0.000 C 
ATOM     21  O   UNL     1       0.250  14.198  19.785  0.00  0.00    +0.000 OA
ENDBRANCH  14  21
ENDBRANCH   1  17
BRANCH  12  22
ATOM     22  C   UNL     1       3.993   6.610  17.779  0.00  0.00    +0.000 C 
BRANCH  22  23
ATOM     23  C   UNL     1       4.628   5.731  16.687  0.00  0.00    +0.000 C 
BRANCH  23  24
ATOM     24  N   UNL     1       5.993   6.214  16.334  0.00  0.00    +0.000 NA
ATOM     25  C   UNL     1       6.920   5.098  16.062  0.00  0.00    +0.000 C 
ATOM     26  C   UNL     1       7.415   4.683  17.435  0.00  0.00    +0.000 C 
ATOM     27  C   UNL     1       7.563   6.008  18.159  0.00  0.00    +0.000 C 
ATOM     28  C   UNL     1       6.661   6.976  17.406  0.00  0.00    +0.000 C 
ENDBRANCH  23  24
ENDBRANCH  22  23
ENDBRANCH  12  22
TORSDOF 5
ENDMDL
