MODEL 1
REMARK VINA RESULT:      -7.7      0.000      0.000
REMARK  Name = 
REMARK  6 active torsions:
REMARK  status: ('A' for Active; 'I' for Inactive)
REMARK    1  A    between atoms: O_1  and  C_2
REMARK    2  A    between atoms: C_2  and  C_3
REMARK    3  A    between atoms: C_3  and  O_4
REMARK    4  A    between atoms: C_3  and  C_5
REMARK    5  A    between atoms: C_7  and  C_8
REMARK    6  A    between atoms: C_15  and  C_16
REMARK                            x       y       z     vdW  Elec       q    Type
REMARK                         _______ _______ _______ _____ _____    ______ ____
ROOT
ATOM      1  C   UNL     1       6.793   4.925  18.191  0.00  0.00    +0.000 A 
ATOM      2  C   UNL     1       5.608   4.682  18.839  0.00  0.00    +0.000 A 
ATOM      3  C   UNL     1       4.608   4.053  18.112  0.00  0.00    +0.000 A 
ATOM      4  N   UNL     1       4.789   3.697  16.817  0.00  0.00    +0.000 NA
ATOM      5  C   UNL     1       5.977   3.969  16.248  0.00  0.00    +0.000 A 
ATOM      6  N   UNL     1       6.984   4.565  16.911  0.00  0.00    +0.000 NA
ENDROOT
BRANCH   3   7
ATOM      7  C   UNL     1       3.282   3.772  18.702  0.00  0.00    +0.000 A 
ATOM      8  C   UNL     1       2.773   4.566  19.745  0.00  0.00    +0.000 A 
ATOM      9  C   UNL     1       1.532   4.292  20.328  0.00  0.00    +0.000 A 
ATOM     10  C   UNL     1       0.768   3.218  19.877  0.00  0.00    +0.000 A 
ATOM     11  C   UNL     1       1.243   2.420  18.842  0.00  0.00    +0.000 A 
ATOM     12  C   UNL     1       2.483   2.696  18.262  0.00  0.00    +0.000 A 
ENDBRANCH   3   7
BRANCH   5  13
ATOM     13  C   UNL     1       6.254   3.644  14.802  0.00  0.00    +0.000 C 
ATOM     14  C   UNL     1       5.418   4.128  13.646  0.00  0.00    +0.000 C 
ATOM     15  C   UNL     1       6.739   4.781  13.922  0.00  0.00    +0.000 C 
ENDBRANCH   5  13
BRANCH   1  16
ATOM     16  C   UNL     1       7.910   5.667  18.892  0.00  0.00    +0.000 C 
BRANCH  16  17
ATOM     17  O   UNL     1       7.688   5.567  20.307  0.00  0.00    +0.000 OA
ATOM     18  H   UNL     1       8.402   5.012  20.667  0.00  0.00    +0.000 HD
ENDBRANCH  16  17
BRANCH  16  19
ATOM     19  C   UNL     1       7.989   7.138  18.434  0.00  0.00    +0.000 C 
BRANCH  19  20
ATOM     20  O   UNL     1       7.847   7.241  17.018  0.00  0.00    +0.000 OA
ATOM     21  H   UNL     1       7.065   6.711  16.782  0.00  0.00    +0.000 HD
ENDBRANCH  19  20
ENDBRANCH  16  19
ENDBRANCH   1  16
TORSDOF 6
ENDMDL
MODEL 2
REMARK VINA RESULT:      -7.6      0.618      1.335
REMARK  Name = 
REMARK  6 active torsions:
REMARK  status: ('A' for Active; 'I' for Inactive)
REMARK    1  A    between atoms: O_1  and  C_2
REMARK    2  A    between atoms: C_2  and  C_3
REMARK    3  A    between atoms: C_3  and  O_4
REMARK    4  A    between atoms: C_3  and  C_5
REMARK    5  A    between atoms: C_7  and  C_8
REMARK    6  A    between atoms: C_15  and  C_16
REMARK                            x       y       z     vdW  Elec       q    Type
REMARK                         _______ _______ _______ _____ _____    ______ ____
ROOT
ATOM      1  C   UNL     1       6.676   5.338  18.147  0.00  0.00    +0.000 A 
ATOM      2  C   UNL     1       5.574   4.986  18.885  0.00  0.00    +0.000 A 
ATOM      3  C   UNL     1       4.452   4.567  18.183  0.00  0.00    +0.000 A 
ATOM      4  N   UNL     1       4.442   4.512  16.829  0.00  0.00    +0.000 NA
ATOM      5  C   UNL     1       5.560   4.874  16.174  0.00  0.00    +0.000 A 
ATOM      6  N   UNL     1       6.678   5.276  16.806  0.00  0.00    +0.000 NA
ENDROOT
BRANCH   3   7
ATOM      7  C   UNL     1       3.200   4.195  18.876  0.00  0.00    +0.000 A 
ATOM      8  C   UNL     1       2.300   3.283  18.298  0.00  0.00    +0.000 A 
ATOM      9  C   UNL     1       1.100   2.945  18.933  0.00  0.00    +0.000 A 
ATOM     10  C   UNL     1       0.776   3.508  20.164  0.00  0.00    +0.000 A 
ATOM     11  C   UNL     1       1.652   4.408  20.763  0.00  0.00    +0.000 A 
ATOM     12  C   UNL     1       2.849   4.744  20.126  0.00  0.00    +0.000 A 
ENDBRANCH   3   7
BRANCH   5  13
ATOM     13  C   UNL     1       5.626   4.881  14.668  0.00  0.00    +0.000 C 
ATOM     14  C   UNL     1       6.905   4.831  13.872  0.00  0.00    +0.000 C 
ATOM     15  C   UNL     1       6.065   3.595  13.993  0.00  0.00    +0.000 C 
ENDBRANCH   5  13
BRANCH   1  16
ATOM     16  C   UNL     1       7.916   5.871  18.832  0.00  0.00    +0.000 C 
BRANCH  16  17
ATOM     17  O   UNL     1       7.817   5.561  20.231  0.00  0.00    +0.000 OA
ATOM     18  H   UNL     1       8.538   4.940  20.435  0.00  0.00    +0.000 HD
ENDBRANCH  16  17
BRANCH  16  19
ATOM     19  C   UNL     1       8.088   7.386  18.599  0.00  0.00    +0.000 C 
BRANCH  19  20
ATOM     20  O   UNL     1       7.859   7.722  17.231  0.00  0.00    +0.000 OA
ATOM     21  H   UNL     1       8.167   6.960  16.707  0.00  0.00    +0.000 HD
ENDBRANCH  19  20
ENDBRANCH  16  19
ENDBRANCH   1  16
TORSDOF 6
ENDMDL
MODEL 3
REMARK VINA RESULT:      -7.4      0.877      1.099
REMARK  Name = 
REMARK  6 active torsions:
REMARK  status: ('A' for Active; 'I' for Inactive)
REMARK    1  A    between atoms: O_1  and  C_2
REMARK    2  A    between atoms: C_2  and  C_3
REMARK    3  A    between atoms: C_3  and  O_4
REMARK    4  A    between atoms: C_3  and  C_5
REMARK    5  A    between atoms: C_7  and  C_8
REMARK    6  A    between atoms: C_15  and  C_16
REMARK                            x       y       z     vdW  Elec       q    Type
REMARK                         _______ _______ _______ _____ _____    ______ ____
ROOT
ATOM      1  C   UNL     1       7.014   4.993  17.971  0.00  0.00    +0.000 A 
ATOM      2  C   UNL     1       5.796   4.636  18.491  0.00  0.00    +0.000 A 
ATOM      3  C   UNL     1       4.913   3.984  17.643  0.00  0.00    +0.000 A 
ATOM      4  N   UNL     1       5.234   3.715  16.354  0.00  0.00    +0.000 NA
ATOM      5  C   UNL     1       6.447   4.095  15.914  0.00  0.00    +0.000 A 
ATOM      6  N   UNL     1       7.345   4.719  16.698  0.00  0.00    +0.000 NA
ENDROOT
BRANCH   3   7
ATOM      7  C   UNL     1       3.561   3.583  18.091  0.00  0.00    +0.000 A 
ATOM      8  C   UNL     1       3.368   2.404  18.832  0.00  0.00    +0.000 A 
ATOM      9  C   UNL     1       2.091   2.003  19.237  0.00  0.00    +0.000 A 
ATOM     10  C   UNL     1       0.978   2.775  18.914  0.00  0.00    +0.000 A 
ATOM     11  C   UNL     1       1.141   3.950  18.187  0.00  0.00    +0.000 A 
ATOM     12  C   UNL     1       2.418   4.348  17.784  0.00  0.00    +0.000 A 
ENDBRANCH   3   7
BRANCH   5  13
ATOM     13  C   UNL     1       6.876   3.871  14.486  0.00  0.00    +0.000 C 
ATOM     14  C   UNL     1       5.933   3.818  13.313  0.00  0.00    +0.000 C 
ATOM     15  C   UNL     1       6.757   5.051  13.539  0.00  0.00    +0.000 C 
ENDBRANCH   5  13
BRANCH   1  16
ATOM     16  C   UNL     1       8.007   5.767  18.810  0.00  0.00    +0.000 C 
BRANCH  16  17
ATOM     17  O   UNL     1       7.686   5.547  20.192  0.00  0.00    +0.000 OA
ATOM     18  H   UNL     1       7.617   4.585  20.317  0.00  0.00    +0.000 HD
ENDBRANCH  16  17
BRANCH  16  19
ATOM     19  C   UNL     1       7.999   7.269  18.458  0.00  0.00    +0.000 C 
BRANCH  19  20
ATOM     20  O   UNL     1       7.636   7.473  17.093  0.00  0.00    +0.000 OA
ATOM     21  H   UNL     1       8.162   8.231  16.781  0.00  0.00    +0.000 HD
ENDBRANCH  19  20
ENDBRANCH  16  19
ENDBRANCH   1  16
TORSDOF 6
ENDMDL
MODEL 4
REMARK VINA RESULT:      -7.3      3.295      4.412
REMARK  Name = 
REMARK  6 active torsions:
REMARK  status: ('A' for Active; 'I' for Inactive)
REMARK    1  A    between atoms: O_1  and  C_2
REMARK    2  A    between atoms: C_2  and  C_3
REMARK    3  A    between atoms: C_3  and  O_4
REMARK    4  A    between atoms: C_3  and  C_5
REMARK    5  A    between atoms: C_7  and  C_8
REMARK    6  A    between atoms: C_15  and  C_16
REMARK                            x       y       z     vdW  Elec       q    Type
REMARK                         _______ _______ _______ _____ _____    ______ ____
ROOT
ATOM      1  C   UNL     1       3.913   3.960  18.640  0.00  0.00    +0.000 A 
ATOM      2  C   UNL     1       3.120   5.009  19.034  0.00  0.00    +0.000 A 
ATOM      3  C   UNL     1       3.258   6.201  18.337  0.00  0.00    +0.000 A 
ATOM      4  N   UNL     1       4.139   6.328  17.315  0.00  0.00    +0.000 NA
ATOM      5  C   UNL     1       4.883   5.257  16.986  0.00  0.00    +0.000 A 
ATOM      6  N   UNL     1       4.780   4.075  17.620  0.00  0.00    +0.000 NA
ENDROOT
BRANCH   3   7
ATOM      7  C   UNL     1       2.476   7.403  18.697  0.00  0.00    +0.000 A 
ATOM      8  C   UNL     1       1.973   7.572  19.999  0.00  0.00    +0.000 A 
ATOM      9  C   UNL     1       1.210   8.693  20.342  0.00  0.00    +0.000 A 
ATOM     10  C   UNL     1       0.937   9.673  19.392  0.00  0.00    +0.000 A 
ATOM     11  C   UNL     1       1.428   9.535  18.098  0.00  0.00    +0.000 A 
ATOM     12  C   UNL     1       2.190   8.415  17.758  0.00  0.00    +0.000 A 
ENDBRANCH   3   7
BRANCH   5  13
ATOM     13  C   UNL     1       5.915   5.317  15.889  0.00  0.00    +0.000 C 
ATOM     14  C   UNL     1       6.606   4.114  15.303  0.00  0.00    +0.000 C 
ATOM     15  C   UNL     1       5.507   4.779  14.530  0.00  0.00    +0.000 C 
ENDBRANCH   5  13
BRANCH   1  16
ATOM     16  C   UNL     1       3.874   2.647  19.392  0.00  0.00    +0.000 C 
BRANCH  16  17
ATOM     17  O   UNL     1       5.174   2.422  19.959  0.00  0.00    +0.000 OA
ATOM     18  H   UNL     1       5.823   2.779  19.328  0.00  0.00    +0.000 HD
ENDBRANCH  16  17
BRANCH  16  19
ATOM     19  C   UNL     1       3.445   1.482  18.477  0.00  0.00    +0.000 C 
BRANCH  19  20
ATOM     20  O   UNL     1       2.510   1.921  17.493  0.00  0.00    +0.000 OA
ATOM     21  H   UNL     1       2.836   1.586  16.638  0.00  0.00    +0.000 HD
ENDBRANCH  19  20
ENDBRANCH  16  19
ENDBRANCH   1  16
TORSDOF 6
ENDMDL
MODEL 5
REMARK VINA RESULT:      -7.3      3.179      5.058
REMARK  Name = 
REMARK  6 active torsions:
REMARK  status: ('A' for Active; 'I' for Inactive)
REMARK    1  A    between atoms: O_1  and  C_2
REMARK    2  A    between atoms: C_2  and  C_3
REMARK    3  A    between atoms: C_3  and  O_4
REMARK    4  A    between atoms: C_3  and  C_5
REMARK    5  A    between atoms: C_7  and  C_8
REMARK    6  A    between atoms: C_15  and  C_16
REMARK                            x       y       z     vdW  Elec       q    Type
REMARK                         _______ _______ _______ _____ _____    ______ ____
ROOT
ATOM      1  C   UNL     1       4.729   4.842  17.750  0.00  0.00    +0.000 A 
ATOM      2  C   UNL     1       4.123   6.072  17.804  0.00  0.00    +0.000 A 
ATOM      3  C   UNL     1       3.148   6.254  18.775  0.00  0.00    +0.000 A 
ATOM      4  N   UNL     1       2.803   5.260  19.629  0.00  0.00    +0.000 NA
ATOM      5  C   UNL     1       3.440   4.081  19.515  0.00  0.00    +0.000 A 
ATOM      6  N   UNL     1       4.401   3.856  18.601  0.00  0.00    +0.000 NA
ENDROOT
BRANCH   3   7
ATOM      7  C   UNL     1       2.410   7.529  18.902  0.00  0.00    +0.000 A 
ATOM      8  C   UNL     1       1.813   7.899  20.120  0.00  0.00    +0.000 A 
ATOM      9  C   UNL     1       1.090   9.090  20.242  0.00  0.00    +0.000 A 
ATOM     10  C   UNL     1       0.953   9.942  19.150  0.00  0.00    +0.000 A 
ATOM     11  C   UNL     1       1.539   9.605  17.934  0.00  0.00    +0.000 A 
ATOM     12  C   UNL     1       2.261   8.415  17.815  0.00  0.00    +0.000 A 
ENDBRANCH   3   7
BRANCH   5  13
ATOM     13  C   UNL     1       3.095   2.908  20.397  0.00  0.00    +0.000 C 
ATOM     14  C   UNL     1       2.207   2.987  21.611  0.00  0.00    +0.000 C 
ATOM     15  C   UNL     1       1.665   2.402  20.342  0.00  0.00    +0.000 C 
ENDBRANCH   5  13
BRANCH   1  16
ATOM     16  C   UNL     1       5.752   4.541  16.677  0.00  0.00    +0.000 C 
BRANCH  16  17
ATOM     17  O   UNL     1       5.567   3.180  16.257  0.00  0.00    +0.000 OA
ATOM     18  H   UNL     1       5.468   2.645  17.064  0.00  0.00    +0.000 HD
ENDBRANCH  16  17
BRANCH  16  19
ATOM     19  C   UNL     1       7.190   4.787  17.179  0.00  0.00    +0.000 C 
BRANCH  19  20
ATOM     20  O   UNL     1       7.371   4.260  18.492  0.00  0.00    +0.000 OA
ATOM     21  H   UNL     1       8.322   4.071  18.583  0.00  0.00    +0.000 HD
ENDBRANCH  19  20
ENDBRANCH  16  19
ENDBRANCH   1  16
TORSDOF 6
ENDMDL
MODEL 6
REMARK VINA RESULT:      -7.3      3.477      4.875
REMARK  Name = 
REMARK  6 active torsions:
REMARK  status: ('A' for Active; 'I' for Inactive)
REMARK    1  A    between atoms: O_1  and  C_2
REMARK    2  A    between atoms: C_2  and  C_3
REMARK    3  A    between atoms: C_3  and  O_4
REMARK    4  A    between atoms: C_3  and  C_5
REMARK    5  A    between atoms: C_7  and  C_8
REMARK    6  A    between atoms: C_15  and  C_16
REMARK                            x       y       z     vdW  Elec       q    Type
REMARK                         _______ _______ _______ _____ _____    ______ ____
ROOT
ATOM      1  C   UNL     1       3.740   4.391  17.763  0.00  0.00    +0.000 A 
ATOM      2  C   UNL     1       2.822   5.327  18.168  0.00  0.00    +0.000 A 
ATOM      3  C   UNL     1       3.242   6.649  18.204  0.00  0.00    +0.000 A 
ATOM      4  N   UNL     1       4.504   7.002  17.860  0.00  0.00    +0.000 NA
ATOM      5  C   UNL     1       5.349   6.029  17.474  0.00  0.00    +0.000 A 
ATOM      6  N   UNL     1       4.989   4.734  17.409  0.00  0.00    +0.000 NA
ENDROOT
BRANCH   3   7
ATOM      7  C   UNL     1       2.345   7.735  18.655  0.00  0.00    +0.000 A 
ATOM      8  C   UNL     1       1.889   7.788  19.984  0.00  0.00    +0.000 A 
ATOM      9  C   UNL     1       1.019   8.796  20.412  0.00  0.00    +0.000 A 
ATOM     10  C   UNL     1       0.588   9.776  19.522  0.00  0.00    +0.000 A 
ATOM     11  C   UNL     1       1.029   9.751  18.203  0.00  0.00    +0.000 A 
ATOM     12  C   UNL     1       1.899   8.744  17.777  0.00  0.00    +0.000 A 
ENDBRANCH   3   7
BRANCH   5  13
ATOM     13  C   UNL     1       6.782   6.324  17.110  0.00  0.00    +0.000 C 
ATOM     14  C   UNL     1       7.518   7.579  17.499  0.00  0.00    +0.000 C 
ATOM     15  C   UNL     1       7.796   6.305  18.239  0.00  0.00    +0.000 C 
ENDBRANCH   5  13
BRANCH   1  16
ATOM     16  C   UNL     1       3.382   2.920  17.761  0.00  0.00    +0.000 C 
BRANCH  16  17
ATOM     17  O   UNL     1       1.963   2.810  17.575  0.00  0.00    +0.000 OA
ATOM     18  H   UNL     1       1.633   2.206  18.263  0.00  0.00    +0.000 HD
ENDBRANCH  16  17
BRANCH  16  19
ATOM     19  C   UNL     1       3.839   2.223  19.059  0.00  0.00    +0.000 C 
BRANCH  19  20
ATOM     20  O   UNL     1       5.118   2.703  19.474  0.00  0.00    +0.000 OA
ATOM     21  H   UNL     1       5.476   3.211  18.725  0.00  0.00    +0.000 HD
ENDBRANCH  19  20
ENDBRANCH  16  19
ENDBRANCH   1  16
TORSDOF 6
ENDMDL
MODEL 7
REMARK VINA RESULT:      -7.3      3.059      4.970
REMARK  Name = 
REMARK  6 active torsions:
REMARK  status: ('A' for Active; 'I' for Inactive)
REMARK    1  A    between atoms: O_1  and  C_2
REMARK    2  A    between atoms: C_2  and  C_3
REMARK    3  A    between atoms: C_3  and  O_4
REMARK    4  A    between atoms: C_3  and  C_5
REMARK    5  A    between atoms: C_7  and  C_8
REMARK    6  A    between atoms: C_15  and  C_16
REMARK                            x       y       z     vdW  Elec       q    Type
REMARK                         _______ _______ _______ _____ _____    ______ ____
ROOT
ATOM      1  C   UNL     1       4.873   4.771  18.167  0.00  0.00    +0.000 A 
ATOM      2  C   UNL     1       4.275   6.006  18.138  0.00  0.00    +0.000 A 
ATOM      3  C   UNL     1       3.188   6.201  18.977  0.00  0.00    +0.000 A 
ATOM      4  N   UNL     1       2.731   5.216  19.787  0.00  0.00    +0.000 NA
ATOM      5  C   UNL     1       3.367   4.031  19.761  0.00  0.00    +0.000 A 
ATOM      6  N   UNL     1       4.433   3.793  18.976  0.00  0.00    +0.000 NA
ENDROOT
BRANCH   3   7
ATOM      7  C   UNL     1       2.450   7.483  19.003  0.00  0.00    +0.000 A 
ATOM      8  C   UNL     1       1.778   7.905  20.164  0.00  0.00    +0.000 A 
ATOM      9  C   UNL     1       1.055   9.101  20.189  0.00  0.00    +0.000 A 
ATOM     10  C   UNL     1       0.992   9.907  19.055  0.00  0.00    +0.000 A 
ATOM     11  C   UNL     1       1.653   9.517  17.895  0.00  0.00    +0.000 A 
ATOM     12  C   UNL     1       2.374   8.321  17.872  0.00  0.00    +0.000 A 
ENDBRANCH   3   7
BRANCH   5  13
ATOM     13  C   UNL     1       2.905   2.867  20.599  0.00  0.00    +0.000 C 
ATOM     14  C   UNL     1       1.862   2.958  21.682  0.00  0.00    +0.000 C 
ATOM     15  C   UNL     1       1.495   2.361  20.357  0.00  0.00    +0.000 C 
ENDBRANCH   5  13
BRANCH   1  16
ATOM     16  C   UNL     1       6.021   4.455  17.233  0.00  0.00    +0.000 C 
BRANCH  16  17
ATOM     17  O   UNL     1       7.193   4.227  18.033  0.00  0.00    +0.000 OA
ATOM     18  H   UNL     1       7.556   5.101  18.259  0.00  0.00    +0.000 HD
ENDBRANCH  16  17
BRANCH  16  19
ATOM     19  C   UNL     1       6.247   5.585  16.208  0.00  0.00    +0.000 C 
BRANCH  19  20
ATOM     20  O   UNL     1       7.541   5.486  15.614  0.00  0.00    +0.000 OA
ATOM     21  H   UNL     1       8.179   5.739  16.304  0.00  0.00    +0.000 HD
ENDBRANCH  19  20
ENDBRANCH  16  19
ENDBRANCH   1  16
TORSDOF 6
ENDMDL
MODEL 8
REMARK VINA RESULT:      -7.2      3.384      4.573
REMARK  Name = 
REMARK  6 active torsions:
REMARK  status: ('A' for Active; 'I' for Inactive)
REMARK    1  A    between atoms: O_1  and  C_2
REMARK    2  A    between atoms: C_2  and  C_3
REMARK    3  A    between atoms: C_3  and  O_4
REMARK    4  A    between atoms: C_3  and  C_5
REMARK    5  A    between atoms: C_7  and  C_8
REMARK    6  A    between atoms: C_15  and  C_16
REMARK                            x       y       z     vdW  Elec       q    Type
REMARK                         _______ _______ _______ _____ _____    ______ ____
ROOT
ATOM      1  C   UNL     1       3.921   4.078  18.646  0.00  0.00    +0.000 A 
ATOM      2  C   UNL     1       3.085   5.090  19.048  0.00  0.00    +0.000 A 
ATOM      3  C   UNL     1       3.210   6.308  18.395  0.00  0.00    +0.000 A 
ATOM      4  N   UNL     1       4.119   6.496  17.408  0.00  0.00    +0.000 NA
ATOM      5  C   UNL     1       4.904   5.458  17.069  0.00  0.00    +0.000 A 
ATOM      6  N   UNL     1       4.817   4.252  17.660  0.00  0.00    +0.000 NA
ENDROOT
BRANCH   3   7
ATOM      7  C   UNL     1       2.381   7.475  18.769  0.00  0.00    +0.000 A 
ATOM      8  C   UNL     1       2.041   8.453  17.818  0.00  0.00    +0.000 A 
ATOM      9  C   UNL     1       1.281   9.573  18.169  0.00  0.00    +0.000 A 
ATOM     10  C   UNL     1       0.839   9.739  19.479  0.00  0.00    +0.000 A 
ATOM     11  C   UNL     1       1.155   8.783  20.439  0.00  0.00    +0.000 A 
ATOM     12  C   UNL     1       1.914   7.665  20.086  0.00  0.00    +0.000 A 
ENDBRANCH   3   7
BRANCH   5  13
ATOM     13  C   UNL     1       5.969   5.585  16.009  0.00  0.00    +0.000 C 
ATOM     14  C   UNL     1       6.838   4.450  15.535  0.00  0.00    +0.000 C 
ATOM     15  C   UNL     1       5.699   4.910  14.677  0.00  0.00    +0.000 C 
ENDBRANCH   5  13
BRANCH   1  16
ATOM     16  C   UNL     1       3.897   2.741  19.353  0.00  0.00    +0.000 C 
BRANCH  16  17
ATOM     17  O   UNL     1       5.230   2.451  19.800  0.00  0.00    +0.000 OA
ATOM     18  H   UNL     1       5.154   1.787  20.507  0.00  0.00    +0.000 HD
ENDBRANCH  16  17
BRANCH  16  19
ATOM     19  C   UNL     1       3.352   1.625  18.438  0.00  0.00    +0.000 C 
BRANCH  19  20
ATOM     20  O   UNL     1       1.938   1.492  18.579  0.00  0.00    +0.000 OA
ATOM     21  H   UNL     1       1.761   0.539  18.676  0.00  0.00    +0.000 HD
ENDBRANCH  19  20
ENDBRANCH  16  19
ENDBRANCH   1  16
TORSDOF 6
ENDMDL
MODEL 9
REMARK VINA RESULT:      -7.2      3.159      5.087
REMARK  Name = 
REMARK  6 active torsions:
REMARK  status: ('A' for Active; 'I' for Inactive)
REMARK    1  A    between atoms: O_1  and  C_2
REMARK    2  A    between atoms: C_2  and  C_3
REMARK    3  A    between atoms: C_3  and  O_4
REMARK    4  A    between atoms: C_3  and  C_5
REMARK    5  A    between atoms: C_7  and  C_8
REMARK    6  A    between atoms: C_15  and  C_16
REMARK                            x       y       z     vdW  Elec       q    Type
REMARK                         _______ _______ _______ _____ _____    ______ ____
ROOT
ATOM      1  C   UNL     1       4.812   4.828  17.838  0.00  0.00    +0.000 A 
ATOM      2  C   UNL     1       4.201   6.058  17.865  0.00  0.00    +0.000 A 
ATOM      3  C   UNL     1       3.192   6.241  18.799  0.00  0.00    +0.000 A 
ATOM      4  N   UNL     1       2.820   5.251  19.646  0.00  0.00    +0.000 NA
ATOM      5  C   UNL     1       3.463   4.073  19.560  0.00  0.00    +0.000 A 
ATOM      6  N   UNL     1       4.457   3.846  18.682  0.00  0.00    +0.000 NA
ENDROOT
BRANCH   3   7
ATOM      7  C   UNL     1       2.447   7.515  18.893  0.00  0.00    +0.000 A 
ATOM      8  C   UNL     1       2.395   8.403  17.804  0.00  0.00    +0.000 A 
ATOM      9  C   UNL     1       1.715   9.622  17.893  0.00  0.00    +0.000 A 
ATOM     10  C   UNL     1       1.067   9.979  19.072  0.00  0.00    +0.000 A 
ATOM     11  C   UNL     1       1.097   9.117  20.164  0.00  0.00    +0.000 A 
ATOM     12  C   UNL     1       1.776   7.900  20.072  0.00  0.00    +0.000 A 
ENDBRANCH   3   7
BRANCH   5  13
ATOM     13  C   UNL     1       3.090   2.903  20.435  0.00  0.00    +0.000 C 
ATOM     14  C   UNL     1       2.113   2.973  21.579  0.00  0.00    +0.000 C 
ATOM     15  C   UNL     1       1.685   2.351  20.285  0.00  0.00    +0.000 C 
ENDBRANCH   5  13
BRANCH   1  16
ATOM     16  C   UNL     1       5.874   4.525  16.804  0.00  0.00    +0.000 C 
BRANCH  16  17
ATOM     17  O   UNL     1       5.697   3.166  16.373  0.00  0.00    +0.000 OA
ATOM     18  H   UNL     1       6.257   3.043  15.587  0.00  0.00    +0.000 HD
ENDBRANCH  16  17
BRANCH  16  19
ATOM     19  C   UNL     1       7.293   4.763  17.360  0.00  0.00    +0.000 C 
BRANCH  19  20
ATOM     20  O   UNL     1       7.329   4.561  18.772  0.00  0.00    +0.000 OA
ATOM     21  H   UNL     1       7.497   5.434  19.169  0.00  0.00    +0.000 HD
ENDBRANCH  19  20
ENDBRANCH  16  19
ENDBRANCH   1  16
TORSDOF 6
ENDMDL
