MODEL 1
REMARK VINA RESULT:      -8.1      0.000      0.000
REMARK  Name = 
REMARK  8 active torsions:
REMARK  status: ('A' for Active; 'I' for Inactive)
REMARK    1  A    between atoms: C_1  and  O_2
REMARK    2  A    between atoms: O_2  and  C_3
REMARK    3  A    between atoms: C_7  and  C_8
REMARK    4  A    between atoms: C_8  and  C_9
REMARK    5  A    between atoms: C_21  and  O_22
REMARK    6  A    between atoms: O_22  and  C_23
REMARK    7  A    between atoms: C_24  and  O_25
REMARK    8  A    between atoms: O_25  and  C_26
REMARK                            x       y       z     vdW  Elec       q    Type
REMARK                         _______ _______ _______ _____ _____    ______ ____
ROOT
ATOM      1  C   UNL     1       2.937   3.403  18.717  0.00  0.00    +0.000 C 
ATOM      2  O   UNL     1       2.668   2.387  19.363  0.00  0.00    +0.000 OA
ATOM      3  N   UNL     1       2.563   4.677  19.152  0.00  0.00    +0.000 N 
ATOM      4  C   UNL     1       1.819   4.778  20.425  0.00  0.00    +0.000 C 
ATOM      5  C   UNL     1       1.810   6.204  21.036  0.00  0.00    +0.000 C 
ATOM      6  N   UNL     1       1.498   7.216  20.005  0.00  0.00    +0.000 N 
ATOM      7  C   UNL     1       1.062   8.463  20.422  0.00  0.00    +0.000 A 
ATOM      8  N   UNL     1       0.447   8.539  21.611  0.00  0.00    +0.000 NA
ATOM      9  C   UNL     1       0.013   9.731  22.019  0.00  0.00    +0.000 A 
ATOM     10  N   UNL     1      -0.740   9.725  23.202  0.00  0.00    +0.000 N 
ATOM     11  C   UNL     1       0.236  10.914  21.322  0.00  0.00    +0.000 A 
ATOM     12  C   UNL     1      -0.070  12.183  21.849  0.00  0.00    +0.000 A 
ATOM     13  C   UNL     1       0.055  13.345  21.094  0.00  0.00    +0.000 A 
ATOM     14  C   UNL     1       0.461  13.233  19.761  0.00  0.00    +0.000 A 
ATOM     15  C   UNL     1       0.819  11.952  19.265  0.00  0.00    +0.000 A 
ATOM     16  C   UNL     1       0.763  10.772  20.045  0.00  0.00    +0.000 A 
ATOM     17  N   UNL     1       1.181   9.545  19.612  0.00  0.00    +0.000 NA
ATOM     18  C   UNL     1       2.391   7.157  18.849  0.00  0.00    +0.000 C 
ATOM     19  C   UNL     1       2.276   5.763  18.204  0.00  0.00    +0.000 C 
ATOM     20  H   UNL     1      -0.865   8.752  23.468  0.00  0.00    +0.000 HD
ATOM     21  H   UNL     1      -1.639  10.171  23.031  0.00  0.00    +0.000 HD
ENDROOT
BRANCH  13  22
ATOM     22  O   UNL     1      -0.278  14.453  21.823  0.00  0.00    +0.000 OA
ATOM     23  C   UNL     1      -1.637  14.741  22.104  0.00  0.00    +0.000 C 
ENDBRANCH  13  22
BRANCH  14  24
ATOM     24  O   UNL     1       0.540  14.399  19.056  0.00  0.00    +0.000 OA
ATOM     25  C   UNL     1       1.721  15.182  19.043  0.00  0.00    +0.000 C 
ENDBRANCH  14  24
BRANCH   1  26
ATOM     26  C   UNL     1       3.790   3.305  17.451  0.00  0.00    +0.000 C 
BRANCH  26  31
ATOM     27  C   UNL     1       6.878   5.154  16.166  0.00  0.00    +0.000 A 
ATOM     28  C   UNL     1       7.477   5.557  17.360  0.00  0.00    +0.000 A 
ATOM     29  C   UNL     1       6.892   5.243  18.586  0.00  0.00    +0.000 A 
ATOM     30  C   UNL     1       5.707   4.506  18.631  0.00  0.00    +0.000 A 
ATOM     31  C   UNL     1       5.100   4.065  17.448  0.00  0.00    +0.000 A 
ATOM     32  C   UNL     1       5.686   4.426  16.215  0.00  0.00    +0.000 A 
BRANCH  27  34
ATOM     33  C   UNL     1       7.208   4.880  13.823  0.00  0.00    +0.000 C 
ATOM     34  O   UNL     1       7.552   5.531  15.038  0.00  0.00    +0.000 OA
ENDBRANCH  27  34
ENDBRANCH  26  31
ENDBRANCH   1  26
TORSDOF 5
ENDMDL
MODEL 2
REMARK VINA RESULT:      -7.9      1.840      2.352
REMARK  Name = 
REMARK  8 active torsions:
REMARK  status: ('A' for Active; 'I' for Inactive)
REMARK    1  A    between atoms: C_1  and  O_2
REMARK    2  A    between atoms: O_2  and  C_3
REMARK    3  A    between atoms: C_7  and  C_8
REMARK    4  A    between atoms: C_8  and  C_9
REMARK    5  A    between atoms: C_21  and  O_22
REMARK    6  A    between atoms: O_22  and  C_23
REMARK    7  A    between atoms: C_24  and  O_25
REMARK    8  A    between atoms: O_25  and  C_26
REMARK                            x       y       z     vdW  Elec       q    Type
REMARK                         _______ _______ _______ _____ _____    ______ ____
ROOT
ATOM      1  C   UNL     1       3.065   5.377  18.880  0.00  0.00    +0.000 C 
ATOM      2  O   UNL     1       2.832   4.371  19.554  0.00  0.00    +0.000 OA
ATOM      3  N   UNL     1       2.532   6.627  19.206  0.00  0.00    +0.000 N 
ATOM      4  C   UNL     1       1.663   6.714  20.397  0.00  0.00    +0.000 C 
ATOM      5  C   UNL     1       1.461   8.160  20.924  0.00  0.00    +0.000 C 
ATOM      6  N   UNL     1       1.156   9.086  19.813  0.00  0.00    +0.000 N 
ATOM      7  C   UNL     1       0.566  10.301  20.117  0.00  0.00    +0.000 A 
ATOM      8  N   UNL     1      -0.166  10.372  21.238  0.00  0.00    +0.000 NA
ATOM      9  C   UNL     1      -0.747  11.533  21.538  0.00  0.00    +0.000 A 
ATOM     10  N   UNL     1      -1.607  11.509  22.645  0.00  0.00    +0.000 N 
ATOM     11  C   UNL     1      -0.571  12.698  20.798  0.00  0.00    +0.000 A 
ATOM     12  C   UNL     1      -1.045  13.954  21.222  0.00  0.00    +0.000 A 
ATOM     13  C   UNL     1      -0.959  15.085  20.417  0.00  0.00    +0.000 A 
ATOM     14  C   UNL     1      -0.417  14.951  19.135  0.00  0.00    +0.000 A 
ATOM     15  C   UNL     1       0.107  13.690  18.747  0.00  0.00    +0.000 A 
ATOM     16  C   UNL     1       0.087  12.549  19.585  0.00  0.00    +0.000 A 
ATOM     17  N   UNL     1       0.659  11.351  19.262  0.00  0.00    +0.000 NA
ATOM     18  C   UNL     1       2.157   9.061  18.749  0.00  0.00    +0.000 C 
ATOM     19  C   UNL     1       2.237   7.633  18.175  0.00  0.00    +0.000 C 
ATOM     20  H   UNL     1      -1.665  10.542  22.954  0.00  0.00    +0.000 HD
ATOM     21  H   UNL     1      -2.524  11.854  22.368  0.00  0.00    +0.000 HD
ENDROOT
BRANCH  13  22
ATOM     22  O   UNL     1      -1.463  16.188  21.049  0.00  0.00    +0.000 OA
ATOM     23  C   UNL     1      -2.830  16.532  20.901  0.00  0.00    +0.000 C 
ENDBRANCH  13  22
BRANCH  14  24
ATOM     24  O   UNL     1      -0.381  16.085  18.375  0.00  0.00    +0.000 OA
ATOM     25  C   UNL     1       0.732  16.961  18.399  0.00  0.00    +0.000 C 
ENDBRANCH  14  24
BRANCH   1  26
ATOM     26  C   UNL     1       4.041   5.305  17.703  0.00  0.00    +0.000 C 
BRANCH  26  31
ATOM     27  C   UNL     1       7.197   7.460  17.670  0.00  0.00    +0.000 A 
ATOM     28  C   UNL     1       8.051   6.715  18.485  0.00  0.00    +0.000 A 
ATOM     29  C   UNL     1       7.619   5.519  19.055  0.00  0.00    +0.000 A 
ATOM     30  C   UNL     1       6.330   5.045  18.802  0.00  0.00    +0.000 A 
ATOM     31  C   UNL     1       5.462   5.759  17.966  0.00  0.00    +0.000 A 
ATOM     32  C   UNL     1       5.904   6.988  17.428  0.00  0.00    +0.000 A 
BRANCH  27  34
ATOM     33  C   UNL     1       8.424   9.457  18.099  0.00  0.00    +0.000 C 
ATOM     34  O   UNL     1       7.745   8.613  17.180  0.00  0.00    +0.000 OA
ENDBRANCH  27  34
ENDBRANCH  26  31
ENDBRANCH   1  26
TORSDOF 5
ENDMDL
MODEL 3
REMARK VINA RESULT:      -7.8      0.882      1.539
REMARK  Name = 
REMARK  8 active torsions:
REMARK  status: ('A' for Active; 'I' for Inactive)
REMARK    1  A    between atoms: C_1  and  O_2
REMARK    2  A    between atoms: O_2  and  C_3
REMARK    3  A    between atoms: C_7  and  C_8
REMARK    4  A    between atoms: C_8  and  C_9
REMARK    5  A    between atoms: C_21  and  O_22
REMARK    6  A    between atoms: O_22  and  C_23
REMARK    7  A    between atoms: C_24  and  O_25
REMARK    8  A    between atoms: O_25  and  C_26
REMARK                            x       y       z     vdW  Elec       q    Type
REMARK                         _______ _______ _______ _____ _____    ______ ____
ROOT
ATOM      1  C   UNL     1       2.886   3.383  18.407  0.00  0.00    +0.000 C 
ATOM      2  O   UNL     1       2.784   2.368  19.100  0.00  0.00    +0.000 OA
ATOM      3  N   UNL     1       2.536   4.647  18.889  0.00  0.00    +0.000 N 
ATOM      4  C   UNL     1       2.026   4.738  20.272  0.00  0.00    +0.000 C 
ATOM      5  C   UNL     1       2.059   6.173  20.862  0.00  0.00    +0.000 C 
ATOM      6  N   UNL     1       1.522   7.152  19.892  0.00  0.00    +0.000 N 
ATOM      7  C   UNL     1       1.110   8.385  20.368  0.00  0.00    +0.000 A 
ATOM      8  N   UNL     1       0.712   8.455  21.647  0.00  0.00    +0.000 NA
ATOM      9  C   UNL     1       0.302   9.634  22.114  0.00  0.00    +0.000 A 
ATOM     10  N   UNL     1      -0.228   9.616  23.412  0.00  0.00    +0.000 N 
ATOM     11  C   UNL     1       0.342  10.813  21.378  0.00  0.00    +0.000 A 
ATOM     12  C   UNL     1       0.075  12.076  21.938  0.00  0.00    +0.000 A 
ATOM     13  C   UNL     1       0.010  13.229  21.162  0.00  0.00    +0.000 A 
ATOM     14  C   UNL     1       0.179  13.111  19.778  0.00  0.00    +0.000 A 
ATOM     15  C   UNL     1       0.502  11.839  19.239  0.00  0.00    +0.000 A 
ATOM     16  C   UNL     1       0.640  10.672  20.029  0.00  0.00    +0.000 A 
ATOM     17  N   UNL     1       1.032   9.457  19.540  0.00  0.00    +0.000 NA
ATOM     18  C   UNL     1       2.198   7.111  18.597  0.00  0.00    +0.000 C 
ATOM     19  C   UNL     1       2.035   5.702  17.996  0.00  0.00    +0.000 C 
ATOM     20  H   UNL     1      -0.259   8.644  23.706  0.00  0.00    +0.000 HD
ATOM     21  H   UNL     1      -1.163  10.018  23.400  0.00  0.00    +0.000 HD
ENDROOT
BRANCH  13  22
ATOM     22  O   UNL     1      -0.239  14.334  21.927  0.00  0.00    +0.000 OA
ATOM     23  C   UNL     1      -1.573  14.728  22.197  0.00  0.00    +0.000 C 
ENDBRANCH  13  22
BRANCH  14  24
ATOM     24  O   UNL     1       0.076  14.267  19.059  0.00  0.00    +0.000 OA
ATOM     25  C   UNL     1       1.187  15.126  18.870  0.00  0.00    +0.000 C 
ENDBRANCH  14  24
BRANCH   1  26
ATOM     26  C   UNL     1       3.504   3.300  17.009  0.00  0.00    +0.000 C 
BRANCH  26  31
ATOM     27  C   UNL     1       6.955   4.689  17.888  0.00  0.00    +0.000 A 
ATOM     28  C   UNL     1       7.523   4.842  16.622  0.00  0.00    +0.000 A 
ATOM     29  C   UNL     1       6.806   4.496  15.478  0.00  0.00    +0.000 A 
ATOM     30  C   UNL     1       5.502   4.008  15.588  0.00  0.00    +0.000 A 
ATOM     31  C   UNL     1       4.898   3.870  16.844  0.00  0.00    +0.000 A 
ATOM     32  C   UNL     1       5.654   4.189  17.993  0.00  0.00    +0.000 A 
BRANCH  27  34
ATOM     33  C   UNL     1       8.088   6.442  19.037  0.00  0.00    +0.000 C 
ATOM     34  O   UNL     1       7.767   5.062  18.922  0.00  0.00    +0.000 OA
ENDBRANCH  27  34
ENDBRANCH  26  31
ENDBRANCH   1  26
TORSDOF 5
ENDMDL
MODEL 4
REMARK VINA RESULT:      -7.6      1.869      9.829
REMARK  Name = 
REMARK  8 active torsions:
REMARK  status: ('A' for Active; 'I' for Inactive)
REMARK    1  A    between atoms: C_1  and  O_2
REMARK    2  A    between atoms: O_2  and  C_3
REMARK    3  A    between atoms: C_7  and  C_8
REMARK    4  A    between atoms: C_8  and  C_9
REMARK    5  A    between atoms: C_21  and  O_22
REMARK    6  A    between atoms: O_22  and  C_23
REMARK    7  A    between atoms: C_24  and  O_25
REMARK    8  A    between atoms: O_25  and  C_26
REMARK                            x       y       z     vdW  Elec       q    Type
REMARK                         _______ _______ _______ _____ _____    ______ ____
ROOT
ATOM      1  C   UNL     1      -0.231  13.097  19.855  0.00  0.00    +0.000 C 
ATOM      2  O   UNL     1      -0.725  13.451  20.928  0.00  0.00    +0.000 OA
ATOM      3  N   UNL     1       0.252  11.801  19.654  0.00  0.00    +0.000 N 
ATOM      4  C   UNL     1       0.159  10.851  20.781  0.00  0.00    +0.000 C 
ATOM      5  C   UNL     1       0.318   9.364  20.365  0.00  0.00    +0.000 C 
ATOM      6  N   UNL     1       1.465   9.194  19.449  0.00  0.00    +0.000 N 
ATOM      7  C   UNL     1       1.996   7.925  19.293  0.00  0.00    +0.000 A 
ATOM      8  N   UNL     1       1.842   7.059  20.305  0.00  0.00    +0.000 NA
ATOM      9  C   UNL     1       2.357   5.837  20.172  0.00  0.00    +0.000 A 
ATOM     10  N   UNL     1       2.284   5.025  21.312  0.00  0.00    +0.000 N 
ATOM     11  C   UNL     1       2.971   5.381  19.010  0.00  0.00    +0.000 A 
ATOM     12  C   UNL     1       3.350   4.039  18.820  0.00  0.00    +0.000 A 
ATOM     13  C   UNL     1       4.063   3.625  17.700  0.00  0.00    +0.000 A 
ATOM     14  C   UNL     1       4.443   4.587  16.759  0.00  0.00    +0.000 A 
ATOM     15  C   UNL     1       4.004   5.925  16.939  0.00  0.00    +0.000 A 
ATOM     16  C   UNL     1       3.218   6.343  18.040  0.00  0.00    +0.000 A 
ATOM     17  N   UNL     1       2.717   7.606  18.188  0.00  0.00    +0.000 NA
ATOM     18  C   UNL     1       1.394  10.055  18.270  0.00  0.00    +0.000 C 
ATOM     19  C   UNL     1       1.360  11.524  18.728  0.00  0.00    +0.000 C 
ATOM     20  H   UNL     1       1.902   5.598  22.060  0.00  0.00    +0.000 HD
ATOM     21  H   UNL     1       3.217   4.695  21.551  0.00  0.00    +0.000 HD
ENDROOT
BRANCH  13  22
ATOM     22  O   UNL     1       4.297   2.278  17.725  0.00  0.00    +0.000 OA
ATOM     23  C   UNL     1       3.599   1.449  18.638  0.00  0.00    +0.000 C 
ENDBRANCH  13  22
BRANCH  14  24
ATOM     24  O   UNL     1       5.166   4.134  15.693  0.00  0.00    +0.000 OA
ATOM     25  C   UNL     1       6.411   4.709  15.341  0.00  0.00    +0.000 C 
ENDBRANCH  14  24
BRANCH   1  26
ATOM     26  C   UNL     1      -0.224  14.052  18.659  0.00  0.00    +0.000 C 
BRANCH  26  31
ATOM     27  C   UNL     1       2.397  16.755  19.319  0.00  0.00    +0.000 A 
ATOM     28  C   UNL     1       1.633  17.916  19.205  0.00  0.00    +0.000 A 
ATOM     29  C   UNL     1       0.272  17.842  18.911  0.00  0.00    +0.000 A 
ATOM     30  C   UNL     1      -0.343  16.600  18.744  0.00  0.00    +0.000 A 
ATOM     31  C   UNL     1       0.395  15.417  18.880  0.00  0.00    +0.000 A 
ATOM     32  C   UNL     1       1.779  15.514  19.139  0.00  0.00    +0.000 A 
BRANCH  27  34
ATOM     33  C   UNL     1       4.639  15.950  19.246  0.00  0.00    +0.000 C 
ATOM     34  O   UNL     1       3.717  16.970  19.606  0.00  0.00    +0.000 OA
ENDBRANCH  27  34
ENDBRANCH  26  31
ENDBRANCH   1  26
TORSDOF 5
ENDMDL
MODEL 5
REMARK VINA RESULT:      -7.6      1.915      9.362
REMARK  Name = 
REMARK  8 active torsions:
REMARK  status: ('A' for Active; 'I' for Inactive)
REMARK    1  A    between atoms: C_1  and  O_2
REMARK    2  A    between atoms: O_2  and  C_3
REMARK    3  A    between atoms: C_7  and  C_8
REMARK    4  A    between atoms: C_8  and  C_9
REMARK    5  A    between atoms: C_21  and  O_22
REMARK    6  A    between atoms: O_22  and  C_23
REMARK    7  A    between atoms: C_24  and  O_25
REMARK    8  A    between atoms: O_25  and  C_26
REMARK                            x       y       z     vdW  Elec       q    Type
REMARK                         _______ _______ _______ _____ _____    ______ ____
ROOT
ATOM      1  C   UNL     1      -0.019  13.101  19.755  0.00  0.00    +0.000 C 
ATOM      2  O   UNL     1      -0.570  13.451  20.802  0.00  0.00    +0.000 OA
ATOM      3  N   UNL     1       0.435  11.795  19.558  0.00  0.00    +0.000 N 
ATOM      4  C   UNL     1       0.240  10.827  20.657  0.00  0.00    +0.000 C 
ATOM      5  C   UNL     1       0.379   9.343  20.220  0.00  0.00    +0.000 C 
ATOM      6  N   UNL     1       1.578   9.154  19.376  0.00  0.00    +0.000 N 
ATOM      7  C   UNL     1       2.077   7.871  19.227  0.00  0.00    +0.000 A 
ATOM      8  N   UNL     1       1.832   6.992  20.209  0.00  0.00    +0.000 NA
ATOM      9  C   UNL     1       2.316   5.757  20.083  0.00  0.00    +0.000 A 
ATOM     10  N   UNL     1       2.144   4.925  21.199  0.00  0.00    +0.000 N 
ATOM     11  C   UNL     1       2.989   5.303  18.954  0.00  0.00    +0.000 A 
ATOM     12  C   UNL     1       3.337   3.953  18.760  0.00  0.00    +0.000 A 
ATOM     13  C   UNL     1       4.109   3.538  17.679  0.00  0.00    +0.000 A 
ATOM     14  C   UNL     1       4.579   4.505  16.785  0.00  0.00    +0.000 A 
ATOM     15  C   UNL     1       4.171   5.853  16.966  0.00  0.00    +0.000 A 
ATOM     16  C   UNL     1       3.329   6.275  18.022  0.00  0.00    +0.000 A 
ATOM     17  N   UNL     1       2.859   7.551  18.165  0.00  0.00    +0.000 NA
ATOM     18  C   UNL     1       1.610  10.039  18.214  0.00  0.00    +0.000 C 
ATOM     19  C   UNL     1       1.593  11.500  18.700  0.00  0.00    +0.000 C 
ATOM     20  H   UNL     1       1.732   5.496  21.933  0.00  0.00    +0.000 HD
ATOM     21  H   UNL     1       3.049   4.561  21.490  0.00  0.00    +0.000 HD
ENDROOT
BRANCH  13  22
ATOM     22  O   UNL     1       4.299   2.184  17.691  0.00  0.00    +0.000 OA
ATOM     23  C   UNL     1       3.524   1.362  18.547  0.00  0.00    +0.000 C 
ENDBRANCH  13  22
BRANCH  14  24
ATOM     24  O   UNL     1       5.356   4.050  15.759  0.00  0.00    +0.000 OA
ATOM     25  C   UNL     1       6.695   4.480  15.592  0.00  0.00    +0.000 C 
ENDBRANCH  14  24
BRANCH   1  26
ATOM     26  C   UNL     1       0.096  14.079  18.584  0.00  0.00    +0.000 C 
BRANCH  26  31
ATOM     27  C   UNL     1       3.719  15.213  18.138  0.00  0.00    +0.000 A 
ATOM     28  C   UNL     1       3.614  16.581  18.392  0.00  0.00    +0.000 A 
ATOM     29  C   UNL     1       2.381  17.151  18.702  0.00  0.00    +0.000 A 
ATOM     30  C   UNL     1       1.237  16.353  18.779  0.00  0.00    +0.000 A 
ATOM     31  C   UNL     1       1.319  14.972  18.556  0.00  0.00    +0.000 A 
ATOM     32  C   UNL     1       2.570  14.419  18.205  0.00  0.00    +0.000 A 
BRANCH  27  34
ATOM     33  C   UNL     1       6.067  15.561  18.336  0.00  0.00    +0.000 C 
ATOM     34  O   UNL     1       4.983  14.786  17.842  0.00  0.00    +0.000 OA
ENDBRANCH  27  34
ENDBRANCH  26  31
ENDBRANCH   1  26
TORSDOF 5
ENDMDL
MODEL 6
REMARK VINA RESULT:      -7.6      1.833      9.712
REMARK  Name = 
REMARK  8 active torsions:
REMARK  status: ('A' for Active; 'I' for Inactive)
REMARK    1  A    between atoms: C_1  and  O_2
REMARK    2  A    between atoms: O_2  and  C_3
REMARK    3  A    between atoms: C_7  and  C_8
REMARK    4  A    between atoms: C_8  and  C_9
REMARK    5  A    between atoms: C_21  and  O_22
REMARK    6  A    between atoms: O_22  and  C_23
REMARK    7  A    between atoms: C_24  and  O_25
REMARK    8  A    between atoms: O_25  and  C_26
REMARK                            x       y       z     vdW  Elec       q    Type
REMARK                         _______ _______ _______ _____ _____    ______ ____
ROOT
ATOM      1  C   UNL     1      -0.532  13.045  20.532  0.00  0.00    +0.000 C 
ATOM      2  O   UNL     1      -1.064  13.310  21.613  0.00  0.00    +0.000 OA
ATOM      3  N   UNL     1      -0.016  11.778  20.252  0.00  0.00    +0.000 N 
ATOM      4  C   UNL     1      -0.118  10.746  21.304  0.00  0.00    +0.000 C 
ATOM      5  C   UNL     1       0.085   9.297  20.786  0.00  0.00    +0.000 C 
ATOM      6  N   UNL     1       1.261   9.218  19.894  0.00  0.00    +0.000 N 
ATOM      7  C   UNL     1       1.824   7.975  19.661  0.00  0.00    +0.000 A 
ATOM      8  N   UNL     1       1.661   7.035  20.603  0.00  0.00    +0.000 NA
ATOM      9  C   UNL     1       2.207   5.836  20.397  0.00  0.00    +0.000 A 
ATOM     10  N   UNL     1       2.121   4.941  21.473  0.00  0.00    +0.000 N 
ATOM     11  C   UNL     1       2.863   5.479  19.224  0.00  0.00    +0.000 A 
ATOM     12  C   UNL     1       3.277   4.162  18.948  0.00  0.00    +0.000 A 
ATOM     13  C   UNL     1       4.031   3.846  17.822  0.00  0.00    +0.000 A 
ATOM     14  C   UNL     1       4.415   4.882  16.965  0.00  0.00    +0.000 A 
ATOM     15  C   UNL     1       3.942   6.193  17.229  0.00  0.00    +0.000 A 
ATOM     16  C   UNL     1       3.116   6.514  18.334  0.00  0.00    +0.000 A 
ATOM     17  N   UNL     1       2.583   7.752  18.558  0.00  0.00    +0.000 NA
ATOM     18  C   UNL     1       1.204  10.161  18.779  0.00  0.00    +0.000 C 
ATOM     19  C   UNL     1       1.124  11.592  19.342  0.00  0.00    +0.000 C 
ATOM     20  H   UNL     1       1.705   5.450  22.248  0.00  0.00    +0.000 HD
ATOM     21  H   UNL     1       3.054   4.614  21.714  0.00  0.00    +0.000 HD
ENDROOT
BRANCH  13  22
ATOM     22  O   UNL     1       4.294   2.506  17.756  0.00  0.00    +0.000 OA
ATOM     23  C   UNL     1       3.413   1.575  18.363  0.00  0.00    +0.000 C 
ENDBRANCH  13  22
BRANCH  14  24
ATOM     24  O   UNL     1       5.178   4.523  15.891  0.00  0.00    +0.000 OA
ATOM     25  C   UNL     1       5.611   5.474  14.936  0.00  0.00    +0.000 C 
ENDBRANCH  14  24
BRANCH   1  26
ATOM     26  C   UNL     1      -0.513  14.086  19.410  0.00  0.00    +0.000 C 
BRANCH  26  31
ATOM     27  C   UNL     1       1.725  17.011  18.388  0.00  0.00    +0.000 A 
ATOM     28  C   UNL     1       2.677  17.001  19.408  0.00  0.00    +0.000 A 
ATOM     29  C   UNL     1       2.606  16.061  20.434  0.00  0.00    +0.000 A 
ATOM     30  C   UNL     1       1.587  15.105  20.441  0.00  0.00    +0.000 A 
ATOM     31  C   UNL     1       0.635  15.075  19.415  0.00  0.00    +0.000 A 
ATOM     32  C   UNL     1       0.700  16.060  18.405  0.00  0.00    +0.000 A 
BRANCH  27  34
ATOM     33  C   UNL     1       0.750  18.628  16.936  0.00  0.00    +0.000 C 
ATOM     34  O   UNL     1       1.909  17.987  17.449  0.00  0.00    +0.000 OA
ENDBRANCH  27  34
ENDBRANCH  26  31
ENDBRANCH   1  26
TORSDOF 5
ENDMDL
MODEL 7
REMARK VINA RESULT:      -7.5      2.421     10.355
REMARK  Name = 
REMARK  8 active torsions:
REMARK  status: ('A' for Active; 'I' for Inactive)
REMARK    1  A    between atoms: C_1  and  O_2
REMARK    2  A    between atoms: O_2  and  C_3
REMARK    3  A    between atoms: C_7  and  C_8
REMARK    4  A    between atoms: C_8  and  C_9
REMARK    5  A    between atoms: C_21  and  O_22
REMARK    6  A    between atoms: O_22  and  C_23
REMARK    7  A    between atoms: C_24  and  O_25
REMARK    8  A    between atoms: O_25  and  C_26
REMARK                            x       y       z     vdW  Elec       q    Type
REMARK                         _______ _______ _______ _____ _____    ______ ____
ROOT
ATOM      1  C   UNL     1      -1.070  12.076  22.314  0.00  0.00    +0.000 C 
ATOM      2  O   UNL     1      -1.588  12.078  23.433  0.00  0.00    +0.000 OA
ATOM      3  N   UNL     1      -0.486  10.929  21.771  0.00  0.00    +0.000 N 
ATOM      4  C   UNL     1      -0.501   9.698  22.587  0.00  0.00    +0.000 C 
ATOM      5  C   UNL     1      -0.224   8.403  21.777  0.00  0.00    +0.000 C 
ATOM      6  N   UNL     1       0.931   8.585  20.873  0.00  0.00    +0.000 N 
ATOM      7  C   UNL     1       1.560   7.454  20.381  0.00  0.00    +0.000 A 
ATOM      8  N   UNL     1       1.478   6.332  21.109  0.00  0.00    +0.000 NA
ATOM      9  C   UNL     1       2.089   5.239  20.652  0.00  0.00    +0.000 A 
ATOM     10  N   UNL     1       2.083   4.137  21.520  0.00  0.00    +0.000 N 
ATOM     11  C   UNL     1       2.735   5.173  19.422  0.00  0.00    +0.000 A 
ATOM     12  C   UNL     1       3.219   3.970  18.874  0.00  0.00    +0.000 A 
ATOM     13  C   UNL     1       3.961   3.941  17.697  0.00  0.00    +0.000 A 
ATOM     14  C   UNL     1       4.261   5.154  17.069  0.00  0.00    +0.000 A 
ATOM     15  C   UNL     1       3.717   6.351  17.605  0.00  0.00    +0.000 A 
ATOM     16  C   UNL     1       2.902   6.384  18.763  0.00  0.00    +0.000 A 
ATOM     17  N   UNL     1       2.303   7.512  19.246  0.00  0.00    +0.000 NA
ATOM     18  C   UNL     1       0.789   9.732  19.979  0.00  0.00    +0.000 C 
ATOM     19  C   UNL     1       0.639  11.008  20.827  0.00  0.00    +0.000 C 
ATOM     20  H   UNL     1       1.658   4.448  22.389  0.00  0.00    +0.000 HD
ATOM     21  H   UNL     1       3.040   3.827  21.676  0.00  0.00    +0.000 HD
ENDROOT
BRANCH  13  22
ATOM     22  O   UNL     1       4.301   2.663  17.352  0.00  0.00    +0.000 OA
ATOM     23  C   UNL     1       3.787   1.565  18.084  0.00  0.00    +0.000 C 
ENDBRANCH  13  22
BRANCH  14  24
ATOM     24  O   UNL     1       5.016   5.073  15.934  0.00  0.00    +0.000 OA
ATOM     25  C   UNL     1       6.375   5.471  15.915  0.00  0.00    +0.000 C 
ENDBRANCH  14  24
BRANCH   1  26
ATOM     26  C   UNL     1      -1.141  13.325  21.432  0.00  0.00    +0.000 C 
BRANCH  26  31
ATOM     27  C   UNL     1      -4.738  13.339  20.138  0.00  0.00    +0.000 A 
ATOM     28  C   UNL     1      -5.135  14.643  20.436  0.00  0.00    +0.000 A 
ATOM     29  C   UNL     1      -4.254  15.526  21.058  0.00  0.00    +0.000 A 
ATOM     30  C   UNL     1      -2.957  15.117  21.375  0.00  0.00    +0.000 A 
ATOM     31  C   UNL     1      -2.523  13.823  21.063  0.00  0.00    +0.000 A 
ATOM     32  C   UNL     1      -3.442  12.930  20.468  0.00  0.00    +0.000 A 
BRANCH  27  34
ATOM     33  C   UNL     1      -6.975  12.520  20.155  0.00  0.00    +0.000 C 
ATOM     34  O   UNL     1      -5.699  12.578  19.533  0.00  0.00    +0.000 OA
ENDBRANCH  27  34
ENDBRANCH  26  31
ENDBRANCH   1  26
TORSDOF 5
ENDMDL
MODEL 8
REMARK VINA RESULT:      -7.5      2.684     11.240
REMARK  Name = 
REMARK  8 active torsions:
REMARK  status: ('A' for Active; 'I' for Inactive)
REMARK    1  A    between atoms: C_1  and  O_2
REMARK    2  A    between atoms: O_2  and  C_3
REMARK    3  A    between atoms: C_7  and  C_8
REMARK    4  A    between atoms: C_8  and  C_9
REMARK    5  A    between atoms: C_21  and  O_22
REMARK    6  A    between atoms: O_22  and  C_23
REMARK    7  A    between atoms: C_24  and  O_25
REMARK    8  A    between atoms: O_25  and  C_26
REMARK                            x       y       z     vdW  Elec       q    Type
REMARK                         _______ _______ _______ _____ _____    ______ ____
ROOT
ATOM      1  C   UNL     1      -1.258  13.648  22.228  0.00  0.00    +0.000 C 
ATOM      2  O   UNL     1      -1.384  14.652  21.523  0.00  0.00    +0.000 OA
ATOM      3  N   UNL     1      -0.574  12.513  21.785  0.00  0.00    +0.000 N 
ATOM      4  C   UNL     1      -0.000  12.544  20.424  0.00  0.00    +0.000 C 
ATOM      5  C   UNL     1       1.072  11.451  20.169  0.00  0.00    +0.000 C 
ATOM      6  N   UNL     1       0.611  10.136  20.664  0.00  0.00    +0.000 N 
ATOM      7  C   UNL     1       1.237   8.999  20.181  0.00  0.00    +0.000 A 
ATOM      8  N   UNL     1       1.806   9.072  18.969  0.00  0.00    +0.000 NA
ATOM      9  C   UNL     1       2.403   7.982  18.489  0.00  0.00    +0.000 A 
ATOM     10  N   UNL     1       2.860   8.078  17.166  0.00  0.00    +0.000 N 
ATOM     11  C   UNL     1       2.542   6.798  19.206  0.00  0.00    +0.000 A 
ATOM     12  C   UNL     1       3.326   5.718  18.758  0.00  0.00    +0.000 A 
ATOM     13  C   UNL     1       3.362   4.502  19.433  0.00  0.00    +0.000 A 
ATOM     14  C   UNL     1       2.562   4.347  20.569  0.00  0.00    +0.000 A 
ATOM     15  C   UNL     1       1.822   5.464  21.037  0.00  0.00    +0.000 A 
ATOM     16  C   UNL     1       1.833   6.727  20.397  0.00  0.00    +0.000 A 
ATOM     17  N   UNL     1       1.194   7.836  20.878  0.00  0.00    +0.000 NA
ATOM     18  C   UNL     1       0.219  10.154  22.071  0.00  0.00    +0.000 C 
ATOM     19  C   UNL     1      -0.929  11.165  22.254  0.00  0.00    +0.000 C 
ATOM     20  H   UNL     1       2.554   8.980  16.813  0.00  0.00    +0.000 HD
ATOM     21  H   UNL     1       2.459   7.320  16.616  0.00  0.00    +0.000 HD
ENDROOT
BRANCH  13  22
ATOM     22  O   UNL     1       4.207   3.616  18.824  0.00  0.00    +0.000 OA
ATOM     23  C   UNL     1       3.971   3.210  17.487  0.00  0.00    +0.000 C 
ENDBRANCH  13  22
BRANCH  14  24
ATOM     24  O   UNL     1       2.611   3.126  21.178  0.00  0.00    +0.000 OA
ATOM     25  C   UNL     1       1.452   2.517  21.717  0.00  0.00    +0.000 C 
ENDBRANCH  14  24
BRANCH   1  26
ATOM     26  C   UNL     1      -1.769  13.653  23.671  0.00  0.00    +0.000 C 
BRANCH  26  31
ATOM     27  C   UNL     1      -5.450  14.680  23.658  0.00  0.00    +0.000 A 
ATOM     28  C   UNL     1      -6.066  13.511  24.105  0.00  0.00    +0.000 A 
ATOM     29  C   UNL     1      -5.306  12.382  24.409  0.00  0.00    +0.000 A 
ATOM     30  C   UNL     1      -3.916  12.418  24.284  0.00  0.00    +0.000 A 
ATOM     31  C   UNL     1      -3.269  13.587  23.864  0.00  0.00    +0.000 A 
ATOM     32  C   UNL     1      -4.059  14.708  23.524  0.00  0.00    +0.000 A 
BRANCH  27  34
ATOM     33  C   UNL     1      -7.618  15.369  22.950  0.00  0.00    +0.000 C 
ATOM     34  O   UNL     1      -6.311  15.709  23.392  0.00  0.00    +0.000 OA
ENDBRANCH  27  34
ENDBRANCH  26  31
ENDBRANCH   1  26
TORSDOF 5
ENDMDL
MODEL 9
REMARK VINA RESULT:      -7.4      2.107      2.970
REMARK  Name = 
REMARK  8 active torsions:
REMARK  status: ('A' for Active; 'I' for Inactive)
REMARK    1  A    between atoms: C_1  and  O_2
REMARK    2  A    between atoms: O_2  and  C_3
REMARK    3  A    between atoms: C_7  and  C_8
REMARK    4  A    between atoms: C_8  and  C_9
REMARK    5  A    between atoms: C_21  and  O_22
REMARK    6  A    between atoms: O_22  and  C_23
REMARK    7  A    between atoms: C_24  and  O_25
REMARK    8  A    between atoms: O_25  and  C_26
REMARK                            x       y       z     vdW  Elec       q    Type
REMARK                         _______ _______ _______ _____ _____    ______ ____
ROOT
ATOM      1  C   UNL     1       2.347   6.450  19.459  0.00  0.00    +0.000 C 
ATOM      2  O   UNL     1       2.263   5.576  20.325  0.00  0.00    +0.000 OA
ATOM      3  N   UNL     1       1.965   7.772  19.701  0.00  0.00    +0.000 N 
ATOM      4  C   UNL     1       1.445   8.102  21.043  0.00  0.00    +0.000 C 
ATOM      5  C   UNL     1       1.441   9.621  21.360  0.00  0.00    +0.000 C 
ATOM      6  N   UNL     1       0.888  10.393  20.228  0.00  0.00    +0.000 N 
ATOM      7  C   UNL     1       0.445  11.683  20.469  0.00  0.00    +0.000 A 
ATOM      8  N   UNL     1       0.038  11.976  21.713  0.00  0.00    +0.000 NA
ATOM      9  C   UNL     1      -0.401  13.210  21.956  0.00  0.00    +0.000 A 
ATOM     10  N   UNL     1      -0.939  13.417  23.235  0.00  0.00    +0.000 N 
ATOM     11  C   UNL     1      -0.384  14.235  21.016  0.00  0.00    +0.000 A 
ATOM     12  C   UNL     1      -0.683  15.573  21.336  0.00  0.00    +0.000 A 
ATOM     13  C   UNL     1      -0.770  16.563  20.362  0.00  0.00    +0.000 A 
ATOM     14  C   UNL     1      -0.590  16.198  19.024  0.00  0.00    +0.000 A 
ATOM     15  C   UNL     1      -0.234  14.857  18.726  0.00  0.00    +0.000 A 
ATOM     16  C   UNL     1      -0.074  13.857  19.716  0.00  0.00    +0.000 A 
ATOM     17  N   UNL     1       0.348  12.583  19.459  0.00  0.00    +0.000 NA
ATOM     18  C   UNL     1       1.572  10.132  18.963  0.00  0.00    +0.000 C 
ATOM     19  C   UNL     1       1.445   8.634  18.629  0.00  0.00    +0.000 C 
ATOM     20  H   UNL     1      -0.949  12.515  23.701  0.00  0.00    +0.000 HD
ATOM     21  H   UNL     1      -1.883  13.788  23.147  0.00  0.00    +0.000 HD
ENDROOT
BRANCH  13  22
ATOM     22  O   UNL     1      -1.049  17.783  20.912  0.00  0.00    +0.000 OA
ATOM     23  C   UNL     1       0.001  18.613  21.378  0.00  0.00    +0.000 C 
ENDBRANCH  13  22
BRANCH  14  24
ATOM     24  O   UNL     1      -0.714  17.201  18.105  0.00  0.00    +0.000 OA
ATOM     25  C   UNL     1       0.411  17.915  17.627  0.00  0.00    +0.000 C 
ENDBRANCH  14  24
BRANCH   1  26
ATOM     26  C   UNL     1       2.975   6.128  18.101  0.00  0.00    +0.000 C 
BRANCH  26  31
ATOM     27  C   UNL     1       6.561   5.795  16.819  0.00  0.00    +0.000 A 
ATOM     28  C   UNL     1       7.245   5.472  17.991  0.00  0.00    +0.000 A 
ATOM     29  C   UNL     1       6.564   5.365  19.202  0.00  0.00    +0.000 A 
ATOM     30  C   UNL     1       5.182   5.562  19.250  0.00  0.00    +0.000 A 
ATOM     31  C   UNL     1       4.466   5.859  18.084  0.00  0.00    +0.000 A 
ATOM     32  C   UNL     1       5.179   6.003  16.874  0.00  0.00    +0.000 A 
BRANCH  27  34
ATOM     33  C   UNL     1       7.150   4.892  14.695  0.00  0.00    +0.000 C 
ATOM     34  O   UNL     1       7.349   5.872  15.704  0.00  0.00    +0.000 OA
ENDBRANCH  27  34
ENDBRANCH  26  31
ENDBRANCH   1  26
TORSDOF 5
ENDMDL
