MODEL 1
REMARK VINA RESULT:      -9.3      0.000      0.000
REMARK  Name = 
REMARK  10 active torsions:
REMARK  status: ('A' for Active; 'I' for Inactive)
REMARK    1  A    between atoms: C_1  and  O_2
REMARK    2  A    between atoms: O_2  and  C_3
REMARK    3  A    between atoms: C_9  and  O_10
REMARK    4  A    between atoms: O_10  and  C_11
REMARK    5  A    between atoms: C_11  and  C_12
REMARK    6  A    between atoms: N_14  and  C_15
REMARK    7  A    between atoms: C_17  and  N_18
REMARK    8  A    between atoms: C_20  and  C_21
REMARK    9  A    between atoms: C_28  and  C_29
REMARK   10  A    between atoms: C_29  and  O_30
REMARK                            x       y       z     vdW  Elec       q    Type
REMARK                         _______ _______ _______ _____ _____    ______ ____
ROOT
ATOM      1  C   UNL     1       1.406   7.766  20.676  0.00  0.00    +0.000 A 
ATOM      2  C   UNL     1       2.383   7.649  19.714  0.00  0.00    +0.000 A 
ATOM      3  N   UNL     1       2.629   6.312  19.658  0.00  0.00    +0.000 N 
ATOM      4  N   UNL     1       1.895   5.641  20.558  0.00  0.00    +0.000 NA
ATOM      5  N   UNL     1       1.130   6.523  21.186  0.00  0.00    +0.000 NA
ENDROOT
BRANCH   3   6
ATOM      6  C   UNL     1       3.502   5.601  18.764  0.00  0.00    +0.000 C 
ATOM      7  C   UNL     1       4.934   5.533  19.251  0.00  0.00    +0.000 C 
ATOM      8  C   UNL     1       5.491   4.367  18.450  0.00  0.00    +0.000 C 
ATOM      9  O   UNL     1       4.390   3.436  18.311  0.00  0.00    +0.000 OA
ATOM     10  C   UNL     1       3.150   4.132  18.593  0.00  0.00    +0.000 C 
BRANCH   8  11
ATOM     11  N   UNL     1       6.017   4.736  17.131  0.00  0.00    +0.000 N 
ATOM     12  C   UNL     1       5.544   4.125  15.984  0.00  0.00    +0.000 A 
ATOM     13  C   UNL     1       6.071   4.329  14.774  0.00  0.00    +0.000 A 
ATOM     14  C   UNL     1       5.579   3.662  13.535  0.00  0.00    +0.000 C 
ATOM     15  C   UNL     1       7.230   5.241  14.670  0.00  0.00    +0.000 A 
ATOM     16  O   UNL     1       7.836   5.401  13.616  0.00  0.00    +0.000 OA
ATOM     17  N   UNL     1       7.594   5.869  15.825  0.00  0.00    +0.000 N 
ATOM     18  C   UNL     1       7.118   5.587  17.079  0.00  0.00    +0.000 A 
ATOM     19  O   UNL     1       7.661   6.063  18.073  0.00  0.00    +0.000 OA
ATOM     20  H   UNL     1       8.401   6.469  15.774  0.00  0.00    +0.000 HD
ENDBRANCH   8  11
BRANCH  10  21
ATOM     21  C   UNL     1       2.144   3.898  17.461  0.00  0.00    +0.000 C 
BRANCH  21  22
ATOM     22  O   UNL     1       0.870   3.548  17.997  0.00  0.00    +0.000 OA
ATOM     23  H   UNL     1       1.023   3.195  18.892  0.00  0.00    +0.000 HD
ENDBRANCH  21  22
ENDBRANCH  10  21
ENDBRANCH   3   6
BRANCH   1  24
ATOM     24  C   UNL     1       0.707   8.986  21.154  0.00  0.00    +0.000 C 
BRANCH  24  25
ATOM     25  O   UNL     1       0.858  10.053  20.215  0.00  0.00    +0.000 OA
BRANCH  25  32
ATOM     26  C   UNL     1      -3.453  10.107  15.832  0.00  0.00    +0.000 A 
ATOM     27  C   UNL     1      -4.193  11.139  16.400  0.00  0.00    +0.000 A 
ATOM     28  C   UNL     1      -3.770  11.737  17.590  0.00  0.00    +0.000 A 
ATOM     29  C   UNL     1      -2.601  11.307  18.235  0.00  0.00    +0.000 A 
ATOM     30  C   UNL     1      -2.181  11.871  19.448  0.00  0.00    +0.000 A 
ATOM     31  C   UNL     1      -1.019  11.418  20.074  0.00  0.00    +0.000 A 
ATOM     32  C   UNL     1      -0.250  10.406  19.498  0.00  0.00    +0.000 A 
ATOM     33  C   UNL     1      -0.657   9.843  18.287  0.00  0.00    +0.000 A 
ATOM     34  C   UNL     1      -1.834  10.276  17.652  0.00  0.00    +0.000 A 
ATOM     35  C   UNL     1      -2.270   9.690  16.453  0.00  0.00    +0.000 A 
BRANCH  26  37
ATOM     36  C   UNL     1      -3.770  10.169  13.482  0.00  0.00    +0.000 C 
ATOM     37  O   UNL     1      -3.768   9.421  14.691  0.00  0.00    +0.000 OA
ENDBRANCH  26  37
ENDBRANCH  25  32
ENDBRANCH  24  25
ENDBRANCH   1  24
TORSDOF 8
ENDMDL
MODEL 2
REMARK VINA RESULT:      -8.8      2.129      3.907
REMARK  Name = 
REMARK  10 active torsions:
REMARK  status: ('A' for Active; 'I' for Inactive)
REMARK    1  A    between atoms: C_1  and  O_2
REMARK    2  A    between atoms: O_2  and  C_3
REMARK    3  A    between atoms: C_9  and  O_10
REMARK    4  A    between atoms: O_10  and  C_11
REMARK    5  A    between atoms: C_11  and  C_12
REMARK    6  A    between atoms: N_14  and  C_15
REMARK    7  A    between atoms: C_17  and  N_18
REMARK    8  A    between atoms: C_20  and  C_21
REMARK    9  A    between atoms: C_28  and  C_29
REMARK   10  A    between atoms: C_29  and  O_30
REMARK                            x       y       z     vdW  Elec       q    Type
REMARK                         _______ _______ _______ _____ _____    ______ ____
ROOT
ATOM      1  C   UNL     1       1.504   7.422  20.589  0.00  0.00    +0.000 A 
ATOM      2  C   UNL     1       2.463   7.352  19.604  0.00  0.00    +0.000 A 
ATOM      3  N   UNL     1       2.739   6.023  19.510  0.00  0.00    +0.000 N 
ATOM      4  N   UNL     1       2.041   5.313  20.408  0.00  0.00    +0.000 NA
ATOM      5  N   UNL     1       1.269   6.161  21.074  0.00  0.00    +0.000 NA
ENDROOT
BRANCH   3   6
ATOM      6  C   UNL     1       3.610   5.356  18.581  0.00  0.00    +0.000 C 
ATOM      7  C   UNL     1       5.062   5.360  19.009  0.00  0.00    +0.000 C 
ATOM      8  C   UNL     1       5.644   4.222  18.185  0.00  0.00    +0.000 C 
ATOM      9  O   UNL     1       4.585   3.237  18.089  0.00  0.00    +0.000 OA
ATOM     10  C   UNL     1       3.324   3.871  18.422  0.00  0.00    +0.000 C 
BRANCH   8  11
ATOM     11  N   UNL     1       6.097   4.615  16.846  0.00  0.00    +0.000 N 
ATOM     12  C   UNL     1       5.573   4.014  15.717  0.00  0.00    +0.000 A 
ATOM     13  C   UNL     1       6.034   4.241  14.484  0.00  0.00    +0.000 A 
ATOM     14  C   UNL     1       5.488   3.585  13.262  0.00  0.00    +0.000 C 
ATOM     15  C   UNL     1       7.176   5.169  14.334  0.00  0.00    +0.000 A 
ATOM     16  O   UNL     1       7.725   5.351  13.253  0.00  0.00    +0.000 OA
ATOM     17  N   UNL     1       7.591   5.786  15.478  0.00  0.00    +0.000 N 
ATOM     18  C   UNL     1       7.183   5.481  16.750  0.00  0.00    +0.000 A 
ATOM     19  O   UNL     1       7.772   5.950  17.722  0.00  0.00    +0.000 OA
ATOM     20  H   UNL     1       8.388   6.397  15.394  0.00  0.00    +0.000 HD
ENDBRANCH   8  11
BRANCH  10  21
ATOM     21  C   UNL     1       2.286   3.587  17.332  0.00  0.00    +0.000 C 
BRANCH  21  22
ATOM     22  O   UNL     1       0.978   3.529  17.897  0.00  0.00    +0.000 OA
ATOM     23  H   UNL     1       0.348   3.484  17.155  0.00  0.00    +0.000 HD
ENDBRANCH  21  22
ENDBRANCH  10  21
ENDBRANCH   3   6
BRANCH   1  24
ATOM     24  C   UNL     1       0.786   8.612  21.112  0.00  0.00    +0.000 C 
BRANCH  24  25
ATOM     25  O   UNL     1       0.275   9.404  20.036  0.00  0.00    +0.000 OA
BRANCH  25  32
ATOM     26  C   UNL     1      -2.005  14.078  23.316  0.00  0.00    +0.000 A 
ATOM     27  C   UNL     1      -2.786  14.584  22.282  0.00  0.00    +0.000 A 
ATOM     28  C   UNL     1      -2.800  13.952  21.035  0.00  0.00    +0.000 A 
ATOM     29  C   UNL     1      -2.027  12.806  20.801  0.00  0.00    +0.000 A 
ATOM     30  C   UNL     1      -2.001  12.181  19.547  0.00  0.00    +0.000 A 
ATOM     31  C   UNL     1      -1.214  11.046  19.338  0.00  0.00    +0.000 A 
ATOM     32  C   UNL     1      -0.452  10.510  20.375  0.00  0.00    +0.000 A 
ATOM     33  C   UNL     1      -0.477  11.122  21.630  0.00  0.00    +0.000 A 
ATOM     34  C   UNL     1      -1.249  12.276  21.852  0.00  0.00    +0.000 A 
ATOM     35  C   UNL     1      -1.251  12.919  23.100  0.00  0.00    +0.000 A 
BRANCH  26  37
ATOM     36  C   UNL     1      -3.067  15.123  25.160  0.00  0.00    +0.000 C 
ATOM     37  O   UNL     1      -1.880  14.612  24.568  0.00  0.00    +0.000 OA
ENDBRANCH  26  37
ENDBRANCH  25  32
ENDBRANCH  24  25
ENDBRANCH   1  24
TORSDOF 8
ENDMDL
MODEL 3
REMARK VINA RESULT:      -8.6      3.101      4.121
REMARK  Name = 
REMARK  10 active torsions:
REMARK  status: ('A' for Active; 'I' for Inactive)
REMARK    1  A    between atoms: C_1  and  O_2
REMARK    2  A    between atoms: O_2  and  C_3
REMARK    3  A    between atoms: C_9  and  O_10
REMARK    4  A    between atoms: O_10  and  C_11
REMARK    5  A    between atoms: C_11  and  C_12
REMARK    6  A    between atoms: N_14  and  C_15
REMARK    7  A    between atoms: C_17  and  N_18
REMARK    8  A    between atoms: C_20  and  C_21
REMARK    9  A    between atoms: C_28  and  C_29
REMARK   10  A    between atoms: C_29  and  O_30
REMARK                            x       y       z     vdW  Elec       q    Type
REMARK                         _______ _______ _______ _____ _____    ______ ____
ROOT
ATOM      1  C   UNL     1       1.477   7.412  20.522  0.00  0.00    +0.000 A 
ATOM      2  C   UNL     1       2.392   7.341  19.497  0.00  0.00    +0.000 A 
ATOM      3  N   UNL     1       2.758   6.031  19.475  0.00  0.00    +0.000 N 
ATOM      4  N   UNL     1       2.155   5.337  20.451  0.00  0.00    +0.000 NA
ATOM      5  N   UNL     1       1.355   6.174  21.099  0.00  0.00    +0.000 NA
ENDROOT
BRANCH   3   6
ATOM      6  C   UNL     1       3.632   5.363  18.549  0.00  0.00    +0.000 C 
ATOM      7  C   UNL     1       5.083   5.374  18.976  0.00  0.00    +0.000 C 
ATOM      8  C   UNL     1       5.670   4.235  18.157  0.00  0.00    +0.000 C 
ATOM      9  O   UNL     1       4.615   3.246  18.067  0.00  0.00    +0.000 OA
ATOM     10  C   UNL     1       3.352   3.875  18.397  0.00  0.00    +0.000 C 
BRANCH   8  11
ATOM     11  N   UNL     1       6.121   4.624  16.816  0.00  0.00    +0.000 N 
ATOM     12  C   UNL     1       5.610   4.005  15.691  0.00  0.00    +0.000 A 
ATOM     13  C   UNL     1       6.071   4.229  14.458  0.00  0.00    +0.000 A 
ATOM     14  C   UNL     1       5.539   3.553  13.240  0.00  0.00    +0.000 C 
ATOM     15  C   UNL     1       7.198   5.174  14.302  0.00  0.00    +0.000 A 
ATOM     16  O   UNL     1       7.748   5.355  13.222  0.00  0.00    +0.000 OA
ATOM     17  N   UNL     1       7.600   5.807  15.442  0.00  0.00    +0.000 N 
ATOM     18  C   UNL     1       7.193   5.507  16.716  0.00  0.00    +0.000 A 
ATOM     19  O   UNL     1       7.771   5.993  17.685  0.00  0.00    +0.000 OA
ATOM     20  H   UNL     1       8.387   6.430  15.356  0.00  0.00    +0.000 HD
ENDBRANCH   8  11
BRANCH  10  21
ATOM     21  C   UNL     1       2.315   3.582  17.308  0.00  0.00    +0.000 C 
BRANCH  21  22
ATOM     22  O   UNL     1       1.013   3.960  17.751  0.00  0.00    +0.000 OA
ATOM     23  H   UNL     1       0.774   4.775  17.273  0.00  0.00    +0.000 HD
ENDBRANCH  21  22
ENDBRANCH  10  21
ENDBRANCH   3   6
BRANCH   1  24
ATOM     24  C   UNL     1       0.700   8.583  21.002  0.00  0.00    +0.000 C 
BRANCH  24  25
ATOM     25  O   UNL     1       1.099   9.769  20.310  0.00  0.00    +0.000 OA
BRANCH  25  32
ATOM     26  C   UNL     1      -2.036  13.881  23.636  0.00  0.00    +0.000 A 
ATOM     27  C   UNL     1      -1.280  14.974  23.226  0.00  0.00    +0.000 A 
ATOM     28  C   UNL     1      -0.227  14.803  22.322  0.00  0.00    +0.000 A 
ATOM     29  C   UNL     1       0.091  13.532  21.820  0.00  0.00    +0.000 A 
ATOM     30  C   UNL     1       1.166  13.337  20.943  0.00  0.00    +0.000 A 
ATOM     31  C   UNL     1       1.466  12.059  20.465  0.00  0.00    +0.000 A 
ATOM     32  C   UNL     1       0.695  10.961  20.844  0.00  0.00    +0.000 A 
ATOM     33  C   UNL     1      -0.381  11.146  21.712  0.00  0.00    +0.000 A 
ATOM     34  C   UNL     1      -0.686  12.423  22.217  0.00  0.00    +0.000 A 
ATOM     35  C   UNL     1      -1.745  12.613  23.120  0.00  0.00    +0.000 A 
BRANCH  26  37
ATOM     36  C   UNL     1      -4.109  14.842  24.273  0.00  0.00    +0.000 C 
ATOM     37  O   UNL     1      -3.070  13.906  24.531  0.00  0.00    +0.000 OA
ENDBRANCH  26  37
ENDBRANCH  25  32
ENDBRANCH  24  25
ENDBRANCH   1  24
TORSDOF 8
ENDMDL
MODEL 4
REMARK VINA RESULT:      -8.5      2.139      3.110
REMARK  Name = 
REMARK  10 active torsions:
REMARK  status: ('A' for Active; 'I' for Inactive)
REMARK    1  A    between atoms: C_1  and  O_2
REMARK    2  A    between atoms: O_2  and  C_3
REMARK    3  A    between atoms: C_9  and  O_10
REMARK    4  A    between atoms: O_10  and  C_11
REMARK    5  A    between atoms: C_11  and  C_12
REMARK    6  A    between atoms: N_14  and  C_15
REMARK    7  A    between atoms: C_17  and  N_18
REMARK    8  A    between atoms: C_20  and  C_21
REMARK    9  A    between atoms: C_28  and  C_29
REMARK   10  A    between atoms: C_29  and  O_30
REMARK                            x       y       z     vdW  Elec       q    Type
REMARK                         _______ _______ _______ _____ _____    ______ ____
ROOT
ATOM      1  C   UNL     1       0.248   9.750  21.841  0.00  0.00    +0.000 A 
ATOM      2  C   UNL     1       1.269   9.584  20.934  0.00  0.00    +0.000 A 
ATOM      3  N   UNL     1       1.347   8.235  20.772  0.00  0.00    +0.000 N 
ATOM      4  N   UNL     1       0.471   7.596  21.561  0.00  0.00    +0.000 NA
ATOM      5  N   UNL     1      -0.220   8.518  22.219  0.00  0.00    +0.000 NA
ENDROOT
BRANCH   3   6
ATOM      6  C   UNL     1       2.187   7.490  19.874  0.00  0.00    +0.000 C 
ATOM      7  C   UNL     1       2.036   5.991  20.014  0.00  0.00    +0.000 C 
ATOM      8  C   UNL     1       2.594   5.486  18.693  0.00  0.00    +0.000 C 
ATOM      9  O   UNL     1       2.222   6.486  17.712  0.00  0.00    +0.000 OA
ATOM     10  C   UNL     1       1.868   7.710  18.403  0.00  0.00    +0.000 C 
BRANCH   8  11
ATOM     11  N   UNL     1       4.047   5.282  18.687  0.00  0.00    +0.000 N 
ATOM     12  C   UNL     1       4.888   6.201  18.089  0.00  0.00    +0.000 A 
ATOM     13  C   UNL     1       6.201   6.008  17.944  0.00  0.00    +0.000 A 
ATOM     14  C   UNL     1       7.114   6.985  17.285  0.00  0.00    +0.000 C 
ATOM     15  C   UNL     1       6.771   4.734  18.436  0.00  0.00    +0.000 A 
ATOM     16  O   UNL     1       7.944   4.434  18.248  0.00  0.00    +0.000 OA
ATOM     17  N   UNL     1       5.899   3.909  19.085  0.00  0.00    +0.000 N 
ATOM     18  C   UNL     1       4.539   4.063  19.147  0.00  0.00    +0.000 A 
ATOM     19  O   UNL     1       3.828   3.156  19.574  0.00  0.00    +0.000 OA
ATOM     20  H   UNL     1       6.267   3.024  19.397  0.00  0.00    +0.000 HD
ENDBRANCH   8  11
BRANCH  10  21
ATOM     21  C   UNL     1       2.636   8.895  17.808  0.00  0.00    +0.000 C 
BRANCH  21  22
ATOM     22  O   UNL     1       1.731   9.923  17.413  0.00  0.00    +0.000 OA
ATOM     23  H   UNL     1       1.442  10.378  18.225  0.00  0.00    +0.000 HD
ENDBRANCH  21  22
ENDBRANCH  10  21
ENDBRANCH   3   6
BRANCH   1  24
ATOM     24  C   UNL     1      -0.324  11.008  22.384  0.00  0.00    +0.000 C 
BRANCH  24  25
ATOM     25  O   UNL     1      -0.360  12.021  21.374  0.00  0.00    +0.000 OA
BRANCH  25  32
ATOM     26  C   UNL     1      -3.459  10.315  16.345  0.00  0.00    +0.000 A 
ATOM     27  C   UNL     1      -4.596  11.059  16.643  0.00  0.00    +0.000 A 
ATOM     28  C   UNL     1      -4.645  11.838  17.803  0.00  0.00    +0.000 A 
ATOM     29  C   UNL     1      -3.557  11.878  18.688  0.00  0.00    +0.000 A 
ATOM     30  C   UNL     1      -3.603  12.625  19.873  0.00  0.00    +0.000 A 
ATOM     31  C   UNL     1      -2.510  12.640  20.742  0.00  0.00    +0.000 A 
ATOM     32  C   UNL     1      -1.352  11.924  20.439  0.00  0.00    +0.000 A 
ATOM     33  C   UNL     1      -1.295  11.184  19.257  0.00  0.00    +0.000 A 
ATOM     34  C   UNL     1      -2.393  11.143  18.381  0.00  0.00    +0.000 A 
ATOM     35  C   UNL     1      -2.358  10.371  17.208  0.00  0.00    +0.000 A 
BRANCH  26  37
ATOM     36  C   UNL     1      -3.100  10.134  14.008  0.00  0.00    +0.000 C 
ATOM     37  O   UNL     1      -3.292   9.496  15.264  0.00  0.00    +0.000 OA
ENDBRANCH  26  37
ENDBRANCH  25  32
ENDBRANCH  24  25
ENDBRANCH   1  24
TORSDOF 8
ENDMDL
MODEL 5
REMARK VINA RESULT:      -8.4      2.333      3.614
REMARK  Name = 
REMARK  10 active torsions:
REMARK  status: ('A' for Active; 'I' for Inactive)
REMARK    1  A    between atoms: C_1  and  O_2
REMARK    2  A    between atoms: O_2  and  C_3
REMARK    3  A    between atoms: C_9  and  O_10
REMARK    4  A    between atoms: O_10  and  C_11
REMARK    5  A    between atoms: C_11  and  C_12
REMARK    6  A    between atoms: N_14  and  C_15
REMARK    7  A    between atoms: C_17  and  N_18
REMARK    8  A    between atoms: C_20  and  C_21
REMARK    9  A    between atoms: C_28  and  C_29
REMARK   10  A    between atoms: C_29  and  O_30
REMARK                            x       y       z     vdW  Elec       q    Type
REMARK                         _______ _______ _______ _____ _____    ______ ____
ROOT
ATOM      1  C   UNL     1       1.419   7.603  20.667  0.00  0.00    +0.000 A 
ATOM      2  C   UNL     1       2.384   7.512  19.689  0.00  0.00    +0.000 A 
ATOM      3  N   UNL     1       2.661   6.181  19.626  0.00  0.00    +0.000 N 
ATOM      4  N   UNL     1       1.958   5.490  20.535  0.00  0.00    +0.000 NA
ATOM      5  N   UNL     1       1.181   6.353  21.178  0.00  0.00    +0.000 NA
ENDROOT
BRANCH   3   6
ATOM      6  C   UNL     1       3.538   5.494  18.717  0.00  0.00    +0.000 C 
ATOM      7  C   UNL     1       4.985   5.498  19.160  0.00  0.00    +0.000 C 
ATOM      8  C   UNL     1       5.570   4.344  18.361  0.00  0.00    +0.000 C 
ATOM      9  O   UNL     1       4.508   3.362  18.273  0.00  0.00    +0.000 OA
ATOM     10  C   UNL     1       3.247   4.007  18.582  0.00  0.00    +0.000 C 
BRANCH   8  11
ATOM     11  N   UNL     1       6.038   4.711  17.020  0.00  0.00    +0.000 N 
ATOM     12  C   UNL     1       5.544   4.072  15.898  0.00  0.00    +0.000 A 
ATOM     13  C   UNL     1       6.022   4.276  14.668  0.00  0.00    +0.000 A 
ATOM     14  C   UNL     1       5.508   3.579  13.455  0.00  0.00    +0.000 C 
ATOM     15  C   UNL     1       7.148   5.222  14.512  0.00  0.00    +0.000 A 
ATOM     16  O   UNL     1       7.712   5.387  13.436  0.00  0.00    +0.000 OA
ATOM     17  N   UNL     1       7.533   5.875  15.647  0.00  0.00    +0.000 N 
ATOM     18  C   UNL     1       7.110   5.595  16.919  0.00  0.00    +0.000 A 
ATOM     19  O   UNL     1       7.673   6.099  17.888  0.00  0.00    +0.000 OA
ATOM     20  H   UNL     1       8.319   6.499  15.560  0.00  0.00    +0.000 HD
ENDBRANCH   8  11
BRANCH  10  21
ATOM     21  C   UNL     1       2.218   3.709  17.487  0.00  0.00    +0.000 C 
BRANCH  21  22
ATOM     22  O   UNL     1       1.860   2.329  17.508  0.00  0.00    +0.000 OA
ATOM     23  H   UNL     1       2.277   1.937  18.296  0.00  0.00    +0.000 HD
ENDBRANCH  21  22
ENDBRANCH  10  21
ENDBRANCH   3   6
BRANCH   1  24
ATOM     24  C   UNL     1       0.698   8.804  21.158  0.00  0.00    +0.000 C 
BRANCH  24  25
ATOM     25  O   UNL     1      -0.157   9.329  20.140  0.00  0.00    +0.000 OA
BRANCH  25  32
ATOM     26  C   UNL     1       2.419  14.732  18.735  0.00  0.00    +0.000 A 
ATOM     27  C   UNL     1       1.215  15.425  18.654  0.00  0.00    +0.000 A 
ATOM     28  C   UNL     1       0.005  14.767  18.894  0.00  0.00    +0.000 A 
ATOM     29  C   UNL     1      -0.019  13.401  19.212  0.00  0.00    +0.000 A 
ATOM     30  C   UNL     1      -1.224  12.717  19.419  0.00  0.00    +0.000 A 
ATOM     31  C   UNL     1      -1.221  11.354  19.726  0.00  0.00    +0.000 A 
ATOM     32  C   UNL     1      -0.019  10.656  19.842  0.00  0.00    +0.000 A 
ATOM     33  C   UNL     1       1.186  11.330  19.643  0.00  0.00    +0.000 A 
ATOM     34  C   UNL     1       1.200  12.698  19.317  0.00  0.00    +0.000 A 
ATOM     35  C   UNL     1       2.406  13.376  19.079  0.00  0.00    +0.000 A 
BRANCH  26  37
ATOM     36  C   UNL     1       3.783  16.663  18.549  0.00  0.00    +0.000 C 
ATOM     37  O   UNL     1       3.663  15.247  18.499  0.00  0.00    +0.000 OA
ENDBRANCH  26  37
ENDBRANCH  25  32
ENDBRANCH  24  25
ENDBRANCH   1  24
TORSDOF 8
ENDMDL
MODEL 6
REMARK VINA RESULT:      -8.4      2.542      3.375
REMARK  Name = 
REMARK  10 active torsions:
REMARK  status: ('A' for Active; 'I' for Inactive)
REMARK    1  A    between atoms: C_1  and  O_2
REMARK    2  A    between atoms: O_2  and  C_3
REMARK    3  A    between atoms: C_9  and  O_10
REMARK    4  A    between atoms: O_10  and  C_11
REMARK    5  A    between atoms: C_11  and  C_12
REMARK    6  A    between atoms: N_14  and  C_15
REMARK    7  A    between atoms: C_17  and  N_18
REMARK    8  A    between atoms: C_20  and  C_21
REMARK    9  A    between atoms: C_28  and  C_29
REMARK   10  A    between atoms: C_29  and  O_30
REMARK                            x       y       z     vdW  Elec       q    Type
REMARK                         _______ _______ _______ _____ _____    ______ ____
ROOT
ATOM      1  C   UNL     1       1.478   7.536  20.497  0.00  0.00    +0.000 A 
ATOM      2  C   UNL     1       2.387   7.442  19.467  0.00  0.00    +0.000 A 
ATOM      3  N   UNL     1       2.756   6.132  19.476  0.00  0.00    +0.000 N 
ATOM      4  N   UNL     1       2.161   5.462  20.474  0.00  0.00    +0.000 NA
ATOM      5  N   UNL     1       1.364   6.313  21.106  0.00  0.00    +0.000 NA
ENDROOT
BRANCH   3   6
ATOM      6  C   UNL     1       3.625   5.443  18.561  0.00  0.00    +0.000 C 
ATOM      7  C   UNL     1       5.077   5.453  18.987  0.00  0.00    +0.000 C 
ATOM      8  C   UNL     1       5.656   4.297  18.187  0.00  0.00    +0.000 C 
ATOM      9  O   UNL     1       4.596   3.312  18.114  0.00  0.00    +0.000 OA
ATOM     10  C   UNL     1       3.337   3.955  18.434  0.00  0.00    +0.000 C 
BRANCH   8  11
ATOM     11  N   UNL     1       6.108   4.660  16.840  0.00  0.00    +0.000 N 
ATOM     12  C   UNL     1       5.592   4.026  15.725  0.00  0.00    +0.000 A 
ATOM     13  C   UNL     1       6.054   4.226  14.488  0.00  0.00    +0.000 A 
ATOM     14  C   UNL     1       5.516   3.534  13.282  0.00  0.00    +0.000 C 
ATOM     15  C   UNL     1       7.188   5.160  14.316  0.00  0.00    +0.000 A 
ATOM     16  O   UNL     1       7.737   5.319  13.232  0.00  0.00    +0.000 OA
ATOM     17  N   UNL     1       7.595   5.809  15.445  0.00  0.00    +0.000 N 
ATOM     18  C   UNL     1       7.187   5.533  16.723  0.00  0.00    +0.000 A 
ATOM     19  O   UNL     1       7.769   6.032  17.684  0.00  0.00    +0.000 OA
ATOM     20  H   UNL     1       8.386   6.425  15.347  0.00  0.00    +0.000 HD
ENDBRANCH   8  11
BRANCH  10  21
ATOM     21  C   UNL     1       2.297   3.650  17.352  0.00  0.00    +0.000 C 
BRANCH  21  22
ATOM     22  O   UNL     1       0.988   3.617  17.918  0.00  0.00    +0.000 OA
ATOM     23  H   UNL     1       0.432   3.085  17.321  0.00  0.00    +0.000 HD
ENDBRANCH  21  22
ENDBRANCH  10  21
ENDBRANCH   3   6
BRANCH   1  24
ATOM     24  C   UNL     1       0.702   8.717  20.952  0.00  0.00    +0.000 C 
BRANCH  24  25
ATOM     25  O   UNL     1       0.422   9.589  19.854  0.00  0.00    +0.000 OA
BRANCH  25  32
ATOM     26  C   UNL     1      -0.405  15.644  19.183  0.00  0.00    +0.000 A 
ATOM     27  C   UNL     1      -0.665  15.883  20.529  0.00  0.00    +0.000 A 
ATOM     28  C   UNL     1      -0.644  14.830  21.448  0.00  0.00    +0.000 A 
ATOM     29  C   UNL     1      -0.368  13.519  21.033  0.00  0.00    +0.000 A 
ATOM     30  C   UNL     1      -0.378  12.446  21.935  0.00  0.00    +0.000 A 
ATOM     31  C   UNL     1      -0.110  11.148  21.494  0.00  0.00    +0.000 A 
ATOM     32  C   UNL     1       0.184  10.901  20.153  0.00  0.00    +0.000 A 
ATOM     33  C   UNL     1       0.203  11.964  19.249  0.00  0.00    +0.000 A 
ATOM     34  C   UNL     1      -0.082  13.274  19.673  0.00  0.00    +0.000 A 
ATOM     35  C   UNL     1      -0.102  14.344  18.764  0.00  0.00    +0.000 A 
BRANCH  26  37
ATOM     36  C   UNL     1       0.318  17.767  18.412  0.00  0.00    +0.000 C 
ATOM     37  O   UNL     1      -0.421  16.575  18.181  0.00  0.00    +0.000 OA
ENDBRANCH  26  37
ENDBRANCH  25  32
ENDBRANCH  24  25
ENDBRANCH   1  24
TORSDOF 8
ENDMDL
MODEL 7
REMARK VINA RESULT:      -8.3      4.220     11.234
REMARK  Name = 
REMARK  10 active torsions:
REMARK  status: ('A' for Active; 'I' for Inactive)
REMARK    1  A    between atoms: C_1  and  O_2
REMARK    2  A    between atoms: O_2  and  C_3
REMARK    3  A    between atoms: C_9  and  O_10
REMARK    4  A    between atoms: O_10  and  C_11
REMARK    5  A    between atoms: C_11  and  C_12
REMARK    6  A    between atoms: N_14  and  C_15
REMARK    7  A    between atoms: C_17  and  N_18
REMARK    8  A    between atoms: C_20  and  C_21
REMARK    9  A    between atoms: C_28  and  C_29
REMARK   10  A    between atoms: C_29  and  O_30
REMARK                            x       y       z     vdW  Elec       q    Type
REMARK                         _______ _______ _______ _____ _____    ______ ____
ROOT
ATOM      1  C   UNL     1       0.774  10.026  18.685  0.00  0.00    +0.000 A 
ATOM      2  C   UNL     1       0.795  10.860  19.779  0.00  0.00    +0.000 A 
ATOM      3  N   UNL     1      -0.481  11.324  19.863  0.00  0.00    +0.000 N 
ATOM      4  N   UNL     1      -1.239  10.856  18.861  0.00  0.00    +0.000 NA
ATOM      5  N   UNL     1      -0.481  10.048  18.132  0.00  0.00    +0.000 NA
ENDROOT
BRANCH   3   6
ATOM      6  C   UNL     1      -1.059  12.170  20.871  0.00  0.00    +0.000 C 
ATOM      7  C   UNL     1      -1.112  11.526  22.240  0.00  0.00    +0.000 C 
ATOM      8  C   UNL     1      -1.266  12.729  23.157  0.00  0.00    +0.000 C 
ATOM      9  O   UNL     1      -0.502  13.789  22.530  0.00  0.00    +0.000 OA
ATOM     10  C   UNL     1      -0.267  13.440  21.143  0.00  0.00    +0.000 C 
BRANCH   8  11
ATOM     11  N   UNL     1      -2.653  13.156  23.367  0.00  0.00    +0.000 N 
ATOM     12  C   UNL     1      -3.669  12.685  22.557  0.00  0.00    +0.000 A 
ATOM     13  C   UNL     1      -4.926  13.132  22.621  0.00  0.00    +0.000 A 
ATOM     14  C   UNL     1      -6.025  12.643  21.740  0.00  0.00    +0.000 C 
ATOM     15  C   UNL     1      -5.230  14.199  23.600  0.00  0.00    +0.000 A 
ATOM     16  O   UNL     1      -6.331  14.736  23.650  0.00  0.00    +0.000 OA
ATOM     17  N   UNL     1      -4.201  14.560  24.420  0.00  0.00    +0.000 N 
ATOM     18  C   UNL     1      -2.894  14.172  24.289  0.00  0.00    +0.000 A 
ATOM     19  O   UNL     1      -2.013  14.718  24.949  0.00  0.00    +0.000 OA
ATOM     20  H   UNL     1      -4.387  15.307  25.069  0.00  0.00    +0.000 HD
ENDBRANCH   8  11
BRANCH  10  21
ATOM     21  C   UNL     1      -0.682  14.597  20.228  0.00  0.00    +0.000 C 
BRANCH  21  22
ATOM     22  O   UNL     1      -2.028  14.422  19.790  0.00  0.00    +0.000 OA
ATOM     23  H   UNL     1      -2.054  14.660  18.845  0.00  0.00    +0.000 HD
ENDBRANCH  21  22
ENDBRANCH  10  21
ENDBRANCH   3   6
BRANCH   1  24
ATOM     24  C   UNL     1       1.870   9.201  18.116  0.00  0.00    +0.000 C 
BRANCH  24  25
ATOM     25  O   UNL     1       2.029   7.993  18.864  0.00  0.00    +0.000 OA
BRANCH  25  32
ATOM     26  C   UNL     1       6.380   5.107  15.617  0.00  0.00    +0.000 A 
ATOM     27  C   UNL     1       5.900   3.828  15.878  0.00  0.00    +0.000 A 
ATOM     28  C   UNL     1       4.757   3.650  16.663  0.00  0.00    +0.000 A 
ATOM     29  C   UNL     1       4.078   4.752  17.204  0.00  0.00    +0.000 A 
ATOM     30  C   UNL     1       2.952   4.591  18.022  0.00  0.00    +0.000 A 
ATOM     31  C   UNL     1       2.300   5.705  18.556  0.00  0.00    +0.000 A 
ATOM     32  C   UNL     1       2.752   6.994  18.275  0.00  0.00    +0.000 A 
ATOM     33  C   UNL     1       3.870   7.164  17.456  0.00  0.00    +0.000 A 
ATOM     34  C   UNL     1       4.548   6.053  16.924  0.00  0.00    +0.000 A 
ATOM     35  C   UNL     1       5.694   6.214  16.130  0.00  0.00    +0.000 A 
BRANCH  26  37
ATOM     36  C   UNL     1       7.483   5.049  13.519  0.00  0.00    +0.000 C 
ATOM     37  O   UNL     1       7.497   5.417  14.892  0.00  0.00    +0.000 OA
ENDBRANCH  26  37
ENDBRANCH  25  32
ENDBRANCH  24  25
ENDBRANCH   1  24
TORSDOF 8
ENDMDL
MODEL 8
REMARK VINA RESULT:      -8.2      3.264      3.988
REMARK  Name = 
REMARK  10 active torsions:
REMARK  status: ('A' for Active; 'I' for Inactive)
REMARK    1  A    between atoms: C_1  and  O_2
REMARK    2  A    between atoms: O_2  and  C_3
REMARK    3  A    between atoms: C_9  and  O_10
REMARK    4  A    between atoms: O_10  and  C_11
REMARK    5  A    between atoms: C_11  and  C_12
REMARK    6  A    between atoms: N_14  and  C_15
REMARK    7  A    between atoms: C_17  and  N_18
REMARK    8  A    between atoms: C_20  and  C_21
REMARK    9  A    between atoms: C_28  and  C_29
REMARK   10  A    between atoms: C_29  and  O_30
REMARK                            x       y       z     vdW  Elec       q    Type
REMARK                         _______ _______ _______ _____ _____    ______ ____
ROOT
ATOM      1  C   UNL     1       1.354   7.043  20.629  0.00  0.00    +0.000 A 
ATOM      2  C   UNL     1       2.262   7.043  19.594  0.00  0.00    +0.000 A 
ATOM      3  N   UNL     1       2.716   5.761  19.557  0.00  0.00    +0.000 N 
ATOM      4  N   UNL     1       2.171   5.020  20.533  0.00  0.00    +0.000 NA
ATOM      5  N   UNL     1       1.323   5.795  21.196  0.00  0.00    +0.000 NA
ENDROOT
BRANCH   3   6
ATOM      6  C   UNL     1       3.624   5.161  18.617  0.00  0.00    +0.000 C 
ATOM      7  C   UNL     1       5.071   5.229  19.052  0.00  0.00    +0.000 C 
ATOM      8  C   UNL     1       5.714   4.142  18.203  0.00  0.00    +0.000 C 
ATOM      9  O   UNL     1       4.707   3.108  18.079  0.00  0.00    +0.000 OA
ATOM     10  C   UNL     1       3.415   3.668  18.421  0.00  0.00    +0.000 C 
BRANCH   8  11
ATOM     11  N   UNL     1       6.151   4.590  16.876  0.00  0.00    +0.000 N 
ATOM     12  C   UNL     1       5.658   3.995  15.730  0.00  0.00    +0.000 A 
ATOM     13  C   UNL     1       6.111   4.275  14.506  0.00  0.00    +0.000 A 
ATOM     14  C   UNL     1       5.599   3.625  13.265  0.00  0.00    +0.000 C 
ATOM     15  C   UNL     1       7.209   5.258  14.383  0.00  0.00    +0.000 A 
ATOM     16  O   UNL     1       7.751   5.493  13.309  0.00  0.00    +0.000 OA
ATOM     17  N   UNL     1       7.592   5.864  15.544  0.00  0.00    +0.000 N 
ATOM     18  C   UNL     1       7.196   5.508  16.806  0.00  0.00    +0.000 A 
ATOM     19  O   UNL     1       7.760   5.978  17.791  0.00  0.00    +0.000 OA
ATOM     20  H   UNL     1       8.360   6.513  15.479  0.00  0.00    +0.000 HD
ENDBRANCH   8  11
BRANCH  10  21
ATOM     21  C   UNL     1       2.396   3.358  17.319  0.00  0.00    +0.000 C 
BRANCH  21  22
ATOM     22  O   UNL     1       1.081   3.293  17.865  0.00  0.00    +0.000 OA
ATOM     23  H   UNL     1       1.075   2.564  18.512  0.00  0.00    +0.000 HD
ENDBRANCH  21  22
ENDBRANCH  10  21
ENDBRANCH   3   6
BRANCH   1  24
ATOM     24  C   UNL     1       0.505   8.155  21.126  0.00  0.00    +0.000 C 
BRANCH  24  25
ATOM     25  O   UNL     1       1.151   9.413  20.918  0.00  0.00    +0.000 OA
BRANCH  25  32
ATOM     26  C   UNL     1      -0.594  15.260  21.673  0.00  0.00    +0.000 A 
ATOM     27  C   UNL     1      -1.479  14.992  22.712  0.00  0.00    +0.000 A 
ATOM     28  C   UNL     1      -1.645  13.683  23.176  0.00  0.00    +0.000 A 
ATOM     29  C   UNL     1      -0.930  12.621  22.603  0.00  0.00    +0.000 A 
ATOM     30  C   UNL     1      -1.111  11.299  23.031  0.00  0.00    +0.000 A 
ATOM     31  C   UNL     1      -0.394  10.259  22.437  0.00  0.00    +0.000 A 
ATOM     32  C   UNL     1       0.521  10.519  21.416  0.00  0.00    +0.000 A 
ATOM     33  C   UNL     1       0.712  11.834  20.988  0.00  0.00    +0.000 A 
ATOM     34  C   UNL     1      -0.015  12.891  21.563  0.00  0.00    +0.000 A 
ATOM     35  C   UNL     1       0.144  14.211  21.113  0.00  0.00    +0.000 A 
BRANCH  26  37
ATOM     36  C   UNL     1       0.202  17.476  21.959  0.00  0.00    +0.000 C 
ATOM     37  O   UNL     1      -0.359  16.484  21.109  0.00  0.00    +0.000 OA
ENDBRANCH  26  37
ENDBRANCH  25  32
ENDBRANCH  24  25
ENDBRANCH   1  24
TORSDOF 8
ENDMDL
MODEL 9
REMARK VINA RESULT:      -8.2      2.789      4.444
REMARK  Name = 
REMARK  10 active torsions:
REMARK  status: ('A' for Active; 'I' for Inactive)
REMARK    1  A    between atoms: C_1  and  O_2
REMARK    2  A    between atoms: O_2  and  C_3
REMARK    3  A    between atoms: C_9  and  O_10
REMARK    4  A    between atoms: O_10  and  C_11
REMARK    5  A    between atoms: C_11  and  C_12
REMARK    6  A    between atoms: N_14  and  C_15
REMARK    7  A    between atoms: C_17  and  N_18
REMARK    8  A    between atoms: C_20  and  C_21
REMARK    9  A    between atoms: C_28  and  C_29
REMARK   10  A    between atoms: C_29  and  O_30
REMARK                            x       y       z     vdW  Elec       q    Type
REMARK                         _______ _______ _______ _____ _____    ______ ____
ROOT
ATOM      1  C   UNL     1       1.453   7.777  20.522  0.00  0.00    +0.000 A 
ATOM      2  C   UNL     1       2.340   7.631  19.480  0.00  0.00    +0.000 A 
ATOM      3  N   UNL     1       2.706   6.322  19.542  0.00  0.00    +0.000 N 
ATOM      4  N   UNL     1       2.129   5.701  20.581  0.00  0.00    +0.000 NA
ATOM      5  N   UNL     1       1.347   6.583  21.189  0.00  0.00    +0.000 NA
ENDROOT
BRANCH   3   6
ATOM      6  C   UNL     1       3.553   5.588  18.642  0.00  0.00    +0.000 C 
ATOM      7  C   UNL     1       5.006   5.572  19.063  0.00  0.00    +0.000 C 
ATOM      8  C   UNL     1       5.553   4.382  18.291  0.00  0.00    +0.000 C 
ATOM      9  O   UNL     1       4.468   3.422  18.248  0.00  0.00    +0.000 OA
ATOM     10  C   UNL     1       3.227   4.105  18.555  0.00  0.00    +0.000 C 
BRANCH   8  11
ATOM     11  N   UNL     1       6.009   4.698  16.933  0.00  0.00    +0.000 N 
ATOM     12  C   UNL     1       5.404   4.122  15.832  0.00  0.00    +0.000 A 
ATOM     13  C   UNL     1       5.855   4.275  14.584  0.00  0.00    +0.000 A 
ATOM     14  C   UNL     1       5.221   3.644  13.392  0.00  0.00    +0.000 C 
ATOM     15  C   UNL     1       7.075   5.088  14.385  0.00  0.00    +0.000 A 
ATOM     16  O   UNL     1       7.612   5.191  13.288  0.00  0.00    +0.000 OA
ATOM     17  N   UNL     1       7.573   5.690  15.503  0.00  0.00    +0.000 N 
ATOM     18  C   UNL     1       7.169   5.456  16.791  0.00  0.00    +0.000 A 
ATOM     19  O   UNL     1       7.821   5.890  17.737  0.00  0.00    +0.000 OA
ATOM     20  H   UNL     1       8.421   6.221  15.386  0.00  0.00    +0.000 HD
ENDBRANCH   8  11
BRANCH  10  21
ATOM     21  C   UNL     1       2.175   3.797  17.485  0.00  0.00    +0.000 C 
BRANCH  21  22
ATOM     22  O   UNL     1       2.213   2.415  17.137  0.00  0.00    +0.000 OA
ATOM     23  H   UNL     1       3.146   2.186  16.976  0.00  0.00    +0.000 HD
ENDBRANCH  21  22
ENDBRANCH  10  21
ENDBRANCH   3   6
BRANCH   1  24
ATOM     24  C   UNL     1       0.690   8.981  20.938  0.00  0.00    +0.000 C 
BRANCH  24  25
ATOM     25  O   UNL     1       0.307   9.753  19.797  0.00  0.00    +0.000 OA
BRANCH  25  32
ATOM     26  C   UNL     1       2.471  15.423  20.779  0.00  0.00    +0.000 A 
ATOM     27  C   UNL     1       3.175  15.496  19.581  0.00  0.00    +0.000 A 
ATOM     28  C   UNL     1       3.151  14.424  18.683  0.00  0.00    +0.000 A 
ATOM     29  C   UNL     1       2.426  13.259  18.975  0.00  0.00    +0.000 A 
ATOM     30  C   UNL     1       2.420  12.161  18.103  0.00  0.00    +0.000 A 
ATOM     31  C   UNL     1       1.699  11.009  18.422  0.00  0.00    +0.000 A 
ATOM     32  C   UNL     1       0.963  10.936  19.605  0.00  0.00    +0.000 A 
ATOM     33  C   UNL     1       0.957  12.027  20.475  0.00  0.00    +0.000 A 
ATOM     34  C   UNL     1       1.693  13.188  20.178  0.00  0.00    +0.000 A 
ATOM     35  C   UNL     1       1.723  14.276  21.066  0.00  0.00    +0.000 A 
BRANCH  26  37
ATOM     36  C   UNL     1       2.557  17.732  21.316  0.00  0.00    +0.000 C 
ATOM     37  O   UNL     1       2.433  16.384  21.751  0.00  0.00    +0.000 OA
ENDBRANCH  26  37
ENDBRANCH  25  32
ENDBRANCH  24  25
ENDBRANCH   1  24
TORSDOF 8
ENDMDL
