MODEL 1
REMARK VINA RESULT:      -7.2      0.000      0.000
REMARK  Name = 
REMARK  8 active torsions:
REMARK  status: ('A' for Active; 'I' for Inactive)
REMARK    1  A    between atoms: C_1  and  C_2
REMARK    2  A    between atoms: C_2  and  C_3
REMARK    3  A    between atoms: C_2  and  C_4
REMARK    4  A    between atoms: C_12  and  C_13
REMARK    5  A    between atoms: C_20  and  C_21
REMARK    6  A    between atoms: C_21  and  C_22
REMARK    7  A    between atoms: C_22  and  C_23
REMARK    8  A    between atoms: C_25  and  O_26
REMARK                            x       y       z     vdW  Elec       q    Type
REMARK                         _______ _______ _______ _____ _____    ______ ____
ROOT
ATOM      1  C   UNL     1       3.750   6.259  18.001  0.00  0.00    +0.000 A 
ATOM      2  N   UNL     1       3.870   4.952  18.320  0.00  0.00    +0.000 NA
ATOM      3  C   UNL     1       3.268   4.460  19.396  0.00  0.00    +0.000 A 
ATOM      4  C   UNL     1       3.546   3.128  19.681  0.00  0.00    +0.000 A 
ATOM      5  C   UNL     1       3.029   2.489  20.803  0.00  0.00    +0.000 A 
ATOM      6  C   UNL     1       2.171   3.189  21.631  0.00  0.00    +0.000 A 
ATOM      7  C   UNL     1       1.843   4.512  21.321  0.00  0.00    +0.000 A 
ATOM      8  C   UNL     1       2.431   5.215  20.231  0.00  0.00    +0.000 A 
ATOM      9  C   UNL     1       2.252   6.620  19.905  0.00  0.00    +0.000 A 
ATOM     10  C   UNL     1       2.954   7.150  18.759  0.00  0.00    +0.000 A 
ENDROOT
BRANCH   9  11
ATOM     11  C   UNL     1       1.412   7.487  20.812  0.00  0.00    +0.000 A 
ATOM     12  C   UNL     1       2.016   8.428  21.681  0.00  0.00    +0.000 A 
ATOM     13  C   UNL     1       1.261   9.250  22.527  0.00  0.00    +0.000 A 
ATOM     14  C   UNL     1      -0.119   9.234  22.433  0.00  0.00    +0.000 A 
ATOM     15  F   UNL     1      -0.844  10.080  23.179  0.00  0.00    +0.000 F 
ATOM     16  C   UNL     1      -0.755   8.363  21.565  0.00  0.00    +0.000 A 
ATOM     17  C   UNL     1       0.005   7.450  20.817  0.00  0.00    +0.000 A 
ENDBRANCH   9  11
BRANCH   1  19
ATOM     18  C   UNL     1       5.890   7.313  17.120  0.00  0.00    +0.000 C 
ATOM     19  C   UNL     1       4.553   6.637  16.756  0.00  0.00    +0.000 C 
ATOM     20  C   UNL     1       4.836   5.417  15.876  0.00  0.00    +0.000 C 
ENDBRANCH   1  19
BRANCH  10  21
ATOM     21  C   UNL     1       2.834   8.601  18.308  0.00  0.00    +0.000 C 
BRANCH  21  22
ATOM     22  C   UNL     1       1.468   9.098  17.810  0.00  0.00    +0.000 C 
BRANCH  22  23
ATOM     23  C   UNL     1       0.808  10.162  18.683  0.00  0.00    +0.000 C 
ATOM     24  C   UNL     1      -0.638  10.338  18.232  0.00  0.00    +0.000 C 
ATOM     25  C   UNL     1      -1.201  11.632  18.770  0.00  0.00    +0.000 C 
ATOM     26  C   UNL     1      -0.365  12.798  18.286  0.00  0.00    +0.000 C 
ATOM     27  C   UNL     1       1.111  12.613  18.478  0.00  0.00    +0.000 C 
ATOM     28  O   UNL     1       1.877  13.570  18.463  0.00  0.00    +0.000 OA
ATOM     29  O   UNL     1       1.602  11.359  18.575  0.00  0.00    +0.000 OA
BRANCH  25  30
ATOM     30  O   UNL     1      -1.308  11.600  20.188  0.00  0.00    +0.000 OA
ATOM     31  H   UNL     1      -2.067  12.133  20.481  0.00  0.00    +0.000 HD
ENDBRANCH  25  30
ENDBRANCH  22  23
ENDBRANCH  21  22
ENDBRANCH  10  21
TORSDOF 6
ENDMDL
MODEL 2
REMARK VINA RESULT:      -7.2      4.567      8.878
REMARK  Name = 
REMARK  8 active torsions:
REMARK  status: ('A' for Active; 'I' for Inactive)
REMARK    1  A    between atoms: C_1  and  C_2
REMARK    2  A    between atoms: C_2  and  C_3
REMARK    3  A    between atoms: C_2  and  C_4
REMARK    4  A    between atoms: C_12  and  C_13
REMARK    5  A    between atoms: C_20  and  C_21
REMARK    6  A    between atoms: C_21  and  C_22
REMARK    7  A    between atoms: C_22  and  C_23
REMARK    8  A    between atoms: C_25  and  O_26
REMARK                            x       y       z     vdW  Elec       q    Type
REMARK                         _______ _______ _______ _____ _____    ______ ____
ROOT
ATOM      1  C   UNL     1      -3.156  13.431  21.186  0.00  0.00    +0.000 A 
ATOM      2  N   UNL     1      -4.393  13.301  21.714  0.00  0.00    +0.000 NA
ATOM      3  C   UNL     1      -5.321  12.580  21.096  0.00  0.00    +0.000 A 
ATOM      4  C   UNL     1      -6.582  12.603  21.678  0.00  0.00    +0.000 A 
ATOM      5  C   UNL     1      -7.667  11.936  21.117  0.00  0.00    +0.000 A 
ATOM      6  C   UNL     1      -7.468  11.188  19.972  0.00  0.00    +0.000 A 
ATOM      7  C   UNL     1      -6.190  11.117  19.410  0.00  0.00    +0.000 A 
ATOM      8  C   UNL     1      -5.086  11.862  19.913  0.00  0.00    +0.000 A 
ATOM      9  C   UNL     1      -3.759  11.952  19.328  0.00  0.00    +0.000 A 
ATOM     10  C   UNL     1      -2.776  12.781  19.987  0.00  0.00    +0.000 A 
ENDROOT
BRANCH   9  11
ATOM     11  C   UNL     1      -3.479  11.250  18.021  0.00  0.00    +0.000 A 
ATOM     12  C   UNL     1      -4.153  11.628  16.835  0.00  0.00    +0.000 A 
ATOM     13  C   UNL     1      -3.907  10.998  15.608  0.00  0.00    +0.000 A 
ATOM     14  C   UNL     1      -2.895  10.060  15.518  0.00  0.00    +0.000 A 
ATOM     15  F   UNL     1      -2.597   9.517  14.329  0.00  0.00    +0.000 F 
ATOM     16  C   UNL     1      -2.176   9.690  16.642  0.00  0.00    +0.000 A 
ATOM     17  C   UNL     1      -2.518  10.230  17.892  0.00  0.00    +0.000 A 
ENDBRANCH   9  11
BRANCH   1  19
ATOM     18  C   UNL     1      -2.831  15.757  22.164  0.00  0.00    +0.000 C 
ATOM     19  C   UNL     1      -2.251  14.335  22.023  0.00  0.00    +0.000 C 
ATOM     20  C   UNL     1      -2.011  13.756  23.420  0.00  0.00    +0.000 C 
ENDBRANCH   1  19
BRANCH  10  21
ATOM     21  C   UNL     1      -1.348  12.943  19.480  0.00  0.00    +0.000 C 
BRANCH  21  22
ATOM     22  C   UNL     1      -0.206  12.346  20.318  0.00  0.00    +0.000 C 
BRANCH  22  23
ATOM     23  C   UNL     1      -0.402  10.892  20.739  0.00  0.00    +0.000 C 
ATOM     24  C   UNL     1      -0.095  10.766  22.226  0.00  0.00    +0.000 C 
ATOM     25  C   UNL     1       0.124   9.318  22.596  0.00  0.00    +0.000 C 
ATOM     26  C   UNL     1       1.267   8.746  21.784  0.00  0.00    +0.000 C 
ATOM     27  C   UNL     1       1.170   9.024  20.312  0.00  0.00    +0.000 C 
ATOM     28  O   UNL     1       1.802   8.360  19.499  0.00  0.00    +0.000 OA
ATOM     29  O   UNL     1       0.444  10.084  19.898  0.00  0.00    +0.000 OA
BRANCH  25  30
ATOM     30  O   UNL     1      -1.071   8.560  22.450  0.00  0.00    +0.000 OA
ATOM     31  H   UNL     1      -0.979   7.922  21.722  0.00  0.00    +0.000 HD
ENDBRANCH  25  30
ENDBRANCH  22  23
ENDBRANCH  21  22
ENDBRANCH  10  21
TORSDOF 6
ENDMDL
MODEL 3
REMARK VINA RESULT:      -7.2      2.608      5.090
REMARK  Name = 
REMARK  8 active torsions:
REMARK  status: ('A' for Active; 'I' for Inactive)
REMARK    1  A    between atoms: C_1  and  C_2
REMARK    2  A    between atoms: C_2  and  C_3
REMARK    3  A    between atoms: C_2  and  C_4
REMARK    4  A    between atoms: C_12  and  C_13
REMARK    5  A    between atoms: C_20  and  C_21
REMARK    6  A    between atoms: C_21  and  C_22
REMARK    7  A    between atoms: C_22  and  C_23
REMARK    8  A    between atoms: C_25  and  O_26
REMARK                            x       y       z     vdW  Elec       q    Type
REMARK                         _______ _______ _______ _____ _____    ______ ____
ROOT
ATOM      1  C   UNL     1       1.836   7.011  20.349  0.00  0.00    +0.000 A 
ATOM      2  N   UNL     1       1.677   5.933  21.145  0.00  0.00    +0.000 NA
ATOM      3  C   UNL     1       2.323   4.801  20.891  0.00  0.00    +0.000 A 
ATOM      4  C   UNL     1       2.003   3.731  21.717  0.00  0.00    +0.000 A 
ATOM      5  C   UNL     1       2.561   2.468  21.539  0.00  0.00    +0.000 A 
ATOM      6  C   UNL     1       3.500   2.290  20.541  0.00  0.00    +0.000 A 
ATOM      7  C   UNL     1       3.867   3.375  19.740  0.00  0.00    +0.000 A 
ATOM      8  C   UNL     1       3.244   4.652  19.842  0.00  0.00    +0.000 A 
ATOM      9  C   UNL     1       3.466   5.799  18.979  0.00  0.00    +0.000 A 
ATOM     10  C   UNL     1       2.718   7.007  19.241  0.00  0.00    +0.000 A 
ENDROOT
BRANCH   9  11
ATOM     11  C   UNL     1       4.400   5.666  17.800  0.00  0.00    +0.000 A 
ATOM     12  C   UNL     1       5.650   6.332  17.784  0.00  0.00    +0.000 A 
ATOM     13  C   UNL     1       6.538   6.220  16.707  0.00  0.00    +0.000 A 
ATOM     14  C   UNL     1       6.248   5.343  15.677  0.00  0.00    +0.000 A 
ATOM     15  F   UNL     1       7.133   5.167  14.687  0.00  0.00    +0.000 F 
ATOM     16  C   UNL     1       5.058   4.635  15.670  0.00  0.00    +0.000 A 
ATOM     17  C   UNL     1       4.115   4.853  16.687  0.00  0.00    +0.000 A 
ENDBRANCH   9  11
BRANCH   1  19
ATOM     18  C   UNL     1      -0.456   7.760  21.158  0.00  0.00    +0.000 C 
ATOM     19  C   UNL     1       0.974   8.197  20.783  0.00  0.00    +0.000 C 
ATOM     20  C   UNL     1       1.595   8.940  21.970  0.00  0.00    +0.000 C 
ENDBRANCH   1  19
BRANCH  10  21
ATOM     21  C   UNL     1       2.875   8.279  18.416  0.00  0.00    +0.000 C 
BRANCH  21  22
ATOM     22  C   UNL     1       1.738   8.671  17.460  0.00  0.00    +0.000 C 
BRANCH  22  23
ATOM     23  C   UNL     1       1.233  10.103  17.605  0.00  0.00    +0.000 C 
ATOM     24  C   UNL     1       2.129  10.842  18.592  0.00  0.00    +0.000 C 
ATOM     25  C   UNL     1       1.450  12.101  19.076  0.00  0.00    +0.000 C 
ATOM     26  C   UNL     1       0.132  11.755  19.736  0.00  0.00    +0.000 C 
ATOM     27  C   UNL     1      -0.731  10.831  18.929  0.00  0.00    +0.000 C 
ATOM     28  O   UNL     1      -1.934  10.734  19.150  0.00  0.00    +0.000 OA
ATOM     29  O   UNL     1      -0.148  10.033  18.011  0.00  0.00    +0.000 OA
BRANCH  25  30
ATOM     30  O   UNL     1       1.291  13.042  18.021  0.00  0.00    +0.000 OA
ATOM     31  H   UNL     1       1.948  13.754  18.101  0.00  0.00    +0.000 HD
ENDBRANCH  25  30
ENDBRANCH  22  23
ENDBRANCH  21  22
ENDBRANCH  10  21
TORSDOF 6
ENDMDL
MODEL 4
REMARK VINA RESULT:      -7.2      4.184      7.950
REMARK  Name = 
REMARK  8 active torsions:
REMARK  status: ('A' for Active; 'I' for Inactive)
REMARK    1  A    between atoms: C_1  and  C_2
REMARK    2  A    between atoms: C_2  and  C_3
REMARK    3  A    between atoms: C_2  and  C_4
REMARK    4  A    between atoms: C_12  and  C_13
REMARK    5  A    between atoms: C_20  and  C_21
REMARK    6  A    between atoms: C_21  and  C_22
REMARK    7  A    between atoms: C_22  and  C_23
REMARK    8  A    between atoms: C_25  and  O_26
REMARK                            x       y       z     vdW  Elec       q    Type
REMARK                         _______ _______ _______ _____ _____    ______ ____
ROOT
ATOM      1  C   UNL     1      -3.174  11.564  18.019  0.00  0.00    +0.000 A 
ATOM      2  N   UNL     1      -4.480  11.222  18.023  0.00  0.00    +0.000 NA
ATOM      3  C   UNL     1      -5.262  11.541  19.048  0.00  0.00    +0.000 A 
ATOM      4  C   UNL     1      -6.559  11.048  18.987  0.00  0.00    +0.000 A 
ATOM      5  C   UNL     1      -7.478  11.257  20.011  0.00  0.00    +0.000 A 
ATOM      6  C   UNL     1      -7.099  12.023  21.098  0.00  0.00    +0.000 A 
ATOM      7  C   UNL     1      -5.812  12.567  21.141  0.00  0.00    +0.000 A 
ATOM      8  C   UNL     1      -4.827  12.292  20.151  0.00  0.00    +0.000 A 
ATOM      9  C   UNL     1      -3.434  12.705  20.172  0.00  0.00    +0.000 A 
ATOM     10  C   UNL     1      -2.586  12.307  19.071  0.00  0.00    +0.000 A 
ENDROOT
BRANCH   9  11
ATOM     11  C   UNL     1      -2.905  13.459  21.368  0.00  0.00    +0.000 A 
ATOM     12  C   UNL     1      -2.552  12.777  22.558  0.00  0.00    +0.000 A 
ATOM     13  C   UNL     1      -2.052  13.450  23.680  0.00  0.00    +0.000 A 
ATOM     14  C   UNL     1      -1.781  14.803  23.594  0.00  0.00    +0.000 A 
ATOM     15  F   UNL     1      -1.223  15.436  24.635  0.00  0.00    +0.000 F 
ATOM     16  C   UNL     1      -2.068  15.506  22.435  0.00  0.00    +0.000 A 
ATOM     17  C   UNL     1      -2.690  14.849  21.362  0.00  0.00    +0.000 A 
ENDBRANCH   9  11
BRANCH   1  19
ATOM     18  C   UNL     1      -1.793   9.686  17.002  0.00  0.00    +0.000 C 
ATOM     19  C   UNL     1      -2.438  11.068  16.774  0.00  0.00    +0.000 C 
ATOM     20  C   UNL     1      -3.371  10.988  15.563  0.00  0.00    +0.000 C 
ENDBRANCH   1  19
BRANCH  10  21
ATOM     21  C   UNL     1      -1.115  12.692  18.972  0.00  0.00    +0.000 C 
BRANCH  21  22
ATOM     22  C   UNL     1      -0.142  12.125  20.017  0.00  0.00    +0.000 C 
BRANCH  22  23
ATOM     23  C   UNL     1      -0.290  10.632  20.297  0.00  0.00    +0.000 C 
ATOM     24  C   UNL     1       0.012  10.376  21.769  0.00  0.00    +0.000 C 
ATOM     25  C   UNL     1       0.279   8.908  22.002  0.00  0.00    +0.000 C 
ATOM     26  C   UNL     1       1.446   8.455  21.151  0.00  0.00    +0.000 C 
ATOM     27  C   UNL     1       1.349   8.868  19.712  0.00  0.00    +0.000 C 
ATOM     28  O   UNL     1       2.010   8.305  18.846  0.00  0.00    +0.000 OA
ATOM     29  O   UNL     1       0.590   9.936  19.392  0.00  0.00    +0.000 OA
BRANCH  25  30
ATOM     30  O   UNL     1      -0.888   8.126  21.773  0.00  0.00    +0.000 OA
ATOM     31  H   UNL     1      -0.991   7.944  20.824  0.00  0.00    +0.000 HD
ENDBRANCH  25  30
ENDBRANCH  22  23
ENDBRANCH  21  22
ENDBRANCH  10  21
TORSDOF 6
ENDMDL
MODEL 5
REMARK VINA RESULT:      -7.1      0.804      1.496
REMARK  Name = 
REMARK  8 active torsions:
REMARK  status: ('A' for Active; 'I' for Inactive)
REMARK    1  A    between atoms: C_1  and  C_2
REMARK    2  A    between atoms: C_2  and  C_3
REMARK    3  A    between atoms: C_2  and  C_4
REMARK    4  A    between atoms: C_12  and  C_13
REMARK    5  A    between atoms: C_20  and  C_21
REMARK    6  A    between atoms: C_21  and  C_22
REMARK    7  A    between atoms: C_22  and  C_23
REMARK    8  A    between atoms: C_25  and  O_26
REMARK                            x       y       z     vdW  Elec       q    Type
REMARK                         _______ _______ _______ _____ _____    ______ ____
ROOT
ATOM      1  C   UNL     1       3.753   6.147  18.034  0.00  0.00    +0.000 A 
ATOM      2  N   UNL     1       3.911   4.856  18.398  0.00  0.00    +0.000 NA
ATOM      3  C   UNL     1       3.330   4.386  19.496  0.00  0.00    +0.000 A 
ATOM      4  C   UNL     1       3.647   3.073  19.825  0.00  0.00    +0.000 A 
ATOM      5  C   UNL     1       3.155   2.460  20.973  0.00  0.00    +0.000 A 
ATOM      6  C   UNL     1       2.285   3.165  21.783  0.00  0.00    +0.000 A 
ATOM      7  C   UNL     1       1.920   4.467  21.431  0.00  0.00    +0.000 A 
ATOM      8  C   UNL     1       2.479   5.148  20.312  0.00  0.00    +0.000 A 
ATOM      9  C   UNL     1       2.260   6.534  19.938  0.00  0.00    +0.000 A 
ATOM     10  C   UNL     1       2.939   7.043  18.768  0.00  0.00    +0.000 A 
ENDROOT
BRANCH   9  11
ATOM     11  C   UNL     1       1.404   7.411  20.821  0.00  0.00    +0.000 A 
ATOM     12  C   UNL     1       1.994   8.312  21.741  0.00  0.00    +0.000 A 
ATOM     13  C   UNL     1       1.225   9.141  22.567  0.00  0.00    +0.000 A 
ATOM     14  C   UNL     1      -0.148   9.174  22.404  0.00  0.00    +0.000 A 
ATOM     15  F   UNL     1      -0.882  10.027  23.131  0.00  0.00    +0.000 F 
ATOM     16  C   UNL     1      -0.768   8.343  21.485  0.00  0.00    +0.000 A 
ATOM     17  C   UNL     1      -0.001   7.421  20.756  0.00  0.00    +0.000 A 
ENDBRANCH   9  11
BRANCH   1  19
ATOM     18  C   UNL     1       5.868   7.205  17.099  0.00  0.00    +0.000 C 
ATOM     19  C   UNL     1       4.535   6.503  16.770  0.00  0.00    +0.000 C 
ATOM     20  C   UNL     1       4.824   5.263  15.919  0.00  0.00    +0.000 C 
ENDBRANCH   1  19
BRANCH  10  21
ATOM     21  C   UNL     1       2.776   8.473  18.267  0.00  0.00    +0.000 C 
BRANCH  21  22
ATOM     22  C   UNL     1       1.478   8.845  17.536  0.00  0.00    +0.000 C 
BRANCH  22  23
ATOM     23  C   UNL     1       0.952  10.250  17.821  0.00  0.00    +0.000 C 
ATOM     24  C   UNL     1       1.511  10.721  19.158  0.00  0.00    +0.000 C 
ATOM     25  C   UNL     1       0.718  11.899  19.672  0.00  0.00    +0.000 C 
ATOM     26  C   UNL     1      -0.737  11.512  19.829  0.00  0.00    +0.000 C 
ATOM     27  C   UNL     1      -1.319  10.822  18.630  0.00  0.00    +0.000 C 
ATOM     28  O   UNL     1      -2.532  10.758  18.463  0.00  0.00    +0.000 OA
ATOM     29  O   UNL     1      -0.487  10.186  17.779  0.00  0.00    +0.000 OA
BRANCH  25  30
ATOM     30  O   UNL     1       0.883  13.038  18.836  0.00  0.00    +0.000 OA
ATOM     31  H   UNL     1       0.065  13.217  18.343  0.00  0.00    +0.000 HD
ENDBRANCH  25  30
ENDBRANCH  22  23
ENDBRANCH  21  22
ENDBRANCH  10  21
TORSDOF 6
ENDMDL
MODEL 6
REMARK VINA RESULT:      -6.9      2.313      4.474
REMARK  Name = 
REMARK  8 active torsions:
REMARK  status: ('A' for Active; 'I' for Inactive)
REMARK    1  A    between atoms: C_1  and  C_2
REMARK    2  A    between atoms: C_2  and  C_3
REMARK    3  A    between atoms: C_2  and  C_4
REMARK    4  A    between atoms: C_12  and  C_13
REMARK    5  A    between atoms: C_20  and  C_21
REMARK    6  A    between atoms: C_21  and  C_22
REMARK    7  A    between atoms: C_22  and  C_23
REMARK    8  A    between atoms: C_25  and  O_26
REMARK                            x       y       z     vdW  Elec       q    Type
REMARK                         _______ _______ _______ _____ _____    ______ ____
ROOT
ATOM      1  C   UNL     1       2.276   8.534  18.350  0.00  0.00    +0.000 A 
ATOM      2  N   UNL     1       3.130   8.363  17.318  0.00  0.00    +0.000 NA
ATOM      3  C   UNL     1       3.678   7.177  17.081  0.00  0.00    +0.000 A 
ATOM      4  C   UNL     1       4.617   7.146  16.057  0.00  0.00    +0.000 A 
ATOM      5  C   UNL     1       5.312   5.986  15.728  0.00  0.00    +0.000 A 
ATOM      6  C   UNL     1       5.019   4.819  16.408  0.00  0.00    +0.000 A 
ATOM      7  C   UNL     1       4.037   4.830  17.402  0.00  0.00    +0.000 A 
ATOM      8  C   UNL     1       3.379   6.022  17.820  0.00  0.00    +0.000 A 
ATOM      9  C   UNL     1       2.441   6.157  18.922  0.00  0.00    +0.000 A 
ATOM     10  C   UNL     1       1.892   7.465  19.196  0.00  0.00    +0.000 A 
ENDROOT
BRANCH   9  11
ATOM     11  C   UNL     1       2.139   4.956  19.785  0.00  0.00    +0.000 A 
ATOM     12  C   UNL     1       2.779   4.781  21.036  0.00  0.00    +0.000 A 
ATOM     13  C   UNL     1       2.513   3.680  21.860  0.00  0.00    +0.000 A 
ATOM     14  C   UNL     1       1.510   2.796  21.506  0.00  0.00    +0.000 A 
ATOM     15  F   UNL     1       1.191   1.789  22.332  0.00  0.00    +0.000 F 
ATOM     16  C   UNL     1       0.823   2.951  20.313  0.00  0.00    +0.000 A 
ATOM     17  C   UNL     1       1.188   3.981  19.432  0.00  0.00    +0.000 A 
ENDBRANCH   9  11
BRANCH   1  19
ATOM     18  C   UNL     1       2.679  10.956  17.686  0.00  0.00    +0.000 C 
ATOM     19  C   UNL     1       1.791   9.978  18.481  0.00  0.00    +0.000 C 
ATOM     20  C   UNL     1       0.341  10.129  18.012  0.00  0.00    +0.000 C 
ENDBRANCH   1  19
BRANCH  10  21
ATOM     21  C   UNL     1       0.890   7.730  20.313  0.00  0.00    +0.000 C 
BRANCH  21  22
ATOM     22  C   UNL     1       1.428   8.156  21.688  0.00  0.00    +0.000 C 
BRANCH  22  23
ATOM     23  C   UNL     1       0.817   9.434  22.256  0.00  0.00    +0.000 C 
ATOM     24  C   UNL     1      -0.656   9.489  21.868  0.00  0.00    +0.000 C 
ATOM     25  C   UNL     1      -1.193  10.889  22.043  0.00  0.00    +0.000 C 
ATOM     26  C   UNL     1      -0.400  11.856  21.189  0.00  0.00    +0.000 C 
ATOM     27  C   UNL     1       1.087  11.717  21.330  0.00  0.00    +0.000 C 
ATOM     28  O   UNL     1       1.843  12.621  20.989  0.00  0.00    +0.000 OA
ATOM     29  O   UNL     1       1.593  10.540  21.754  0.00  0.00    +0.000 OA
BRANCH  25  30
ATOM     30  O   UNL     1      -1.207  11.271  23.413  0.00  0.00    +0.000 OA
ATOM     31  H   UNL     1      -1.277  12.238  23.494  0.00  0.00    +0.000 HD
ENDBRANCH  25  30
ENDBRANCH  22  23
ENDBRANCH  21  22
ENDBRANCH  10  21
TORSDOF 6
ENDMDL
MODEL 7
REMARK VINA RESULT:      -6.8      3.671      7.403
REMARK  Name = 
REMARK  8 active torsions:
REMARK  status: ('A' for Active; 'I' for Inactive)
REMARK    1  A    between atoms: C_1  and  C_2
REMARK    2  A    between atoms: C_2  and  C_3
REMARK    3  A    between atoms: C_2  and  C_4
REMARK    4  A    between atoms: C_12  and  C_13
REMARK    5  A    between atoms: C_20  and  C_21
REMARK    6  A    between atoms: C_21  and  C_22
REMARK    7  A    between atoms: C_22  and  C_23
REMARK    8  A    between atoms: C_25  and  O_26
REMARK                            x       y       z     vdW  Elec       q    Type
REMARK                         _______ _______ _______ _____ _____    ______ ____
ROOT
ATOM      1  C   UNL     1      -2.353  12.586  20.507  0.00  0.00    +0.000 A 
ATOM      2  N   UNL     1      -3.342  12.479  19.594  0.00  0.00    +0.000 NA
ATOM      3  C   UNL     1      -3.240  11.627  18.581  0.00  0.00    +0.000 A 
ATOM      4  C   UNL     1      -4.270  11.676  17.651  0.00  0.00    +0.000 A 
ATOM      5  C   UNL     1      -4.275  10.879  16.510  0.00  0.00    +0.000 A 
ATOM      6  C   UNL     1      -3.246   9.975  16.326  0.00  0.00    +0.000 A 
ATOM      7  C   UNL     1      -2.233   9.881  17.285  0.00  0.00    +0.000 A 
ATOM      8  C   UNL     1      -2.158  10.748  18.412  0.00  0.00    +0.000 A 
ATOM      9  C   UNL     1      -1.085  10.813  19.390  0.00  0.00    +0.000 A 
ATOM     10  C   UNL     1      -1.190  11.780  20.458  0.00  0.00    +0.000 A 
ENDROOT
BRANCH   9  11
ATOM     11  C   UNL     1       0.129   9.932  19.213  0.00  0.00    +0.000 A 
ATOM     12  C   UNL     1       0.487   8.983  20.200  0.00  0.00    +0.000 A 
ATOM     13  C   UNL     1       1.604   8.148  20.058  0.00  0.00    +0.000 A 
ATOM     14  C   UNL     1       2.314   8.163  18.871  0.00  0.00    +0.000 A 
ATOM     15  F   UNL     1       3.330   7.307  18.696  0.00  0.00    +0.000 F 
ATOM     16  C   UNL     1       1.974   9.043  17.858  0.00  0.00    +0.000 A 
ATOM     17  C   UNL     1       0.936   9.966  18.060  0.00  0.00    +0.000 A 
ENDBRANCH   9  11
BRANCH   1  19
ATOM     18  C   UNL     1      -2.977  15.016  20.930  0.00  0.00    +0.000 C 
ATOM     19  C   UNL     1      -2.641  13.652  21.565  0.00  0.00    +0.000 C 
ATOM     20  C   UNL     1      -3.792  13.235  22.485  0.00  0.00    +0.000 C 
ENDBRANCH   1  19
BRANCH  10  21
ATOM     21  C   UNL     1      -0.139  11.932  21.551  0.00  0.00    +0.000 C 
BRANCH  21  22
ATOM     22  C   UNL     1       0.873  13.081  21.432  0.00  0.00    +0.000 C 
BRANCH  22  23
ATOM     23  C   UNL     1       1.254  13.465  20.005  0.00  0.00    +0.000 C 
ATOM     24  C   UNL     1       2.773  13.543  19.905  0.00  0.00    +0.000 C 
ATOM     25  C   UNL     1       3.180  14.300  18.664  0.00  0.00    +0.000 C 
ATOM     26  C   UNL     1       2.594  15.696  18.697  0.00  0.00    +0.000 C 
ATOM     27  C   UNL     1       1.130  15.737  19.021  0.00  0.00    +0.000 C 
ATOM     28  O   UNL     1       0.449  16.721  18.754  0.00  0.00    +0.000 OA
ATOM     29  O   UNL     1       0.585  14.705  19.701  0.00  0.00    +0.000 OA
BRANCH  25  30
ATOM     30  O   UNL     1       2.817  13.593  17.484  0.00  0.00    +0.000 OA
ATOM     31  H   UNL     1       3.553  13.032  17.186  0.00  0.00    +0.000 HD
ENDBRANCH  25  30
ENDBRANCH  22  23
ENDBRANCH  21  22
ENDBRANCH  10  21
TORSDOF 6
ENDMDL
MODEL 8
REMARK VINA RESULT:      -6.8      5.696      7.900
REMARK  Name = 
REMARK  8 active torsions:
REMARK  status: ('A' for Active; 'I' for Inactive)
REMARK    1  A    between atoms: C_1  and  C_2
REMARK    2  A    between atoms: C_2  and  C_3
REMARK    3  A    between atoms: C_2  and  C_4
REMARK    4  A    between atoms: C_12  and  C_13
REMARK    5  A    between atoms: C_20  and  C_21
REMARK    6  A    between atoms: C_21  and  C_22
REMARK    7  A    between atoms: C_22  and  C_23
REMARK    8  A    between atoms: C_25  and  O_26
REMARK                            x       y       z     vdW  Elec       q    Type
REMARK                         _______ _______ _______ _____ _____    ______ ____
ROOT
ATOM      1  C   UNL     1      -3.054  11.601  18.087  0.00  0.00    +0.000 A 
ATOM      2  N   UNL     1      -4.369  11.299  18.013  0.00  0.00    +0.000 NA
ATOM      3  C   UNL     1      -5.195  11.626  18.999  0.00  0.00    +0.000 A 
ATOM      4  C   UNL     1      -6.502  11.175  18.859  0.00  0.00    +0.000 A 
ATOM      5  C   UNL     1      -7.468  11.397  19.835  0.00  0.00    +0.000 A 
ATOM      6  C   UNL     1      -7.127  12.133  20.954  0.00  0.00    +0.000 A 
ATOM      7  C   UNL     1      -5.829  12.636  21.077  0.00  0.00    +0.000 A 
ATOM      8  C   UNL     1      -4.799  12.345  20.138  0.00  0.00    +0.000 A 
ATOM      9  C   UNL     1      -3.398  12.714  20.242  0.00  0.00    +0.000 A 
ATOM     10  C   UNL     1      -2.503  12.308  19.182  0.00  0.00    +0.000 A 
ENDROOT
BRANCH   9  11
ATOM     11  C   UNL     1      -2.913  13.432  21.479  0.00  0.00    +0.000 A 
ATOM     12  C   UNL     1      -2.480  12.707  22.615  0.00  0.00    +0.000 A 
ATOM     13  C   UNL     1      -2.018  13.347  23.773  0.00  0.00    +0.000 A 
ATOM     14  C   UNL     1      -1.867  14.721  23.773  0.00  0.00    +0.000 A 
ATOM     15  F   UNL     1      -1.345  15.331  24.847  0.00  0.00    +0.000 F 
ATOM     16  C   UNL     1      -2.234  15.470  22.668  0.00  0.00    +0.000 A 
ATOM     17  C   UNL     1      -2.818  14.833  21.562  0.00  0.00    +0.000 A 
ENDBRANCH   9  11
BRANCH   1  19
ATOM     18  C   UNL     1      -1.601   9.737  17.146  0.00  0.00    +0.000 C 
ATOM     19  C   UNL     1      -2.266  11.101  16.875  0.00  0.00    +0.000 C 
ATOM     20  C   UNL     1      -3.156  10.983  15.635  0.00  0.00    +0.000 C 
ENDBRANCH   1  19
BRANCH  10  21
ATOM     21  C   UNL     1      -1.017  12.648  19.170  0.00  0.00    +0.000 C 
BRANCH  21  22
ATOM     22  C   UNL     1      -0.069  11.796  20.028  0.00  0.00    +0.000 C 
BRANCH  22  23
ATOM     23  C   UNL     1       1.193  12.511  20.504  0.00  0.00    +0.000 C 
ATOM     24  C   UNL     1       0.789  13.794  21.221  0.00  0.00    +0.000 C 
ATOM     25  C   UNL     1       1.975  14.721  21.345  0.00  0.00    +0.000 C 
ATOM     26  C   UNL     1       2.519  15.048  19.970  0.00  0.00    +0.000 C 
ATOM     27  C   UNL     1       2.733  13.847  19.096  0.00  0.00    +0.000 C 
ATOM     28  O   UNL     1       3.469  13.899  18.117  0.00  0.00    +0.000 OA
ATOM     29  O   UNL     1       2.027  12.725  19.349  0.00  0.00    +0.000 OA
BRANCH  25  30
ATOM     30  O   UNL     1       2.972  14.175  22.201  0.00  0.00    +0.000 OA
ATOM     31  H   UNL     1       3.519  13.534  21.717  0.00  0.00    +0.000 HD
ENDBRANCH  25  30
ENDBRANCH  22  23
ENDBRANCH  21  22
ENDBRANCH  10  21
TORSDOF 6
ENDMDL
MODEL 9
REMARK VINA RESULT:      -6.8      2.469      4.827
REMARK  Name = 
REMARK  8 active torsions:
REMARK  status: ('A' for Active; 'I' for Inactive)
REMARK    1  A    between atoms: C_1  and  C_2
REMARK    2  A    between atoms: C_2  and  C_3
REMARK    3  A    between atoms: C_2  and  C_4
REMARK    4  A    between atoms: C_12  and  C_13
REMARK    5  A    between atoms: C_20  and  C_21
REMARK    6  A    between atoms: C_21  and  C_22
REMARK    7  A    between atoms: C_22  and  C_23
REMARK    8  A    between atoms: C_25  and  O_26
REMARK                            x       y       z     vdW  Elec       q    Type
REMARK                         _______ _______ _______ _____ _____    ______ ____
ROOT
ATOM      1  C   UNL     1       1.725   7.168  20.384  0.00  0.00    +0.000 A 
ATOM      2  N   UNL     1       1.593   6.082  21.176  0.00  0.00    +0.000 NA
ATOM      3  C   UNL     1       2.165   4.930  20.847  0.00  0.00    +0.000 A 
ATOM      4  C   UNL     1       1.876   3.858  21.682  0.00  0.00    +0.000 A 
ATOM      5  C   UNL     1       2.362   2.578  21.436  0.00  0.00    +0.000 A 
ATOM      6  C   UNL     1       3.199   2.380  20.355  0.00  0.00    +0.000 A 
ATOM      7  C   UNL     1       3.538   3.465  19.540  0.00  0.00    +0.000 A 
ATOM      8  C   UNL     1       2.982   4.764  19.717  0.00  0.00    +0.000 A 
ATOM      9  C   UNL     1       3.173   5.917  18.854  0.00  0.00    +0.000 A 
ATOM     10  C   UNL     1       2.503   7.149  19.201  0.00  0.00    +0.000 A 
ENDROOT
BRANCH   9  11
ATOM     11  C   UNL     1       3.991   5.768  17.594  0.00  0.00    +0.000 A 
ATOM     12  C   UNL     1       4.853   6.804  17.161  0.00  0.00    +0.000 A 
ATOM     13  C   UNL     1       5.629   6.690  16.000  0.00  0.00    +0.000 A 
ATOM     14  C   UNL     1       5.648   5.489  15.314  0.00  0.00    +0.000 A 
ATOM     15  F   UNL     1       6.453   5.345  14.252  0.00  0.00    +0.000 F 
ATOM     16  C   UNL     1       4.856   4.431  15.725  0.00  0.00    +0.000 A 
ATOM     17  C   UNL     1       3.984   4.598  16.812  0.00  0.00    +0.000 A 
ENDBRANCH   9  11
BRANCH   1  19
ATOM     18  C   UNL     1      -0.477   8.008  21.340  0.00  0.00    +0.000 C 
ATOM     19  C   UNL     1       0.957   8.380  20.912  0.00  0.00    +0.000 C 
ATOM     20  C   UNL     1       1.676   9.030  22.097  0.00  0.00    +0.000 C 
ENDBRANCH   1  19
BRANCH  10  21
ATOM     21  C   UNL     1       2.639   8.429  18.385  0.00  0.00    +0.000 C 
BRANCH  21  22
ATOM     22  C   UNL     1       1.371   9.029  17.758  0.00  0.00    +0.000 C 
BRANCH  22  23
ATOM     23  C   UNL     1       0.664  10.083  18.607  0.00  0.00    +0.000 C 
ATOM     24  C   UNL     1      -0.748  10.280  18.069  0.00  0.00    +0.000 C 
ATOM     25  C   UNL     1      -1.335  11.568  18.594  0.00  0.00    +0.000 C 
ATOM     26  C   UNL     1      -0.461  12.736  18.187  0.00  0.00    +0.000 C 
ATOM     27  C   UNL     1       0.998  12.534  18.469  0.00  0.00    +0.000 C 
ATOM     28  O   UNL     1       1.771  13.485  18.521  0.00  0.00    +0.000 OA
ATOM     29  O   UNL     1       1.473  11.275  18.573  0.00  0.00    +0.000 OA
BRANCH  25  30
ATOM     30  O   UNL     1      -1.533  11.512  20.002  0.00  0.00    +0.000 OA
ATOM     31  H   UNL     1      -1.589  12.409  20.372  0.00  0.00    +0.000 HD
ENDBRANCH  25  30
ENDBRANCH  22  23
ENDBRANCH  21  22
ENDBRANCH  10  21
TORSDOF 6
ENDMDL
