MODEL 1
REMARK VINA RESULT:      -8.5      0.000      0.000
REMARK  Name = 
REMARK  5 active torsions:
REMARK  status: ('A' for Active; 'I' for Inactive)
REMARK    1  A    between atoms: C_1  and  C_2
REMARK    2  A    between atoms: C_7  and  S_8
REMARK    3  A    between atoms: S_8  and  N_11
REMARK    4  A    between atoms: N_11  and  C_12
REMARK    5  A    between atoms: C_15  and  C_16
REMARK                            x       y       z     vdW  Elec       q    Type
REMARK                         _______ _______ _______ _____ _____    ______ ____
ROOT
ATOM      1  C   UNL     1       2.665   5.913  19.125  0.00  0.00    +0.000 A 
ATOM      2  C   UNL     1       2.082   5.966  20.393  0.00  0.00    +0.000 A 
ATOM      3  C   UNL     1       1.510   7.162  20.848  0.00  0.00    +0.000 A 
ATOM      4  C   UNL     1       1.507   8.313  20.044  0.00  0.00    +0.000 A 
ATOM      5  C   UNL     1       2.126   8.247  18.786  0.00  0.00    +0.000 A 
ATOM      6  C   UNL     1       2.690   7.050  18.325  0.00  0.00    +0.000 A 
ENDROOT
BRANCH   4   7
ATOM      7  C   UNL     1       0.787   9.508  20.492  0.00  0.00    +0.000 A 
ATOM      8  N   UNL     1       0.931  10.756  20.081  0.00  0.00    +0.000 NA
ATOM      9  C   UNL     1       0.199  11.483  20.982  0.00  0.00    +0.000 A 
ATOM     10  C   UNL     1       0.036  12.867  21.128  0.00  0.00    +0.000 A 
ATOM     11  C   UNL     1      -0.739  13.334  22.200  0.00  0.00    +0.000 A 
ATOM     12  C   UNL     1      -1.355  12.444  23.088  0.00  0.00    +0.000 A 
ATOM     13  C   UNL     1      -1.215  11.055  22.945  0.00  0.00    +0.000 A 
ATOM     14  C   UNL     1      -0.417  10.635  21.886  0.00  0.00    +0.000 A 
ATOM     15  O   UNL     1      -0.063   9.357  21.564  0.00  0.00    +0.000 OA
ENDBRANCH   4   7
BRANCH   1  16
ATOM     16  N   UNL     1       3.163   4.677  18.622  0.00  0.00    +0.000 N 
ATOM     17  H   UNL     1       2.961   4.473  17.643  0.00  0.00    +0.000 HD
BRANCH  16  18
ATOM     18  S   UNL     1       4.798   4.304  18.924  0.00  0.00    +0.000 S 
ATOM     19  O   UNL     1       4.878   2.963  19.460  0.00  0.00    +0.000 OA
ATOM     20  O   UNL     1       5.310   5.430  19.676  0.00  0.00    +0.000 OA
BRANCH  18  27
ATOM     21  C   UNL     1       7.942   4.790  18.207  0.00  0.00    +0.000 C 
ATOM     22  C   UNL     1       6.936   4.626  17.102  0.00  0.00    +0.000 A 
ATOM     23  C   UNL     1       7.402   4.743  15.777  0.00  0.00    +0.000 A 
ATOM     24  C   UNL     1       6.534   4.635  14.689  0.00  0.00    +0.000 A 
ATOM     25  C   UNL     1       5.179   4.412  14.903  0.00  0.00    +0.000 A 
ATOM     26  C   UNL     1       4.693   4.293  16.205  0.00  0.00    +0.000 A 
ATOM     27  C   UNL     1       5.565   4.387  17.307  0.00  0.00    +0.000 A 
ENDBRANCH  18  27
ENDBRANCH  16  18
ENDBRANCH   1  16
TORSDOF 4
ENDMDL
MODEL 2
REMARK VINA RESULT:      -8.4      1.229      2.190
REMARK  Name = 
REMARK  5 active torsions:
REMARK  status: ('A' for Active; 'I' for Inactive)
REMARK    1  A    between atoms: C_1  and  C_2
REMARK    2  A    between atoms: C_7  and  S_8
REMARK    3  A    between atoms: S_8  and  N_11
REMARK    4  A    between atoms: N_11  and  C_12
REMARK    5  A    between atoms: C_15  and  C_16
REMARK                            x       y       z     vdW  Elec       q    Type
REMARK                         _______ _______ _______ _____ _____    ______ ____
ROOT
ATOM      1  C   UNL     1       2.413   5.275  18.808  0.00  0.00    +0.000 A 
ATOM      2  C   UNL     1       1.836   5.134  20.071  0.00  0.00    +0.000 A 
ATOM      3  C   UNL     1       1.449   6.272  20.791  0.00  0.00    +0.000 A 
ATOM      4  C   UNL     1       1.627   7.559  20.259  0.00  0.00    +0.000 A 
ATOM      5  C   UNL     1       2.238   7.680  19.000  0.00  0.00    +0.000 A 
ATOM      6  C   UNL     1       2.617   6.543  18.275  0.00  0.00    +0.000 A 
ENDROOT
BRANCH   4   7
ATOM      7  C   UNL     1       1.093   8.720  20.975  0.00  0.00    +0.000 A 
ATOM      8  N   UNL     1       0.415   8.746  22.109  0.00  0.00    +0.000 NA
ATOM      9  C   UNL     1      -0.035  10.037  22.192  0.00  0.00    +0.000 A 
ATOM     10  C   UNL     1      -0.881  10.655  23.122  0.00  0.00    +0.000 A 
ATOM     11  C   UNL     1      -1.223  12.001  22.915  0.00  0.00    +0.000 A 
ATOM     12  C   UNL     1      -0.715  12.716  21.824  0.00  0.00    +0.000 A 
ATOM     13  C   UNL     1       0.147  12.115  20.895  0.00  0.00    +0.000 A 
ATOM     14  C   UNL     1       0.439  10.773  21.121  0.00  0.00    +0.000 A 
ATOM     15  O   UNL     1       1.188   9.939  20.342  0.00  0.00    +0.000 OA
ENDBRANCH   4   7
BRANCH   1  16
ATOM     16  N   UNL     1       2.723   4.119  18.034  0.00  0.00    +0.000 N 
ATOM     17  H   UNL     1       2.659   4.223  17.021  0.00  0.00    +0.000 HD
BRANCH  16  18
ATOM     18  S   UNL     1       4.162   3.286  18.401  0.00  0.00    +0.000 S 
ATOM     19  O   UNL     1       4.289   2.158  17.503  0.00  0.00    +0.000 OA
ATOM     20  O   UNL     1       4.130   3.086  19.835  0.00  0.00    +0.000 OA
BRANCH  18  27
ATOM     21  C   UNL     1       5.237   4.391  15.527  0.00  0.00    +0.000 C 
ATOM     22  C   UNL     1       5.858   4.887  16.802  0.00  0.00    +0.000 A 
ATOM     23  C   UNL     1       6.935   5.789  16.692  0.00  0.00    +0.000 A 
ATOM     24  C   UNL     1       7.591   6.280  17.822  0.00  0.00    +0.000 A 
ATOM     25  C   UNL     1       7.189   5.873  19.088  0.00  0.00    +0.000 A 
ATOM     26  C   UNL     1       6.126   4.980  19.224  0.00  0.00    +0.000 A 
ATOM     27  C   UNL     1       5.450   4.492  18.090  0.00  0.00    +0.000 A 
ENDBRANCH  18  27
ENDBRANCH  16  18
ENDBRANCH   1  16
TORSDOF 4
ENDMDL
MODEL 3
REMARK VINA RESULT:      -8.4      0.759      1.539
REMARK  Name = 
REMARK  5 active torsions:
REMARK  status: ('A' for Active; 'I' for Inactive)
REMARK    1  A    between atoms: C_1  and  C_2
REMARK    2  A    between atoms: C_7  and  S_8
REMARK    3  A    between atoms: S_8  and  N_11
REMARK    4  A    between atoms: N_11  and  C_12
REMARK    5  A    between atoms: C_15  and  C_16
REMARK                            x       y       z     vdW  Elec       q    Type
REMARK                         _______ _______ _______ _____ _____    ______ ____
ROOT
ATOM      1  C   UNL     1       2.530   5.586  19.194  0.00  0.00    +0.000 A 
ATOM      2  C   UNL     1       2.576   6.841  18.585  0.00  0.00    +0.000 A 
ATOM      3  C   UNL     1       1.984   7.944  19.215  0.00  0.00    +0.000 A 
ATOM      4  C   UNL     1       1.347   7.809  20.459  0.00  0.00    +0.000 A 
ATOM      5  C   UNL     1       1.286   6.532  21.040  0.00  0.00    +0.000 A 
ATOM      6  C   UNL     1       1.885   5.431  20.416  0.00  0.00    +0.000 A 
ENDROOT
BRANCH   4   7
ATOM      7  C   UNL     1       0.855   9.001  21.155  0.00  0.00    +0.000 A 
ATOM      8  N   UNL     1       0.043   9.068  22.196  0.00  0.00    +0.000 NA
ATOM      9  C   UNL     1      -0.271  10.399  22.280  0.00  0.00    +0.000 A 
ATOM     10  C   UNL     1      -1.157  11.081  23.124  0.00  0.00    +0.000 A 
ATOM     11  C   UNL     1      -1.321  12.462  22.936  0.00  0.00    +0.000 A 
ATOM     12  C   UNL     1      -0.600  13.148  21.951  0.00  0.00    +0.000 A 
ATOM     13  C   UNL     1       0.304  12.482  21.111  0.00  0.00    +0.000 A 
ATOM     14  C   UNL     1       0.416  11.110  21.310  0.00  0.00    +0.000 A 
ATOM     15  O   UNL     1       1.163  10.220  20.595  0.00  0.00    +0.000 OA
ENDBRANCH   4   7
BRANCH   1  16
ATOM     16  N   UNL     1       3.210   4.483  18.602  0.00  0.00    +0.000 N 
ATOM     17  H   UNL     1       3.076   4.356  17.598  0.00  0.00    +0.000 HD
BRANCH  16  18
ATOM     18  S   UNL     1       4.866   4.295  18.954  0.00  0.00    +0.000 S 
ATOM     19  O   UNL     1       5.070   2.996  19.556  0.00  0.00    +0.000 OA
ATOM     20  O   UNL     1       5.242   5.502  19.659  0.00  0.00    +0.000 OA
BRANCH  18  27
ATOM     21  C   UNL     1       8.003   4.888  18.286  0.00  0.00    +0.000 C 
ATOM     22  C   UNL     1       7.025   4.669  17.166  0.00  0.00    +0.000 A 
ATOM     23  C   UNL     1       7.511   4.783  15.848  0.00  0.00    +0.000 A 
ATOM     24  C   UNL     1       6.668   4.625  14.746  0.00  0.00    +0.000 A 
ATOM     25  C   UNL     1       5.319   4.355  14.939  0.00  0.00    +0.000 A 
ATOM     26  C   UNL     1       4.813   4.238  16.234  0.00  0.00    +0.000 A 
ATOM     27  C   UNL     1       5.660   4.382  17.349  0.00  0.00    +0.000 A 
ENDBRANCH  18  27
ENDBRANCH  16  18
ENDBRANCH   1  16
TORSDOF 4
ENDMDL
MODEL 4
REMARK VINA RESULT:      -8.4      0.944      1.138
REMARK  Name = 
REMARK  5 active torsions:
REMARK  status: ('A' for Active; 'I' for Inactive)
REMARK    1  A    between atoms: C_1  and  C_2
REMARK    2  A    between atoms: C_7  and  S_8
REMARK    3  A    between atoms: S_8  and  N_11
REMARK    4  A    between atoms: N_11  and  C_12
REMARK    5  A    between atoms: C_15  and  C_16
REMARK                            x       y       z     vdW  Elec       q    Type
REMARK                         _______ _______ _______ _____ _____    ______ ____
ROOT
ATOM      1  C   UNL     1       2.677   5.985  19.130  0.00  0.00    +0.000 A 
ATOM      2  C   UNL     1       2.100   6.084  20.397  0.00  0.00    +0.000 A 
ATOM      3  C   UNL     1       1.528   7.295  20.811  0.00  0.00    +0.000 A 
ATOM      4  C   UNL     1       1.521   8.416  19.965  0.00  0.00    +0.000 A 
ATOM      5  C   UNL     1       2.134   8.304  18.707  0.00  0.00    +0.000 A 
ATOM      6  C   UNL     1       2.697   7.092  18.289  0.00  0.00    +0.000 A 
ENDROOT
BRANCH   4   7
ATOM      7  C   UNL     1       0.801   9.626  20.371  0.00  0.00    +0.000 A 
ATOM      8  N   UNL     1       0.807  10.230  21.547  0.00  0.00    +0.000 NA
ATOM      9  C   UNL     1      -0.204  11.149  21.447  0.00  0.00    +0.000 A 
ATOM     10  C   UNL     1      -0.740  12.028  22.397  0.00  0.00    +0.000 A 
ATOM     11  C   UNL     1      -1.833  12.825  22.020  0.00  0.00    +0.000 A 
ATOM     12  C   UNL     1      -2.359  12.763  20.724  0.00  0.00    +0.000 A 
ATOM     13  C   UNL     1      -1.820  11.900  19.757  0.00  0.00    +0.000 A 
ATOM     14  C   UNL     1      -0.757  11.109  20.180  0.00  0.00    +0.000 A 
ATOM     15  O   UNL     1      -0.100  10.146  19.470  0.00  0.00    +0.000 OA
ENDBRANCH   4   7
BRANCH   1  16
ATOM     16  N   UNL     1       3.175   4.732  18.671  0.00  0.00    +0.000 N 
ATOM     17  H   UNL     1       2.964   4.489  17.702  0.00  0.00    +0.000 HD
BRANCH  16  18
ATOM     18  S   UNL     1       4.813   4.375  18.972  0.00  0.00    +0.000 S 
ATOM     19  O   UNL     1       4.905   3.045  19.533  0.00  0.00    +0.000 OA
ATOM     20  O   UNL     1       5.322   5.519  19.699  0.00  0.00    +0.000 OA
BRANCH  18  27
ATOM     21  C   UNL     1       7.955   4.841  18.231  0.00  0.00    +0.000 C 
ATOM     22  C   UNL     1       6.943   4.664  17.134  0.00  0.00    +0.000 A 
ATOM     23  C   UNL     1       7.402   4.760  15.805  0.00  0.00    +0.000 A 
ATOM     24  C   UNL     1       6.528   4.639  14.723  0.00  0.00    +0.000 A 
ATOM     25  C   UNL     1       5.174   4.424  14.947  0.00  0.00    +0.000 A 
ATOM     26  C   UNL     1       4.694   4.326  16.254  0.00  0.00    +0.000 A 
ATOM     27  C   UNL     1       5.572   4.433  17.349  0.00  0.00    +0.000 A 
ENDBRANCH  18  27
ENDBRANCH  16  18
ENDBRANCH   1  16
TORSDOF 4
ENDMDL
MODEL 5
REMARK VINA RESULT:      -8.2      1.244      1.682
REMARK  Name = 
REMARK  5 active torsions:
REMARK  status: ('A' for Active; 'I' for Inactive)
REMARK    1  A    between atoms: C_1  and  C_2
REMARK    2  A    between atoms: C_7  and  S_8
REMARK    3  A    between atoms: S_8  and  N_11
REMARK    4  A    between atoms: N_11  and  C_12
REMARK    5  A    between atoms: C_15  and  C_16
REMARK                            x       y       z     vdW  Elec       q    Type
REMARK                         _______ _______ _______ _____ _____    ______ ____
ROOT
ATOM      1  C   UNL     1       2.719   5.951  19.027  0.00  0.00    +0.000 A 
ATOM      2  C   UNL     1       2.147   6.222  20.272  0.00  0.00    +0.000 A 
ATOM      3  C   UNL     1       1.602   7.488  20.528  0.00  0.00    +0.000 A 
ATOM      4  C   UNL     1       1.616   8.492  19.547  0.00  0.00    +0.000 A 
ATOM      5  C   UNL     1       2.223   8.209  18.314  0.00  0.00    +0.000 A 
ATOM      6  C   UNL     1       2.760   6.942  18.053  0.00  0.00    +0.000 A 
ENDROOT
BRANCH   4   7
ATOM      7  C   UNL     1       0.923   9.758  19.797  0.00  0.00    +0.000 A 
ATOM      8  N   UNL     1      -0.172   9.970  20.508  0.00  0.00    +0.000 NA
ATOM      9  C   UNL     1      -0.508  11.265  20.212  0.00  0.00    +0.000 A 
ATOM     10  C   UNL     1      -1.617  12.033  20.589  0.00  0.00    +0.000 A 
ATOM     11  C   UNL     1      -1.727  13.334  20.076  0.00  0.00    +0.000 A 
ATOM     12  C   UNL     1      -0.744  13.863  19.231  0.00  0.00    +0.000 A 
ATOM     13  C   UNL     1       0.381  13.112  18.860  0.00  0.00    +0.000 A 
ATOM     14  C   UNL     1       0.438  11.818  19.367  0.00  0.00    +0.000 A 
ATOM     15  O   UNL     1       1.378  10.862  19.112  0.00  0.00    +0.000 OA
ENDBRANCH   4   7
BRANCH   1  16
ATOM     16  N   UNL     1       3.190   4.639  18.731  0.00  0.00    +0.000 N 
ATOM     17  H   UNL     1       2.936   4.264  17.816  0.00  0.00    +0.000 HD
BRANCH  16  18
ATOM     18  S   UNL     1       4.837   4.310  19.011  0.00  0.00    +0.000 S 
ATOM     19  O   UNL     1       4.958   2.983  19.575  0.00  0.00    +0.000 OA
ATOM     20  O   UNL     1       5.337   5.464  19.729  0.00  0.00    +0.000 OA
BRANCH  18  27
ATOM     21  C   UNL     1       7.958   4.841  18.226  0.00  0.00    +0.000 C 
ATOM     22  C   UNL     1       6.936   4.635  17.144  0.00  0.00    +0.000 A 
ATOM     23  C   UNL     1       7.375   4.734  15.808  0.00  0.00    +0.000 A 
ATOM     24  C   UNL     1       6.490   4.587  14.739  0.00  0.00    +0.000 A 
ATOM     25  C   UNL     1       5.144   4.344  14.982  0.00  0.00    +0.000 A 
ATOM     26  C   UNL     1       4.684   4.242  16.295  0.00  0.00    +0.000 A 
ATOM     27  C   UNL     1       5.573   4.375  17.378  0.00  0.00    +0.000 A 
ENDBRANCH  18  27
ENDBRANCH  16  18
ENDBRANCH   1  16
TORSDOF 4
ENDMDL
MODEL 6
REMARK VINA RESULT:      -8.1      2.503      3.625
REMARK  Name = 
REMARK  5 active torsions:
REMARK  status: ('A' for Active; 'I' for Inactive)
REMARK    1  A    between atoms: C_1  and  C_2
REMARK    2  A    between atoms: C_7  and  S_8
REMARK    3  A    between atoms: S_8  and  N_11
REMARK    4  A    between atoms: N_11  and  C_12
REMARK    5  A    between atoms: C_15  and  C_16
REMARK                            x       y       z     vdW  Elec       q    Type
REMARK                         _______ _______ _______ _____ _____    ______ ____
ROOT
ATOM      1  C   UNL     1       2.540   6.961  18.496  0.00  0.00    +0.000 A 
ATOM      2  C   UNL     1       2.154   8.048  17.709  0.00  0.00    +0.000 A 
ATOM      3  C   UNL     1       1.489   9.133  18.296  0.00  0.00    +0.000 A 
ATOM      4  C   UNL     1       1.207   9.148  19.672  0.00  0.00    +0.000 A 
ATOM      5  C   UNL     1       1.576   8.032  20.439  0.00  0.00    +0.000 A 
ATOM      6  C   UNL     1       2.249   6.951  19.855  0.00  0.00    +0.000 A 
ENDROOT
BRANCH   4   7
ATOM      7  C   UNL     1       0.631  10.350  20.280  0.00  0.00    +0.000 A 
ATOM      8  N   UNL     1       0.982  11.612  20.099  0.00  0.00    +0.000 NA
ATOM      9  C   UNL     1       0.293  12.285  21.073  0.00  0.00    +0.000 A 
ATOM     10  C   UNL     1       0.317  13.635  21.446  0.00  0.00    +0.000 A 
ATOM     11  C   UNL     1      -0.466  14.034  22.540  0.00  0.00    +0.000 A 
ATOM     12  C   UNL     1      -1.269  13.117  23.227  0.00  0.00    +0.000 A 
ATOM     13  C   UNL     1      -1.317  11.765  22.853  0.00  0.00    +0.000 A 
ATOM     14  C   UNL     1      -0.506  11.405  21.782  0.00  0.00    +0.000 A 
ATOM     15  O   UNL     1      -0.314  10.158  21.263  0.00  0.00    +0.000 OA
ENDBRANCH   4   7
BRANCH   1  16
ATOM     16  N   UNL     1       3.297   5.900  17.921  0.00  0.00    +0.000 N 
ATOM     17  H   UNL     1       4.203   5.706  18.351  0.00  0.00    +0.000 HD
BRANCH  16  18
ATOM     18  S   UNL     1       2.501   4.418  17.650  0.00  0.00    +0.000 S 
ATOM     19  O   UNL     1       3.324   3.599  16.787  0.00  0.00    +0.000 OA
ATOM     20  O   UNL     1       1.154   4.778  17.260  0.00  0.00    +0.000 OA
BRANCH  18  27
ATOM     21  C   UNL     1       4.901   3.264  19.533  0.00  0.00    +0.000 C 
ATOM     22  C   UNL     1       3.476   3.199  20.007  0.00  0.00    +0.000 A 
ATOM     23  C   UNL     1       3.234   2.582  21.251  0.00  0.00    +0.000 A 
ATOM     24  C   UNL     1       1.939   2.451  21.757  0.00  0.00    +0.000 A 
ATOM     25  C   UNL     1       0.858   2.929  21.028  0.00  0.00    +0.000 A 
ATOM     26  C   UNL     1       1.072   3.543  19.794  0.00  0.00    +0.000 A 
ATOM     27  C   UNL     1       2.375   3.692  19.283  0.00  0.00    +0.000 A 
ENDBRANCH  18  27
ENDBRANCH  16  18
ENDBRANCH   1  16
TORSDOF 4
ENDMDL
MODEL 7
REMARK VINA RESULT:      -8.1      1.274      1.421
REMARK  Name = 
REMARK  5 active torsions:
REMARK  status: ('A' for Active; 'I' for Inactive)
REMARK    1  A    between atoms: C_1  and  C_2
REMARK    2  A    between atoms: C_7  and  S_8
REMARK    3  A    between atoms: S_8  and  N_11
REMARK    4  A    between atoms: N_11  and  C_12
REMARK    5  A    between atoms: C_15  and  C_16
REMARK                            x       y       z     vdW  Elec       q    Type
REMARK                         _______ _______ _______ _____ _____    ______ ____
ROOT
ATOM      1  C   UNL     1       2.793   6.020  18.874  0.00  0.00    +0.000 A 
ATOM      2  C   UNL     1       2.174   6.486  20.036  0.00  0.00    +0.000 A 
ATOM      3  C   UNL     1       1.673   7.794  20.082  0.00  0.00    +0.000 A 
ATOM      4  C   UNL     1       1.778   8.647  18.972  0.00  0.00    +0.000 A 
ATOM      5  C   UNL     1       2.431   8.169  17.825  0.00  0.00    +0.000 A 
ATOM      6  C   UNL     1       2.924   6.860  17.774  0.00  0.00    +0.000 A 
ENDROOT
BRANCH   4   7
ATOM      7  C   UNL     1       1.129   9.960  19.003  0.00  0.00    +0.000 A 
ATOM      8  N   UNL     1       1.605  11.123  18.591  0.00  0.00    +0.000 NA
ATOM      9  C   UNL     1       0.700  12.034  19.068  0.00  0.00    +0.000 A 
ATOM     10  C   UNL     1       0.703  13.435  19.032  0.00  0.00    +0.000 A 
ATOM     11  C   UNL     1      -0.346  14.117  19.667  0.00  0.00    +0.000 A 
ATOM     12  C   UNL     1      -1.383  13.420  20.299  0.00  0.00    +0.000 A 
ATOM     13  C   UNL     1      -1.409  12.017  20.328  0.00  0.00    +0.000 A 
ATOM     14  C   UNL     1      -0.336  11.381  19.712  0.00  0.00    +0.000 A 
ATOM     15  O   UNL     1      -0.082  10.041  19.655  0.00  0.00    +0.000 OA
ENDBRANCH   4   7
BRANCH   1  16
ATOM     16  N   UNL     1       3.220   4.664  18.791  0.00  0.00    +0.000 N 
ATOM     17  H   UNL     1       2.926   4.147  17.961  0.00  0.00    +0.000 HD
BRANCH  16  18
ATOM     18  S   UNL     1       4.868   4.336  19.074  0.00  0.00    +0.000 S 
ATOM     19  O   UNL     1       4.987   3.018  19.659  0.00  0.00    +0.000 OA
ATOM     20  O   UNL     1       5.371   5.501  19.771  0.00  0.00    +0.000 OA
BRANCH  18  27
ATOM     21  C   UNL     1       7.955   5.009  18.263  0.00  0.00    +0.000 C 
ATOM     22  C   UNL     1       6.947   4.699  17.192  0.00  0.00    +0.000 A 
ATOM     23  C   UNL     1       7.382   4.766  15.853  0.00  0.00    +0.000 A 
ATOM     24  C   UNL     1       6.508   4.523  14.792  0.00  0.00    +0.000 A 
ATOM     25  C   UNL     1       5.178   4.215  15.047  0.00  0.00    +0.000 A 
ATOM     26  C   UNL     1       4.722   4.143  16.363  0.00  0.00    +0.000 A 
ATOM     27  C   UNL     1       5.601   4.373  17.439  0.00  0.00    +0.000 A 
ENDBRANCH  18  27
ENDBRANCH  16  18
ENDBRANCH   1  16
TORSDOF 4
ENDMDL
MODEL 8
REMARK VINA RESULT:      -8.1      2.503      3.512
REMARK  Name = 
REMARK  5 active torsions:
REMARK  status: ('A' for Active; 'I' for Inactive)
REMARK    1  A    between atoms: C_1  and  C_2
REMARK    2  A    between atoms: C_7  and  S_8
REMARK    3  A    between atoms: S_8  and  N_11
REMARK    4  A    between atoms: N_11  and  C_12
REMARK    5  A    between atoms: C_15  and  C_16
REMARK                            x       y       z     vdW  Elec       q    Type
REMARK                         _______ _______ _______ _____ _____    ______ ____
ROOT
ATOM      1  C   UNL     1       2.746   6.724  18.342  0.00  0.00    +0.000 A 
ATOM      2  C   UNL     1       2.444   6.684  19.704  0.00  0.00    +0.000 A 
ATOM      3  C   UNL     1       1.794   7.770  20.307  0.00  0.00    +0.000 A 
ATOM      4  C   UNL     1       1.433   8.901  19.558  0.00  0.00    +0.000 A 
ATOM      5  C   UNL     1       1.774   8.934  18.197  0.00  0.00    +0.000 A 
ATOM      6  C   UNL     1       2.415   7.847  17.591  0.00  0.00    +0.000 A 
ENDROOT
BRANCH   4   7
ATOM      7  C   UNL     1       0.638   9.961  20.184  0.00  0.00    +0.000 A 
ATOM      8  N   UNL     1       0.589  11.244  19.871  0.00  0.00    +0.000 NA
ATOM      9  C   UNL     1      -0.110  11.806  20.907  0.00  0.00    +0.000 A 
ATOM     10  C   UNL     1      -0.413  13.144  21.190  0.00  0.00    +0.000 A 
ATOM     11  C   UNL     1      -1.105  13.431  22.377  0.00  0.00    +0.000 A 
ATOM     12  C   UNL     1      -1.506  12.408  23.244  0.00  0.00    +0.000 A 
ATOM     13  C   UNL     1      -1.227  11.062  22.965  0.00  0.00    +0.000 A 
ATOM     14  C   UNL     1      -0.515  10.823  21.793  0.00  0.00    +0.000 A 
ATOM     15  O   UNL     1      -0.057   9.626  21.324  0.00  0.00    +0.000 OA
ENDBRANCH   4   7
BRANCH   1  16
ATOM     16  N   UNL     1       3.323   5.586  17.707  0.00  0.00    +0.000 N 
ATOM     17  H   UNL     1       4.255   5.315  18.025  0.00  0.00    +0.000 HD
BRANCH  16  18
ATOM     18  S   UNL     1       2.366   4.183  17.582  0.00  0.00    +0.000 S 
ATOM     19  O   UNL     1       3.035   3.239  16.713  0.00  0.00    +0.000 OA
ATOM     20  O   UNL     1       1.035   4.659  17.268  0.00  0.00    +0.000 OA
BRANCH  18  27
ATOM     21  C   UNL     1       4.826   3.136  19.450  0.00  0.00    +0.000 C 
ATOM     22  C   UNL     1       3.419   3.107  19.976  0.00  0.00    +0.000 A 
ATOM     23  C   UNL     1       3.217   2.569  21.263  0.00  0.00    +0.000 A 
ATOM     24  C   UNL     1       1.941   2.476  21.821  0.00  0.00    +0.000 A 
ATOM     25  C   UNL     1       0.837   2.913  21.100  0.00  0.00    +0.000 A 
ATOM     26  C   UNL     1       1.009   3.448  19.824  0.00  0.00    +0.000 A 
ATOM     27  C   UNL     1       2.295   3.559  19.261  0.00  0.00    +0.000 A 
ENDBRANCH  18  27
ENDBRANCH  16  18
ENDBRANCH   1  16
TORSDOF 4
ENDMDL
MODEL 9
REMARK VINA RESULT:      -8.0      5.582      7.523
REMARK  Name = 
REMARK  5 active torsions:
REMARK  status: ('A' for Active; 'I' for Inactive)
REMARK    1  A    between atoms: C_1  and  C_2
REMARK    2  A    between atoms: C_7  and  S_8
REMARK    3  A    between atoms: S_8  and  N_11
REMARK    4  A    between atoms: N_11  and  C_12
REMARK    5  A    between atoms: C_15  and  C_16
REMARK                            x       y       z     vdW  Elec       q    Type
REMARK                         _______ _______ _______ _____ _____    ______ ____
ROOT
ATOM      1  C   UNL     1       6.982   5.642  17.911  0.00  0.00    +0.000 A 
ATOM      2  C   UNL     1       7.776   5.918  19.026  0.00  0.00    +0.000 A 
ATOM      3  C   UNL     1       8.362   7.183  19.168  0.00  0.00    +0.000 A 
ATOM      4  C   UNL     1       8.158   8.186  18.207  0.00  0.00    +0.000 A 
ATOM      5  C   UNL     1       7.382   7.878  17.079  0.00  0.00    +0.000 A 
ATOM      6  C   UNL     1       6.788   6.618  16.939  0.00  0.00    +0.000 A 
ENDROOT
BRANCH   4   7
ATOM      7  C   UNL     1       8.673   9.536  18.448  0.00  0.00    +0.000 A 
ATOM      8  N   UNL     1       8.632  10.587  17.647  0.00  0.00    +0.000 NA
ATOM      9  C   UNL     1       9.453  11.497  18.259  0.00  0.00    +0.000 A 
ATOM     10  C   UNL     1       9.882  12.766  17.849  0.00  0.00    +0.000 A 
ATOM     11  C   UNL     1      10.787  13.457  18.670  0.00  0.00    +0.000 A 
ATOM     12  C   UNL     1      11.232  12.907  19.878  0.00  0.00    +0.000 A 
ATOM     13  C   UNL     1      10.798  11.644  20.309  0.00  0.00    +0.000 A 
ATOM     14  C   UNL     1       9.923  10.981  19.454  0.00  0.00    +0.000 A 
ATOM     15  O   UNL     1       9.407   9.727  19.598  0.00  0.00    +0.000 OA
ENDBRANCH   4   7
BRANCH   1  16
ATOM     16  N   UNL     1       6.310   4.390  17.808  0.00  0.00    +0.000 N 
ATOM     17  H   UNL     1       6.352   3.786  18.630  0.00  0.00    +0.000 HD
BRANCH  16  18
ATOM     18  S   UNL     1       4.708   4.399  17.228  0.00  0.00    +0.000 S 
ATOM     19  O   UNL     1       4.645   3.599  16.024  0.00  0.00    +0.000 OA
ATOM     20  O   UNL     1       4.321   5.794  17.207  0.00  0.00    +0.000 OA
BRANCH  18  27
ATOM     21  C   UNL     1       1.470   4.323  17.612  0.00  0.00    +0.000 C 
ATOM     22  C   UNL     1       2.363   3.679  18.634  0.00  0.00    +0.000 A 
ATOM     23  C   UNL     1       1.748   3.102  19.764  0.00  0.00    +0.000 A 
ATOM     24  C   UNL     1       2.500   2.508  20.778  0.00  0.00    +0.000 A 
ATOM     25  C   UNL     1       3.886   2.482  20.688  0.00  0.00    +0.000 A 
ATOM     26  C   UNL     1       4.520   3.046  19.581  0.00  0.00    +0.000 A 
ATOM     27  C   UNL     1       3.767   3.635  18.547  0.00  0.00    +0.000 A 
ENDBRANCH  18  27
ENDBRANCH  16  18
ENDBRANCH   1  16
TORSDOF 4
ENDMDL
