MODEL 1
REMARK VINA RESULT:      -7.2      0.000      0.000
REMARK  Name = 
REMARK  14 active torsions:
REMARK  status: ('A' for Active; 'I' for Inactive)
REMARK    1  A    between atoms: C_1  and  C_2
REMARK    2  A    between atoms: C_2  and  O_3
REMARK    3  A    between atoms: O_3  and  C_4
REMARK    4  A    between atoms: C_6  and  C_7
REMARK    5  A    between atoms: C_11  and  C_12
REMARK    6  A    between atoms: C_11  and  C_13
REMARK    7  A    between atoms: N_17  and  C_18
REMARK    8  A    between atoms: C_18  and  C_19
REMARK    9  A    between atoms: C_19  and  C_20
REMARK   10  A    between atoms: C_20  and  O_21
REMARK   11  A    between atoms: O_21  and  C_22
REMARK   12  A    between atoms: C_28  and  C_29
REMARK   13  A    between atoms: C_28  and  C_30
REMARK   14  A    between atoms: C_34  and  O_35
REMARK                            x       y       z     vdW  Elec       q    Type
REMARK                         _______ _______ _______ _____ _____    ______ ____
ROOT
ATOM      1  C   UNL     1      -0.289  11.680  18.547  0.00  0.00    +0.000 C 
ATOM      2  C   UNL     1       0.148  12.791  19.484  0.00  0.00    +0.000 C 
ATOM      3  C   UNL     1      -0.734  13.549  20.178  0.00  0.00    +0.000 C 
ATOM      4  C   UNL     1      -0.203  14.617  21.128  0.00  0.00    +0.000 C 
ATOM      5  C   UNL     1       1.269  15.044  20.970  0.00  0.00    +0.000 C 
ATOM      6  C   UNL     1       1.445  15.950  19.737  0.00  0.00    +0.000 C 
ATOM      7  C   UNL     1       1.700  15.839  22.217  0.00  0.00    +0.000 C 
ATOM      8  C   UNL     1       2.114  13.779  20.837  0.00  0.00    +0.000 C 
ATOM      9  C   UNL     1       1.631  13.008  19.634  0.00  0.00    +0.000 C 
ATOM     10  O   UNL     1       2.434  12.590  18.802  0.00  0.00    +0.000 OA
ATOM     11  N   UNL     1      -2.152  13.341  20.071  0.00  0.00    +0.000 N 
ATOM     12  C   UNL     1      -2.634  12.242  19.290  0.00  0.00    +0.000 C 
ATOM     13  C   UNL     1      -1.785  11.427  18.615  0.00  0.00    +0.000 C 
ATOM     14  C   UNL     1      -2.316  10.219  17.890  0.00  0.00    +0.000 C 
ATOM     15  O   UNL     1      -1.630   9.568  17.105  0.00  0.00    +0.000 OA
ATOM     16  C   UNL     1      -3.744   9.811  18.146  0.00  0.00    +0.000 C 
ATOM     17  C   UNL     1      -4.625  11.055  18.100  0.00  0.00    +0.000 C 
ATOM     18  C   UNL     1      -4.539  11.737  16.717  0.00  0.00    +0.000 C 
ATOM     19  C   UNL     1      -6.091  10.666  18.351  0.00  0.00    +0.000 C 
ATOM     20  C   UNL     1      -4.145  12.002  19.217  0.00  0.00    +0.000 C 
ENDROOT
BRANCH   1  23
ATOM     21  C   UNL     1       1.247   8.629  20.269  0.00  0.00    +0.000 A 
ATOM     22  C   UNL     1       0.533   9.804  20.054  0.00  0.00    +0.000 A 
ATOM     23  C   UNL     1       0.514  10.413  18.789  0.00  0.00    +0.000 A 
ATOM     24  C   UNL     1       1.248   9.831  17.742  0.00  0.00    +0.000 A 
ATOM     25  C   UNL     1       1.968   8.666  17.954  0.00  0.00    +0.000 A 
ATOM     26  C   UNL     1       1.975   8.068  19.220  0.00  0.00    +0.000 A 
BRANCH  26  27
ATOM     27  O   UNL     1       2.739   6.942  19.404  0.00  0.00    +0.000 OA
ATOM     28  H   UNL     1       3.365   6.889  18.660  0.00  0.00    +0.000 HD
ENDBRANCH  26  27
BRANCH  21  29
ATOM     29  O   UNL     1       1.158   8.193  21.563  0.00  0.00    +0.000 OA
BRANCH  29  31
ATOM     30  C   UNL     1      -0.004   9.368  23.268  0.00  0.00    +0.000 C 
ATOM     31  C   UNL     1       1.335   9.176  22.576  0.00  0.00    +0.000 C 
ENDBRANCH  29  31
ENDBRANCH  21  29
ENDBRANCH   1  23
BRANCH  11  32
ATOM     32  C   UNL     1      -3.123  14.307  20.684  0.00  0.00    +0.000 C 
BRANCH  32  33
ATOM     33  C   UNL     1      -3.363  14.115  22.187  0.00  0.00    +0.000 C 
BRANCH  33  34
ATOM     34  C   UNL     1      -4.587  13.282  22.532  0.00  0.00    +0.000 C 
BRANCH  34  35
ATOM     35  O   UNL     1      -4.162  12.196  23.353  0.00  0.00    +0.000 OA
ATOM     36  C   UNL     1      -4.447  12.403  24.728  0.00  0.00    +0.000 C 
ENDBRANCH  34  35
ENDBRANCH  33  34
ENDBRANCH  32  33
ENDBRANCH  11  32
TORSDOF 8
ENDMDL
MODEL 2
REMARK VINA RESULT:      -6.8      2.496      6.525
REMARK  Name = 
REMARK  14 active torsions:
REMARK  status: ('A' for Active; 'I' for Inactive)
REMARK    1  A    between atoms: C_1  and  C_2
REMARK    2  A    between atoms: C_2  and  O_3
REMARK    3  A    between atoms: O_3  and  C_4
REMARK    4  A    between atoms: C_6  and  C_7
REMARK    5  A    between atoms: C_11  and  C_12
REMARK    6  A    between atoms: C_11  and  C_13
REMARK    7  A    between atoms: N_17  and  C_18
REMARK    8  A    between atoms: C_18  and  C_19
REMARK    9  A    between atoms: C_19  and  C_20
REMARK   10  A    between atoms: C_20  and  O_21
REMARK   11  A    between atoms: O_21  and  C_22
REMARK   12  A    between atoms: C_28  and  C_29
REMARK   13  A    between atoms: C_28  and  C_30
REMARK   14  A    between atoms: C_34  and  O_35
REMARK                            x       y       z     vdW  Elec       q    Type
REMARK                         _______ _______ _______ _____ _____    ______ ____
ROOT
ATOM      1  C   UNL     1      -2.114  12.653  20.777  0.00  0.00    +0.000 C 
ATOM      2  C   UNL     1      -1.110  11.810  20.014  0.00  0.00    +0.000 C 
ATOM      3  C   UNL     1      -1.448  11.078  18.926  0.00  0.00    +0.000 C 
ATOM      4  C   UNL     1      -0.364  10.293  18.197  0.00  0.00    +0.000 C 
ATOM      5  C   UNL     1       0.965  10.054  18.940  0.00  0.00    +0.000 C 
ATOM      6  C   UNL     1       0.799   8.967  20.019  0.00  0.00    +0.000 C 
ATOM      7  C   UNL     1       2.027   9.574  17.932  0.00  0.00    +0.000 C 
ATOM      8  C   UNL     1       1.397  11.377  19.567  0.00  0.00    +0.000 C 
ATOM      9  C   UNL     1       0.312  11.835  20.510  0.00  0.00    +0.000 C 
ATOM     10  O   UNL     1       0.594  12.198  21.650  0.00  0.00    +0.000 OA
ATOM     11  N   UNL     1      -2.793  11.062  18.419  0.00  0.00    +0.000 N 
ATOM     12  C   UNL     1      -3.772  11.918  19.022  0.00  0.00    +0.000 C 
ATOM     13  C   UNL     1      -3.466  12.703  20.085  0.00  0.00    +0.000 C 
ATOM     14  C   UNL     1      -4.486  13.667  20.628  0.00  0.00    +0.000 C 
ATOM     15  O   UNL     1      -4.337  14.249  21.700  0.00  0.00    +0.000 OA
ATOM     16  C   UNL     1      -5.732  13.911  19.815  0.00  0.00    +0.000 C 
ATOM     17  C   UNL     1      -6.274  12.570  19.334  0.00  0.00    +0.000 C 
ATOM     18  C   UNL     1      -6.628  11.660  20.531  0.00  0.00    +0.000 C 
ATOM     19  C   UNL     1      -7.551  12.790  18.506  0.00  0.00    +0.000 C 
ATOM     20  C   UNL     1      -5.191  11.926  18.447  0.00  0.00    +0.000 C 
ENDROOT
BRANCH   1  23
ATOM     21  C   UNL     1      -0.781  16.200  20.249  0.00  0.00    +0.000 A 
ATOM     22  C   UNL     1      -1.259  14.917  19.996  0.00  0.00    +0.000 A 
ATOM     23  C   UNL     1      -1.566  14.043  21.052  0.00  0.00    +0.000 A 
ATOM     24  C   UNL     1      -1.360  14.473  22.373  0.00  0.00    +0.000 A 
ATOM     25  C   UNL     1      -0.875  15.746  22.629  0.00  0.00    +0.000 A 
ATOM     26  C   UNL     1      -0.577  16.607  21.567  0.00  0.00    +0.000 A 
BRANCH  26  27
ATOM     27  O   UNL     1      -0.053  17.843  21.857  0.00  0.00    +0.000 OA
ATOM     28  H   UNL     1       0.753  17.701  22.386  0.00  0.00    +0.000 HD
ENDBRANCH  26  27
BRANCH  21  29
ATOM     29  O   UNL     1      -0.529  16.898  19.099  0.00  0.00    +0.000 OA
BRANCH  29  31
ATOM     30  C   UNL     1       0.972  17.962  17.598  0.00  0.00    +0.000 C 
ATOM     31  C   UNL     1       0.801  16.830  18.597  0.00  0.00    +0.000 C 
ENDBRANCH  29  31
ENDBRANCH  21  29
ENDBRANCH   1  23
BRANCH  11  32
ATOM     32  C   UNL     1      -3.201  10.101  17.341  0.00  0.00    +0.000 C 
BRANCH  32  33
ATOM     33  C   UNL     1      -2.939  10.588  15.909  0.00  0.00    +0.000 C 
BRANCH  33  34
ATOM     34  C   UNL     1      -3.878  10.011  14.862  0.00  0.00    +0.000 C 
BRANCH  34  35
ATOM     35  O   UNL     1      -3.220  10.075  13.599  0.00  0.00    +0.000 OA
ATOM     36  C   UNL     1      -4.087   9.791  12.513  0.00  0.00    +0.000 C 
ENDBRANCH  34  35
ENDBRANCH  33  34
ENDBRANCH  32  33
ENDBRANCH  11  32
TORSDOF 8
ENDMDL
MODEL 3
REMARK VINA RESULT:      -6.8      2.763      6.416
REMARK  Name = 
REMARK  14 active torsions:
REMARK  status: ('A' for Active; 'I' for Inactive)
REMARK    1  A    between atoms: C_1  and  C_2
REMARK    2  A    between atoms: C_2  and  O_3
REMARK    3  A    between atoms: O_3  and  C_4
REMARK    4  A    between atoms: C_6  and  C_7
REMARK    5  A    between atoms: C_11  and  C_12
REMARK    6  A    between atoms: C_11  and  C_13
REMARK    7  A    between atoms: N_17  and  C_18
REMARK    8  A    between atoms: C_18  and  C_19
REMARK    9  A    between atoms: C_19  and  C_20
REMARK   10  A    between atoms: C_20  and  O_21
REMARK   11  A    between atoms: O_21  and  C_22
REMARK   12  A    between atoms: C_28  and  C_29
REMARK   13  A    between atoms: C_28  and  C_30
REMARK   14  A    between atoms: C_34  and  O_35
REMARK                            x       y       z     vdW  Elec       q    Type
REMARK                         _______ _______ _______ _____ _____    ______ ____
ROOT
ATOM      1  C   UNL     1      -2.626  12.795  21.001  0.00  0.00    +0.000 C 
ATOM      2  C   UNL     1      -2.876  12.264  19.602  0.00  0.00    +0.000 C 
ATOM      3  C   UNL     1      -4.109  12.233  19.042  0.00  0.00    +0.000 C 
ATOM      4  C   UNL     1      -4.260  11.720  17.615  0.00  0.00    +0.000 C 
ATOM      5  C   UNL     1      -3.091  10.910  17.020  0.00  0.00    +0.000 C 
ATOM      6  C   UNL     1      -3.059   9.487  17.607  0.00  0.00    +0.000 C 
ATOM      7  C   UNL     1      -3.279  10.799  15.496  0.00  0.00    +0.000 C 
ATOM      8  C   UNL     1      -1.796  11.655  17.336  0.00  0.00    +0.000 C 
ATOM      9  C   UNL     1      -1.672  11.783  18.834  0.00  0.00    +0.000 C 
ATOM     10  O   UNL     1      -0.622  11.485  19.398  0.00  0.00    +0.000 OA
ATOM     11  N   UNL     1      -5.266  12.712  19.746  0.00  0.00    +0.000 N 
ATOM     12  C   UNL     1      -5.093  13.327  21.029  0.00  0.00    +0.000 C 
ATOM     13  C   UNL     1      -3.870  13.423  21.608  0.00  0.00    +0.000 C 
ATOM     14  C   UNL     1      -3.706  14.167  22.906  0.00  0.00    +0.000 C 
ATOM     15  O   UNL     1      -2.674  14.113  23.570  0.00  0.00    +0.000 OA
ATOM     16  C   UNL     1      -4.864  15.000  23.394  0.00  0.00    +0.000 C 
ATOM     17  C   UNL     1      -6.147  14.190  23.249  0.00  0.00    +0.000 C 
ATOM     18  C   UNL     1      -6.074  12.893  24.087  0.00  0.00    +0.000 C 
ATOM     19  C   UNL     1      -7.344  15.015  23.748  0.00  0.00    +0.000 C 
ATOM     20  C   UNL     1      -6.327  13.874  21.752  0.00  0.00    +0.000 C 
ENDROOT
BRANCH   1  23
ATOM     21  C   UNL     1      -0.406  15.843  20.355  0.00  0.00    +0.000 A 
ATOM     22  C   UNL     1      -1.481  14.959  20.314  0.00  0.00    +0.000 A 
ATOM     23  C   UNL     1      -1.442  13.747  21.022  0.00  0.00    +0.000 A 
ATOM     24  C   UNL     1      -0.289  13.423  21.757  0.00  0.00    +0.000 A 
ATOM     25  C   UNL     1       0.787  14.296  21.792  0.00  0.00    +0.000 A 
ATOM     26  C   UNL     1       0.733  15.503  21.085  0.00  0.00    +0.000 A 
BRANCH  26  27
ATOM     27  O   UNL     1       1.836  16.319  21.104  0.00  0.00    +0.000 OA
ATOM     28  H   UNL     1       1.538  17.208  21.366  0.00  0.00    +0.000 HD
ENDBRANCH  26  27
BRANCH  21  29
ATOM     29  O   UNL     1      -0.621  16.961  19.597  0.00  0.00    +0.000 OA
BRANCH  29  31
ATOM     30  C   UNL     1       0.806  17.619  17.817  0.00  0.00    +0.000 C 
ATOM     31  C   UNL     1      -0.431  16.821  18.193  0.00  0.00    +0.000 C 
ENDBRANCH  29  31
ENDBRANCH  21  29
ENDBRANCH   1  23
BRANCH  11  32
ATOM     32  C   UNL     1      -6.648  12.494  19.202  0.00  0.00    +0.000 C 
BRANCH  32  33
ATOM     33  C   UNL     1      -7.110  11.030  19.184  0.00  0.00    +0.000 C 
BRANCH  33  34
ATOM     34  C   UNL     1      -7.403  10.442  20.555  0.00  0.00    +0.000 C 
BRANCH  34  35
ATOM     35  O   UNL     1      -7.154   9.039  20.493  0.00  0.00    +0.000 OA
ATOM     36  C   UNL     1      -7.916   8.305  21.438  0.00  0.00    +0.000 C 
ENDBRANCH  34  35
ENDBRANCH  33  34
ENDBRANCH  32  33
ENDBRANCH  11  32
TORSDOF 8
ENDMDL
MODEL 4
REMARK VINA RESULT:      -6.7      2.623      6.240
REMARK  Name = 
REMARK  14 active torsions:
REMARK  status: ('A' for Active; 'I' for Inactive)
REMARK    1  A    between atoms: C_1  and  C_2
REMARK    2  A    between atoms: C_2  and  O_3
REMARK    3  A    between atoms: O_3  and  C_4
REMARK    4  A    between atoms: C_6  and  C_7
REMARK    5  A    between atoms: C_11  and  C_12
REMARK    6  A    between atoms: C_11  and  C_13
REMARK    7  A    between atoms: N_17  and  C_18
REMARK    8  A    between atoms: C_18  and  C_19
REMARK    9  A    between atoms: C_19  and  C_20
REMARK   10  A    between atoms: C_20  and  O_21
REMARK   11  A    between atoms: O_21  and  C_22
REMARK   12  A    between atoms: C_28  and  C_29
REMARK   13  A    between atoms: C_28  and  C_30
REMARK   14  A    between atoms: C_34  and  O_35
REMARK                            x       y       z     vdW  Elec       q    Type
REMARK                         _______ _______ _______ _____ _____    ______ ____
ROOT
ATOM      1  C   UNL     1      -2.048  12.655  20.953  0.00  0.00    +0.000 C 
ATOM      2  C   UNL     1      -1.111  11.792  20.128  0.00  0.00    +0.000 C 
ATOM      3  C   UNL     1      -1.524  11.101  19.039  0.00  0.00    +0.000 C 
ATOM      4  C   UNL     1      -0.504  10.293  18.246  0.00  0.00    +0.000 C 
ATOM      5  C   UNL     1       0.846   9.985  18.924  0.00  0.00    +0.000 C 
ATOM      6  C   UNL     1       0.684   8.880  19.984  0.00  0.00    +0.000 C 
ATOM      7  C   UNL     1       1.844   9.490  17.860  0.00  0.00    +0.000 C 
ATOM      8  C   UNL     1       1.356  11.276  19.561  0.00  0.00    +0.000 C 
ATOM      9  C   UNL     1       0.331  11.751  20.561  0.00  0.00    +0.000 C 
ATOM     10  O   UNL     1       0.675  12.075  21.696  0.00  0.00    +0.000 OA
ATOM     11  N   UNL     1      -2.888  11.148  18.591  0.00  0.00    +0.000 N 
ATOM     12  C   UNL     1      -3.806  12.025  19.256  0.00  0.00    +0.000 C 
ATOM     13  C   UNL     1      -3.425  12.772  20.322  0.00  0.00    +0.000 C 
ATOM     14  C   UNL     1      -4.383  13.761  20.931  0.00  0.00    +0.000 C 
ATOM     15  O   UNL     1      -4.165  14.310  22.008  0.00  0.00    +0.000 OA
ATOM     16  C   UNL     1      -5.651  14.072  20.178  0.00  0.00    +0.000 C 
ATOM     17  C   UNL     1      -6.266  12.765  19.692  0.00  0.00    +0.000 C 
ATOM     18  C   UNL     1      -6.603  11.840  20.882  0.00  0.00    +0.000 C 
ATOM     19  C   UNL     1      -7.568  13.053  18.926  0.00  0.00    +0.000 C 
ATOM     20  C   UNL     1      -5.248  12.101  18.744  0.00  0.00    +0.000 C 
ENDROOT
BRANCH   1  23
ATOM     21  C   UNL     1      -0.509  15.631  22.799  0.00  0.00    +0.000 A 
ATOM     22  C   UNL     1      -1.096  14.394  22.545  0.00  0.00    +0.000 A 
ATOM     23  C   UNL     1      -1.434  14.015  21.235  0.00  0.00    +0.000 A 
ATOM     24  C   UNL     1      -1.194  14.914  20.182  0.00  0.00    +0.000 A 
ATOM     25  C   UNL     1      -0.619  16.150  20.433  0.00  0.00    +0.000 A 
ATOM     26  C   UNL     1      -0.284  16.513  21.743  0.00  0.00    +0.000 A 
BRANCH  26  27
ATOM     27  O   UNL     1       0.239  17.764  21.958  0.00  0.00    +0.000 OA
ATOM     28  H   UNL     1       0.510  18.120  21.093  0.00  0.00    +0.000 HD
ENDBRANCH  26  27
BRANCH  21  29
ATOM     29  O   UNL     1      -0.264  15.827  24.131  0.00  0.00    +0.000 OA
BRANCH  29  31
ATOM     30  C   UNL     1      -0.896  15.970  26.416  0.00  0.00    +0.000 C 
ATOM     31  C   UNL     1      -1.401  15.862  24.986  0.00  0.00    +0.000 C 
ENDBRANCH  29  31
ENDBRANCH  21  29
ENDBRANCH   1  23
BRANCH  11  32
ATOM     32  C   UNL     1      -3.380  10.230  17.510  0.00  0.00    +0.000 C 
BRANCH  32  33
ATOM     33  C   UNL     1      -3.319  10.812  16.092  0.00  0.00    +0.000 C 
BRANCH  33  34
ATOM     34  C   UNL     1      -2.689   9.894  15.057  0.00  0.00    +0.000 C 
BRANCH  34  35
ATOM     35  O   UNL     1      -3.006  10.406  13.765  0.00  0.00    +0.000 OA
ATOM     36  C   UNL     1      -4.227   9.892  13.255  0.00  0.00    +0.000 C 
ENDBRANCH  34  35
ENDBRANCH  33  34
ENDBRANCH  32  33
ENDBRANCH  11  32
TORSDOF 8
ENDMDL
MODEL 5
REMARK VINA RESULT:      -6.6      2.480      6.032
REMARK  Name = 
REMARK  14 active torsions:
REMARK  status: ('A' for Active; 'I' for Inactive)
REMARK    1  A    between atoms: C_1  and  C_2
REMARK    2  A    between atoms: C_2  and  O_3
REMARK    3  A    between atoms: O_3  and  C_4
REMARK    4  A    between atoms: C_6  and  C_7
REMARK    5  A    between atoms: C_11  and  C_12
REMARK    6  A    between atoms: C_11  and  C_13
REMARK    7  A    between atoms: N_17  and  C_18
REMARK    8  A    between atoms: C_18  and  C_19
REMARK    9  A    between atoms: C_19  and  C_20
REMARK   10  A    between atoms: C_20  and  O_21
REMARK   11  A    between atoms: O_21  and  C_22
REMARK   12  A    between atoms: C_28  and  C_29
REMARK   13  A    between atoms: C_28  and  C_30
REMARK   14  A    between atoms: C_34  and  O_35
REMARK                            x       y       z     vdW  Elec       q    Type
REMARK                         _______ _______ _______ _____ _____    ______ ____
ROOT
ATOM      1  C   UNL     1      -1.718  12.397  20.584  0.00  0.00    +0.000 C 
ATOM      2  C   UNL     1      -2.350  11.924  19.287  0.00  0.00    +0.000 C 
ATOM      3  C   UNL     1      -3.654  12.139  18.990  0.00  0.00    +0.000 C 
ATOM      4  C   UNL     1      -4.193  11.665  17.646  0.00  0.00    +0.000 C 
ATOM      5  C   UNL     1      -3.352  10.638  16.862  0.00  0.00    +0.000 C 
ATOM      6  C   UNL     1      -3.477   9.237  17.490  0.00  0.00    +0.000 C 
ATOM      7  C   UNL     1      -3.868  10.564  15.413  0.00  0.00    +0.000 C 
ATOM      8  C   UNL     1      -1.900  11.110  16.878  0.00  0.00    +0.000 C 
ATOM      9  C   UNL     1      -1.448  11.213  18.314  0.00  0.00    +0.000 C 
ATOM     10  O   UNL     1      -0.382  10.712  18.666  0.00  0.00    +0.000 OA
ATOM     11  N   UNL     1      -4.525  12.840  19.892  0.00  0.00    +0.000 N 
ATOM     12  C   UNL     1      -3.975  13.409  21.087  0.00  0.00    +0.000 C 
ATOM     13  C   UNL     1      -2.664  13.260  21.402  0.00  0.00    +0.000 C 
ATOM     14  C   UNL     1      -2.094  13.958  22.608  0.00  0.00    +0.000 C 
ATOM     15  O   UNL     1      -0.978  13.700  23.052  0.00  0.00    +0.000 OA
ATOM     16  C   UNL     1      -2.942  15.006  23.284  0.00  0.00    +0.000 C 
ATOM     17  C   UNL     1      -4.359  14.467  23.436  0.00  0.00    +0.000 C 
ATOM     18  C   UNL     1      -4.369  13.183  24.295  0.00  0.00    +0.000 C 
ATOM     19  C   UNL     1      -5.244  15.514  24.131  0.00  0.00    +0.000 C 
ATOM     20  C   UNL     1      -4.903  14.192  22.020  0.00  0.00    +0.000 C 
ENDROOT
BRANCH   1  23
ATOM     21  C   UNL     1       0.870  14.943  19.379  0.00  0.00    +0.000 A 
ATOM     22  C   UNL     1      -0.341  14.291  19.593  0.00  0.00    +0.000 A 
ATOM     23  C   UNL     1      -0.393  13.093  20.326  0.00  0.00    +0.000 A 
ATOM     24  C   UNL     1       0.801  12.546  20.822  0.00  0.00    +0.000 A 
ATOM     25  C   UNL     1       2.011  13.187  20.602  0.00  0.00    +0.000 A 
ATOM     26  C   UNL     1       2.047  14.382  19.873  0.00  0.00    +0.000 A 
BRANCH  26  27
ATOM     27  O   UNL     1       3.268  14.962  19.635  0.00  0.00    +0.000 OA
ATOM     28  H   UNL     1       3.951  14.295  19.829  0.00  0.00    +0.000 HD
ENDBRANCH  26  27
BRANCH  21  29
ATOM     29  O   UNL     1       0.724  16.083  18.636  0.00  0.00    +0.000 OA
BRANCH  29  31
ATOM     30  C   UNL     1      -0.531  18.043  19.108  0.00  0.00    +0.000 C 
ATOM     31  C   UNL     1      -0.589  16.626  18.561  0.00  0.00    +0.000 C 
ENDBRANCH  29  31
ENDBRANCH  21  29
ENDBRANCH   1  23
BRANCH  11  32
ATOM     32  C   UNL     1      -6.005  12.900  19.648  0.00  0.00    +0.000 C 
BRANCH  32  33
ATOM     33  C   UNL     1      -6.735  11.556  19.772  0.00  0.00    +0.000 C 
BRANCH  33  34
ATOM     34  C   UNL     1      -7.534  11.385  21.054  0.00  0.00    +0.000 C 
BRANCH  34  35
ATOM     35  O   UNL     1      -7.663   9.988  21.309  0.00  0.00    +0.000 OA
ATOM     36  C   UNL     1      -7.334   9.192  20.182  0.00  0.00    +0.000 C 
ENDBRANCH  34  35
ENDBRANCH  33  34
ENDBRANCH  32  33
ENDBRANCH  11  32
TORSDOF 8
ENDMDL
MODEL 6
REMARK VINA RESULT:      -6.5      2.536      5.995
REMARK  Name = 
REMARK  14 active torsions:
REMARK  status: ('A' for Active; 'I' for Inactive)
REMARK    1  A    between atoms: C_1  and  C_2
REMARK    2  A    between atoms: C_2  and  O_3
REMARK    3  A    between atoms: O_3  and  C_4
REMARK    4  A    between atoms: C_6  and  C_7
REMARK    5  A    between atoms: C_11  and  C_12
REMARK    6  A    between atoms: C_11  and  C_13
REMARK    7  A    between atoms: N_17  and  C_18
REMARK    8  A    between atoms: C_18  and  C_19
REMARK    9  A    between atoms: C_19  and  C_20
REMARK   10  A    between atoms: C_20  and  O_21
REMARK   11  A    between atoms: O_21  and  C_22
REMARK   12  A    between atoms: C_28  and  C_29
REMARK   13  A    between atoms: C_28  and  C_30
REMARK   14  A    between atoms: C_34  and  O_35
REMARK                            x       y       z     vdW  Elec       q    Type
REMARK                         _______ _______ _______ _____ _____    ______ ____
ROOT
ATOM      1  C   UNL     1      -1.393  12.592  20.711  0.00  0.00    +0.000 C 
ATOM      2  C   UNL     1      -2.134  12.100  19.481  0.00  0.00    +0.000 C 
ATOM      3  C   UNL     1      -3.456  12.322  19.288  0.00  0.00    +0.000 C 
ATOM      4  C   UNL     1      -4.109  11.827  18.002  0.00  0.00    +0.000 C 
ATOM      5  C   UNL     1      -3.344  10.775  17.174  0.00  0.00    +0.000 C 
ATOM      6  C   UNL     1      -3.430   9.389  17.840  0.00  0.00    +0.000 C 
ATOM      7  C   UNL     1      -3.979  10.678  15.774  0.00  0.00    +0.000 C 
ATOM      8  C   UNL     1      -1.892  11.232  17.061  0.00  0.00    +0.000 C 
ATOM      9  C   UNL     1      -1.322  11.359  18.452  0.00  0.00    +0.000 C 
ATOM     10  O   UNL     1      -0.235  10.854  18.726  0.00  0.00    +0.000 OA
ATOM     11  N   UNL     1      -4.244  13.051  20.244  0.00  0.00    +0.000 N 
ATOM     12  C   UNL     1      -3.592  13.639  21.376  0.00  0.00    +0.000 C 
ATOM     13  C   UNL     1      -2.260  13.482  21.586  0.00  0.00    +0.000 C 
ATOM     14  C   UNL     1      -1.587  14.198  22.726  0.00  0.00    +0.000 C 
ATOM     15  O   UNL     1      -0.440  13.937  23.082  0.00  0.00    +0.000 OA
ATOM     16  C   UNL     1      -2.366  15.268  23.447  0.00  0.00    +0.000 C 
ATOM     17  C   UNL     1      -3.771  14.748  23.726  0.00  0.00    +0.000 C 
ATOM     18  C   UNL     1      -3.722  13.482  24.610  0.00  0.00    +0.000 C 
ATOM     19  C   UNL     1      -4.587  15.819  24.470  0.00  0.00    +0.000 C 
ATOM     20  C   UNL     1      -4.432  14.450  22.366  0.00  0.00    +0.000 C 
ENDROOT
BRANCH   1  23
ATOM     21  C   UNL     1       1.110  15.072  19.223  0.00  0.00    +0.000 A 
ATOM     22  C   UNL     1      -0.085  14.437  19.550  0.00  0.00    +0.000 A 
ATOM     23  C   UNL     1      -0.088  13.269  20.330  0.00  0.00    +0.000 A 
ATOM     24  C   UNL     1       1.138  12.732  20.758  0.00  0.00    +0.000 A 
ATOM     25  C   UNL     1       2.330  13.356  20.426  0.00  0.00    +0.000 A 
ATOM     26  C   UNL     1       2.318  14.522  19.651  0.00  0.00    +0.000 A 
BRANCH  26  27
ATOM     27  O   UNL     1       3.521  15.084  19.302  0.00  0.00    +0.000 OA
ATOM     28  H   UNL     1       3.394  16.049  19.273  0.00  0.00    +0.000 HD
ENDBRANCH  26  27
BRANCH  21  29
ATOM     29  O   UNL     1       0.915  16.184  18.450  0.00  0.00    +0.000 OA
BRANCH  29  31
ATOM     30  C   UNL     1      -0.779  17.745  17.874  0.00  0.00    +0.000 C 
ATOM     31  C   UNL     1       0.083  17.199  19.000  0.00  0.00    +0.000 C 
ENDBRANCH  29  31
ENDBRANCH  21  29
ENDBRANCH   1  23
BRANCH  11  32
ATOM     32  C   UNL     1      -5.738  13.122  20.121  0.00  0.00    +0.000 C 
BRANCH  32  33
ATOM     33  C   UNL     1      -6.496  11.968  20.790  0.00  0.00    +0.000 C 
BRANCH  33  34
ATOM     34  C   UNL     1      -7.856  12.346  21.354  0.00  0.00    +0.000 C 
BRANCH  34  35
ATOM     35  O   UNL     1      -7.644  13.177  22.493  0.00  0.00    +0.000 OA
ATOM     36  C   UNL     1      -7.315  12.436  23.658  0.00  0.00    +0.000 C 
ENDBRANCH  34  35
ENDBRANCH  33  34
ENDBRANCH  32  33
ENDBRANCH  11  32
TORSDOF 8
ENDMDL
MODEL 7
REMARK VINA RESULT:      -6.4      2.907      6.625
REMARK  Name = 
REMARK  14 active torsions:
REMARK  status: ('A' for Active; 'I' for Inactive)
REMARK    1  A    between atoms: C_1  and  C_2
REMARK    2  A    between atoms: C_2  and  O_3
REMARK    3  A    between atoms: O_3  and  C_4
REMARK    4  A    between atoms: C_6  and  C_7
REMARK    5  A    between atoms: C_11  and  C_12
REMARK    6  A    between atoms: C_11  and  C_13
REMARK    7  A    between atoms: N_17  and  C_18
REMARK    8  A    between atoms: C_18  and  C_19
REMARK    9  A    between atoms: C_19  and  C_20
REMARK   10  A    between atoms: C_20  and  O_21
REMARK   11  A    between atoms: O_21  and  C_22
REMARK   12  A    between atoms: C_28  and  C_29
REMARK   13  A    between atoms: C_28  and  C_30
REMARK   14  A    between atoms: C_34  and  O_35
REMARK                            x       y       z     vdW  Elec       q    Type
REMARK                         _______ _______ _______ _____ _____    ______ ____
ROOT
ATOM      1  C   UNL     1      -2.962  12.710  21.115  0.00  0.00    +0.000 C 
ATOM      2  C   UNL     1      -3.165  12.211  19.696  0.00  0.00    +0.000 C 
ATOM      3  C   UNL     1      -4.385  12.147  19.112  0.00  0.00    +0.000 C 
ATOM      4  C   UNL     1      -4.489  11.672  17.668  0.00  0.00    +0.000 C 
ATOM      5  C   UNL     1      -3.277  10.928  17.073  0.00  0.00    +0.000 C 
ATOM      6  C   UNL     1      -3.198   9.490  17.619  0.00  0.00    +0.000 C 
ATOM      7  C   UNL     1      -3.432  10.855  15.542  0.00  0.00    +0.000 C 
ATOM      8  C   UNL     1      -2.019  11.714  17.435  0.00  0.00    +0.000 C 
ATOM      9  C   UNL     1      -1.929  11.802  18.939  0.00  0.00    +0.000 C 
ATOM     10  O   UNL     1      -0.878  11.530  19.514  0.00  0.00    +0.000 OA
ATOM     11  N   UNL     1      -5.574  12.559  19.807  0.00  0.00    +0.000 N 
ATOM     12  C   UNL     1      -5.449  13.141  21.110  0.00  0.00    +0.000 C 
ATOM     13  C   UNL     1      -4.242  13.269  21.715  0.00  0.00    +0.000 C 
ATOM     14  C   UNL     1      -4.132  13.980  23.038  0.00  0.00    +0.000 C 
ATOM     15  O   UNL     1      -3.111  13.947  23.720  0.00  0.00    +0.000 OA
ATOM     16  C   UNL     1      -5.332  14.750  23.527  0.00  0.00    +0.000 C 
ATOM     17  C   UNL     1      -6.577  13.894  23.334  0.00  0.00    +0.000 C 
ATOM     18  C   UNL     1      -6.467  12.577  24.134  0.00  0.00    +0.000 C 
ATOM     19  C   UNL     1      -7.817  14.655  23.833  0.00  0.00    +0.000 C 
ATOM     20  C   UNL     1      -6.718  13.616  21.825  0.00  0.00    +0.000 C 
ENDROOT
BRANCH   1  23
ATOM     21  C   UNL     1      -0.837  15.842  20.562  0.00  0.00    +0.000 A 
ATOM     22  C   UNL     1      -1.874  14.917  20.475  0.00  0.00    +0.000 A 
ATOM     23  C   UNL     1      -1.819  13.707  21.187  0.00  0.00    +0.000 A 
ATOM     24  C   UNL     1      -0.688  13.430  21.973  0.00  0.00    +0.000 A 
ATOM     25  C   UNL     1       0.351  14.344  22.054  0.00  0.00    +0.000 A 
ATOM     26  C   UNL     1       0.280  15.548  21.343  0.00  0.00    +0.000 A 
BRANCH  26  27
ATOM     27  O   UNL     1       1.349  16.407  21.409  0.00  0.00    +0.000 OA
ATOM     28  H   UNL     1       1.057  17.199  21.895  0.00  0.00    +0.000 HD
ENDBRANCH  26  27
BRANCH  21  29
ATOM     29  O   UNL     1      -1.062  16.951  19.793  0.00  0.00    +0.000 OA
BRANCH  29  31
ATOM     30  C   UNL     1      -0.889  18.236  17.803  0.00  0.00    +0.000 C 
ATOM     31  C   UNL     1      -0.629  16.880  18.439  0.00  0.00    +0.000 C 
ENDBRANCH  29  31
ENDBRANCH  21  29
ENDBRANCH   1  23
BRANCH  11  32
ATOM     32  C   UNL     1      -6.935  12.301  19.230  0.00  0.00    +0.000 C 
BRANCH  32  33
ATOM     33  C   UNL     1      -7.329  13.224  18.069  0.00  0.00    +0.000 C 
BRANCH  33  34
ATOM     34  C   UNL     1      -7.705  14.637  18.483  0.00  0.00    +0.000 C 
BRANCH  34  35
ATOM     35  O   UNL     1      -6.654  15.509  18.076  0.00  0.00    +0.000 OA
ATOM     36  C   UNL     1      -6.124  16.270  19.150  0.00  0.00    +0.000 C 
ENDBRANCH  34  35
ENDBRANCH  33  34
ENDBRANCH  32  33
ENDBRANCH  11  32
TORSDOF 8
ENDMDL
MODEL 8
REMARK VINA RESULT:      -6.3      2.548      6.522
REMARK  Name = 
REMARK  14 active torsions:
REMARK  status: ('A' for Active; 'I' for Inactive)
REMARK    1  A    between atoms: C_1  and  C_2
REMARK    2  A    between atoms: C_2  and  O_3
REMARK    3  A    between atoms: O_3  and  C_4
REMARK    4  A    between atoms: C_6  and  C_7
REMARK    5  A    between atoms: C_11  and  C_12
REMARK    6  A    between atoms: C_11  and  C_13
REMARK    7  A    between atoms: N_17  and  C_18
REMARK    8  A    between atoms: C_18  and  C_19
REMARK    9  A    between atoms: C_19  and  C_20
REMARK   10  A    between atoms: C_20  and  O_21
REMARK   11  A    between atoms: O_21  and  C_22
REMARK   12  A    between atoms: C_28  and  C_29
REMARK   13  A    between atoms: C_28  and  C_30
REMARK   14  A    between atoms: C_34  and  O_35
REMARK                            x       y       z     vdW  Elec       q    Type
REMARK                         _______ _______ _______ _____ _____    ______ ____
ROOT
ATOM      1  C   UNL     1      -2.794  12.476  21.549  0.00  0.00    +0.000 C 
ATOM      2  C   UNL     1      -1.589  12.107  20.702  0.00  0.00    +0.000 C 
ATOM      3  C   UNL     1      -1.680  11.859  19.373  0.00  0.00    +0.000 C 
ATOM      4  C   UNL     1      -0.411  11.536  18.593  0.00  0.00    +0.000 C 
ATOM      5  C   UNL     1       0.837  11.128  19.400  0.00  0.00    +0.000 C 
ATOM      6  C   UNL     1       0.702   9.686  19.922  0.00  0.00    +0.000 C 
ATOM      7  C   UNL     1       2.074  11.195  18.484  0.00  0.00    +0.000 C 
ATOM      8  C   UNL     1       0.989  12.111  20.559  0.00  0.00    +0.000 C 
ATOM      9  C   UNL     1      -0.259  12.048  21.404  0.00  0.00    +0.000 C 
ATOM     10  O   UNL     1      -0.176  11.936  22.625  0.00  0.00    +0.000 OA
ATOM     11  N   UNL     1      -2.935  11.937  18.678  0.00  0.00    +0.000 N 
ATOM     12  C   UNL     1      -4.096  12.385  19.389  0.00  0.00    +0.000 C 
ATOM     13  C   UNL     1      -4.042  12.689  20.710  0.00  0.00    +0.000 C 
ATOM     14  C   UNL     1      -5.252  13.256  21.403  0.00  0.00    +0.000 C 
ATOM     15  O   UNL     1      -5.323  13.359  22.625  0.00  0.00    +0.000 OA
ATOM     16  C   UNL     1      -6.411  13.705  20.549  0.00  0.00    +0.000 C 
ATOM     17  C   UNL     1      -6.687  12.637  19.497  0.00  0.00    +0.000 C 
ATOM     18  C   UNL     1      -7.047  11.290  20.162  0.00  0.00    +0.000 C 
ATOM     19  C   UNL     1      -7.871  13.066  18.615  0.00  0.00    +0.000 C 
ATOM     20  C   UNL     1      -5.420  12.506  18.629  0.00  0.00    +0.000 C 
ENDROOT
BRANCH   1  23
ATOM     21  C   UNL     1      -1.903  16.018  22.686  0.00  0.00    +0.000 A 
ATOM     22  C   UNL     1      -2.152  14.915  21.875  0.00  0.00    +0.000 A 
ATOM     23  C   UNL     1      -2.494  13.673  22.435  0.00  0.00    +0.000 A 
ATOM     24  C   UNL     1      -2.557  13.551  23.833  0.00  0.00    +0.000 A 
ATOM     25  C   UNL     1      -2.300  14.644  24.645  0.00  0.00    +0.000 A 
ATOM     26  C   UNL     1      -1.965  15.877  24.073  0.00  0.00    +0.000 A 
BRANCH  26  27
ATOM     27  O   UNL     1      -1.669  16.924  24.909  0.00  0.00    +0.000 OA
ATOM     28  H   UNL     1      -0.699  16.992  24.961  0.00  0.00    +0.000 HD
ENDBRANCH  26  27
BRANCH  21  29
ATOM     29  O   UNL     1      -1.575  17.133  21.965  0.00  0.00    +0.000 OA
BRANCH  29  31
ATOM     30  C   UNL     1      -1.853  18.344  19.941  0.00  0.00    +0.000 C 
ATOM     31  C   UNL     1      -1.547  16.986  20.549  0.00  0.00    +0.000 C 
ENDBRANCH  29  31
ENDBRANCH  21  29
ENDBRANCH   1  23
BRANCH  11  32
ATOM     32  C   UNL     1      -3.062  11.471  17.257  0.00  0.00    +0.000 C 
BRANCH  32  33
ATOM     33  C   UNL     1      -3.108   9.947  17.079  0.00  0.00    +0.000 C 
BRANCH  33  34
ATOM     34  C   UNL     1      -2.968   9.473  15.642  0.00  0.00    +0.000 C 
BRANCH  34  35
ATOM     35  O   UNL     1      -3.750  10.333  14.817  0.00  0.00    +0.000 OA
ATOM     36  C   UNL     1      -3.728   9.952  13.450  0.00  0.00    +0.000 C 
ENDBRANCH  34  35
ENDBRANCH  33  34
ENDBRANCH  32  33
ENDBRANCH  11  32
TORSDOF 8
ENDMDL
MODEL 9
REMARK VINA RESULT:      -6.3      0.909      2.077
REMARK  Name = 
REMARK  14 active torsions:
REMARK  status: ('A' for Active; 'I' for Inactive)
REMARK    1  A    between atoms: C_1  and  C_2
REMARK    2  A    between atoms: C_2  and  O_3
REMARK    3  A    between atoms: O_3  and  C_4
REMARK    4  A    between atoms: C_6  and  C_7
REMARK    5  A    between atoms: C_11  and  C_12
REMARK    6  A    between atoms: C_11  and  C_13
REMARK    7  A    between atoms: N_17  and  C_18
REMARK    8  A    between atoms: C_18  and  C_19
REMARK    9  A    between atoms: C_19  and  C_20
REMARK   10  A    between atoms: C_20  and  O_21
REMARK   11  A    between atoms: O_21  and  C_22
REMARK   12  A    between atoms: C_28  and  C_29
REMARK   13  A    between atoms: C_28  and  C_30
REMARK   14  A    between atoms: C_34  and  O_35
REMARK                            x       y       z     vdW  Elec       q    Type
REMARK                         _______ _______ _______ _____ _____    ______ ____
ROOT
ATOM      1  C   UNL     1      -0.419  11.674  18.769  0.00  0.00    +0.000 C 
ATOM      2  C   UNL     1      -0.028  12.799  19.710  0.00  0.00    +0.000 C 
ATOM      3  C   UNL     1      -0.942  13.574  20.340  0.00  0.00    +0.000 C 
ATOM      4  C   UNL     1      -0.458  14.655  21.300  0.00  0.00    +0.000 C 
ATOM      5  C   UNL     1       1.024  15.071  21.217  0.00  0.00    +0.000 C 
ATOM      6  C   UNL     1       1.274  15.954  19.980  0.00  0.00    +0.000 C 
ATOM      7  C   UNL     1       1.389  15.886  22.473  0.00  0.00    +0.000 C 
ATOM      8  C   UNL     1       1.866  13.799  21.154  0.00  0.00    +0.000 C 
ATOM      9  C   UNL     1       1.446  13.010  19.939  0.00  0.00    +0.000 C 
ATOM     10  O   UNL     1       2.291  12.573  19.160  0.00  0.00    +0.000 OA
ATOM     11  N   UNL     1      -2.353  13.373  20.158  0.00  0.00    +0.000 N 
ATOM     12  C   UNL     1      -2.799  12.262  19.370  0.00  0.00    +0.000 C 
ATOM     13  C   UNL     1      -1.919  11.430  18.758  0.00  0.00    +0.000 C 
ATOM     14  C   UNL     1      -2.416  10.213  18.025  0.00  0.00    +0.000 C 
ATOM     15  O   UNL     1      -1.692   9.545  17.291  0.00  0.00    +0.000 OA
ATOM     16  C   UNL     1      -3.859   9.818  18.208  0.00  0.00    +0.000 C 
ATOM     17  C   UNL     1      -4.728  11.066  18.091  0.00  0.00    +0.000 C 
ATOM     18  C   UNL     1      -4.560  11.723  16.703  0.00  0.00    +0.000 C 
ATOM     19  C   UNL     1      -6.208  10.690  18.267  0.00  0.00    +0.000 C 
ATOM     20  C   UNL     1      -4.305  12.030  19.217  0.00  0.00    +0.000 C 
ENDROOT
BRANCH   1  23
ATOM     21  C   UNL     1       1.873   8.637  18.377  0.00  0.00    +0.000 A 
ATOM     22  C   UNL     1       1.138   9.783  18.087  0.00  0.00    +0.000 A 
ATOM     23  C   UNL     1       0.360  10.407  19.077  0.00  0.00    +0.000 A 
ATOM     24  C   UNL     1       0.313   9.843  20.362  0.00  0.00    +0.000 A 
ATOM     25  C   UNL     1       1.035   8.696  20.652  0.00  0.00    +0.000 A 
ATOM     26  C   UNL     1       1.809   8.087  19.657  0.00  0.00    +0.000 A 
BRANCH  26  27
ATOM     27  O   UNL     1       2.472   6.926  19.967  0.00  0.00    +0.000 OA
ATOM     28  H   UNL     1       1.865   6.186  19.787  0.00  0.00    +0.000 HD
ENDBRANCH  26  27
BRANCH  21  29
ATOM     29  O   UNL     1       2.557   8.167  17.289  0.00  0.00    +0.000 OA
BRANCH  29  31
ATOM     30  C   UNL     1       4.300   6.574  17.035  0.00  0.00    +0.000 C 
ATOM     31  C   UNL     1       3.961   7.997  17.449  0.00  0.00    +0.000 C 
ENDBRANCH  29  31
ENDBRANCH  21  29
ENDBRANCH   1  23
BRANCH  11  32
ATOM     32  C   UNL     1      -3.351  14.355  20.699  0.00  0.00    +0.000 C 
BRANCH  32  33
ATOM     33  C   UNL     1      -4.032  13.929  22.007  0.00  0.00    +0.000 C 
BRANCH  33  34
ATOM     34  C   UNL     1      -3.351  12.777  22.729  0.00  0.00    +0.000 C 
BRANCH  34  35
ATOM     35  O   UNL     1      -4.251  12.289  23.722  0.00  0.00    +0.000 OA
ATOM     36  C   UNL     1      -5.449  13.045  23.797  0.00  0.00    +0.000 C 
ENDBRANCH  34  35
ENDBRANCH  33  34
ENDBRANCH  32  33
ENDBRANCH  11  32
TORSDOF 8
ENDMDL
