MODEL 1
REMARK VINA RESULT:      -7.6      0.000      0.000
REMARK  Name = 
REMARK  1 active torsions:
REMARK  status: ('A' for Active; 'I' for Inactive)
REMARK    1  A    between atoms: C_5  and  C_6
REMARK                            x       y       z     vdW  Elec       q    Type
REMARK                         _______ _______ _______ _____ _____    ______ ____
ROOT
ATOM      1  C   UNL     1       3.782   6.079  18.792  0.00  0.00    +0.000 C 
ATOM      2  C   UNL     1       3.743   5.323  17.470  0.00  0.00    +0.000 C 
ATOM      3  O   UNL     1       3.486   3.952  17.785  0.00  0.00    +0.000 OA
ATOM      4  C   UNL     1       2.970   3.954  19.110  0.00  0.00    +0.000 C 
ATOM      5  C   UNL     1       1.433   3.971  19.083  0.00  0.00    +0.000 C 
ATOM      6  C   UNL     1       0.854   3.929  20.497  0.00  0.00    +0.000 C 
ATOM      7  C   UNL     1       1.361   2.711  21.267  0.00  0.00    +0.000 C 
ATOM      8  C   UNL     1       2.885   2.603  21.252  0.00  0.00    +0.000 C 
ATOM      9  C   UNL     1       3.456   2.699  19.839  0.00  0.00    +0.000 C 
ATOM     10  O   UNL     1       3.457   5.109  19.798  0.00  0.00    +0.000 OA
ENDROOT
BRANCH   1  15
ATOM     11  C   UNL     1      -0.362  10.233  20.654  0.00  0.00    +0.000 A 
ATOM     12  C   UNL     1       0.332   9.110  21.039  0.00  0.00    +0.000 A 
ATOM     13  C   UNL     1       1.224   8.630  20.023  0.00  0.00    +0.000 A 
ATOM     14  C   UNL     1       2.095   7.522  20.009  0.00  0.00    +0.000 A 
ATOM     15  C   UNL     1       2.843   7.273  18.856  0.00  0.00    +0.000 A 
ATOM     16  N   UNL     1       2.799   8.090  17.781  0.00  0.00    +0.000 NA
ATOM     17  C   UNL     1       1.964   9.157  17.773  0.00  0.00    +0.000 A 
ATOM     18  C   UNL     1       1.171   9.434  18.886  0.00  0.00    +0.000 A 
ATOM     19  S   UNL     1       0.045  10.722  19.072  0.00  0.00    +0.000 S 
ENDBRANCH   1  15
TORSDOF 1
ENDMDL
MODEL 2
REMARK VINA RESULT:      -7.1      3.585      4.685
REMARK  Name = 
REMARK  1 active torsions:
REMARK  status: ('A' for Active; 'I' for Inactive)
REMARK    1  A    between atoms: C_5  and  C_6
REMARK                            x       y       z     vdW  Elec       q    Type
REMARK                         _______ _______ _______ _____ _____    ______ ____
ROOT
ATOM      1  C   UNL     1       3.962   3.214  17.519  0.00  0.00    +0.000 C 
ATOM      2  C   UNL     1       2.686   3.370  16.702  0.00  0.00    +0.000 C 
ATOM      3  O   UNL     1       1.594   3.089  17.582  0.00  0.00    +0.000 OA
ATOM      4  C   UNL     1       2.124   3.201  18.897  0.00  0.00    +0.000 C 
ATOM      5  C   UNL     1       1.877   4.612  19.453  0.00  0.00    +0.000 C 
ATOM      6  C   UNL     1       2.399   4.743  20.883  0.00  0.00    +0.000 C 
ATOM      7  C   UNL     1       1.776   3.692  21.799  0.00  0.00    +0.000 C 
ATOM      8  C   UNL     1       1.922   2.275  21.247  0.00  0.00    +0.000 C 
ATOM      9  C   UNL     1       1.446   2.168  19.800  0.00  0.00    +0.000 C 
ATOM     10  O   UNL     1       3.528   2.933  18.858  0.00  0.00    +0.000 OA
ENDROOT
BRANCH   1  15
ATOM     11  C   UNL     1       8.399   7.295  18.763  0.00  0.00    +0.000 A 
ATOM     12  C   UNL     1       7.871   6.083  19.140  0.00  0.00    +0.000 A 
ATOM     13  C   UNL     1       6.751   5.688  18.334  0.00  0.00    +0.000 A 
ATOM     14  C   UNL     1       5.932   4.542  18.392  0.00  0.00    +0.000 A 
ATOM     15  C   UNL     1       4.880   4.425  17.481  0.00  0.00    +0.000 A 
ATOM     16  N   UNL     1       4.659   5.344  16.517  0.00  0.00    +0.000 NA
ATOM     17  C   UNL     1       5.432   6.455  16.447  0.00  0.00    +0.000 A 
ATOM     18  C   UNL     1       6.478   6.638  17.352  0.00  0.00    +0.000 A 
ATOM     19  S   UNL     1       7.559   7.973  17.443  0.00  0.00    +0.000 S 
ENDBRANCH   1  15
TORSDOF 1
ENDMDL
MODEL 3
REMARK VINA RESULT:      -7.1      1.078      1.164
REMARK  Name = 
REMARK  1 active torsions:
REMARK  status: ('A' for Active; 'I' for Inactive)
REMARK    1  A    between atoms: C_5  and  C_6
REMARK                            x       y       z     vdW  Elec       q    Type
REMARK                         _______ _______ _______ _____ _____    ______ ____
ROOT
ATOM      1  C   UNL     1       4.055   6.049  18.473  0.00  0.00    +0.000 C 
ATOM      2  C   UNL     1       4.360   5.800  17.001  0.00  0.00    +0.000 C 
ATOM      3  O   UNL     1       4.124   4.410  16.759  0.00  0.00    +0.000 OA
ATOM      4  C   UNL     1       3.326   3.962  17.848  0.00  0.00    +0.000 C 
ATOM      5  C   UNL     1       1.836   4.018  17.474  0.00  0.00    +0.000 C 
ATOM      6  C   UNL     1       0.959   3.500  18.613  0.00  0.00    +0.000 C 
ATOM      7  C   UNL     1       1.356   2.081  19.015  0.00  0.00    +0.000 C 
ATOM      8  C   UNL     1       2.848   1.954  19.317  0.00  0.00    +0.000 C 
ATOM      9  C   UNL     1       3.714   2.524  18.195  0.00  0.00    +0.000 C 
ATOM     10  O   UNL     1       3.574   4.797  18.982  0.00  0.00    +0.000 OA
ENDROOT
BRANCH   1  15
ATOM     11  C   UNL     1      -0.215   9.688  21.009  0.00  0.00    +0.000 A 
ATOM     12  C   UNL     1       0.564   8.575  21.225  0.00  0.00    +0.000 A 
ATOM     13  C   UNL     1       1.425   8.273  20.117  0.00  0.00    +0.000 A 
ATOM     14  C   UNL     1       2.357   7.232  19.931  0.00  0.00    +0.000 A 
ATOM     15  C   UNL     1       3.053   7.165  18.722  0.00  0.00    +0.000 A 
ATOM     16  N   UNL     1       2.902   8.095  17.755  0.00  0.00    +0.000 NA
ATOM     17  C   UNL     1       2.008   9.101  17.912  0.00  0.00    +0.000 A 
ATOM     18  C   UNL     1       1.263   9.197  19.087  0.00  0.00    +0.000 A 
ATOM     19  S   UNL     1       0.076  10.380  19.478  0.00  0.00    +0.000 S 
ENDBRANCH   1  15
TORSDOF 1
ENDMDL
MODEL 4
REMARK VINA RESULT:      -6.9      4.405      6.618
REMARK  Name = 
REMARK  1 active torsions:
REMARK  status: ('A' for Active; 'I' for Inactive)
REMARK    1  A    between atoms: C_5  and  C_6
REMARK                            x       y       z     vdW  Elec       q    Type
REMARK                         _______ _______ _______ _____ _____    ______ ____
ROOT
ATOM      1  C   UNL     1       5.889   5.678  17.413  0.00  0.00    +0.000 C 
ATOM      2  C   UNL     1       6.633   4.914  18.500  0.00  0.00    +0.000 C 
ATOM      3  O   UNL     1       5.647   4.437  19.420  0.00  0.00    +0.000 OA
ATOM      4  C   UNL     1       4.408   4.509  18.723  0.00  0.00    +0.000 C 
ATOM      5  C   UNL     1       4.085   3.156  18.070  0.00  0.00    +0.000 C 
ATOM      6  C   UNL     1       2.736   3.197  17.352  0.00  0.00    +0.000 C 
ATOM      7  C   UNL     1       1.615   3.611  18.302  0.00  0.00    +0.000 C 
ATOM      8  C   UNL     1       1.927   4.911  19.042  0.00  0.00    +0.000 C 
ATOM      9  C   UNL     1       3.300   4.879  19.711  0.00  0.00    +0.000 C 
ATOM     10  O   UNL     1       4.496   5.525  17.721  0.00  0.00    +0.000 OA
ENDROOT
BRANCH   1  15
ATOM     11  C   UNL     1       5.462   3.167  11.809  0.00  0.00    +0.000 A 
ATOM     12  C   UNL     1       4.764   3.418  12.967  0.00  0.00    +0.000 A 
ATOM     13  C   UNL     1       5.544   4.122  13.946  0.00  0.00    +0.000 A 
ATOM     14  C   UNL     1       5.217   4.556  15.246  0.00  0.00    +0.000 A 
ATOM     15  C   UNL     1       6.194   5.209  16.000  0.00  0.00    +0.000 A 
ATOM     16  N   UNL     1       7.419   5.483  15.502  0.00  0.00    +0.000 NA
ATOM     17  C   UNL     1       7.756   5.070  14.257  0.00  0.00    +0.000 A 
ATOM     18  C   UNL     1       6.827   4.386  13.472  0.00  0.00    +0.000 A 
ATOM     19  S   UNL     1       7.056   3.769  11.883  0.00  0.00    +0.000 S 
ENDBRANCH   1  15
TORSDOF 1
ENDMDL
MODEL 5
REMARK VINA RESULT:      -6.9      3.623      5.728
REMARK  Name = 
REMARK  1 active torsions:
REMARK  status: ('A' for Active; 'I' for Inactive)
REMARK    1  A    between atoms: C_5  and  C_6
REMARK                            x       y       z     vdW  Elec       q    Type
REMARK                         _______ _______ _______ _____ _____    ______ ____
ROOT
ATOM      1  C   UNL     1       4.570   6.168  16.550  0.00  0.00    +0.000 C 
ATOM      2  C   UNL     1       5.330   5.573  15.371  0.00  0.00    +0.000 C 
ATOM      3  O   UNL     1       6.694   5.978  15.511  0.00  0.00    +0.000 OA
ATOM      4  C   UNL     1       6.835   6.387  16.866  0.00  0.00    +0.000 C 
ATOM      5  C   UNL     1       7.359   5.224  17.722  0.00  0.00    +0.000 C 
ATOM      6  C   UNL     1       7.560   5.653  19.176  0.00  0.00    +0.000 C 
ATOM      7  C   UNL     1       8.499   6.853  19.274  0.00  0.00    +0.000 C 
ATOM      8  C   UNL     1       8.066   8.009  18.375  0.00  0.00    +0.000 C 
ATOM      9  C   UNL     1       7.817   7.559  16.936  0.00  0.00    +0.000 C 
ATOM     10  O   UNL     1       5.563   6.818  17.357  0.00  0.00    +0.000 OA
ENDROOT
BRANCH   1  15
ATOM     11  C   UNL     1       1.054   3.488  20.833  0.00  0.00    +0.000 A 
ATOM     12  C   UNL     1       1.578   4.691  20.423  0.00  0.00    +0.000 A 
ATOM     13  C   UNL     1       2.363   4.579  19.227  0.00  0.00    +0.000 A 
ATOM     14  C   UNL     1       3.070   5.553  18.494  0.00  0.00    +0.000 A 
ATOM     15  C   UNL     1       3.780   5.153  17.360  0.00  0.00    +0.000 A 
ATOM     16  N   UNL     1       3.765   3.877  16.917  0.00  0.00    +0.000 NA
ATOM     17  C   UNL     1       3.096   2.925  17.611  0.00  0.00    +0.000 A 
ATOM     18  C   UNL     1       2.395   3.264  18.768  0.00  0.00    +0.000 A 
ATOM     19  S   UNL     1       1.499   2.213  19.792  0.00  0.00    +0.000 S 
ENDBRANCH   1  15
TORSDOF 1
ENDMDL
MODEL 6
REMARK VINA RESULT:      -6.9      1.958      3.884
REMARK  Name = 
REMARK  1 active torsions:
REMARK  status: ('A' for Active; 'I' for Inactive)
REMARK    1  A    between atoms: C_5  and  C_6
REMARK                            x       y       z     vdW  Elec       q    Type
REMARK                         _______ _______ _______ _____ _____    ______ ____
ROOT
ATOM      1  C   UNL     1       3.146   4.653  18.821  0.00  0.00    +0.000 C 
ATOM      2  C   UNL     1       4.317   4.236  19.701  0.00  0.00    +0.000 C 
ATOM      3  O   UNL     1       5.405   3.930  18.825  0.00  0.00    +0.000 OA
ATOM      4  C   UNL     1       5.075   4.534  17.580  0.00  0.00    +0.000 C 
ATOM      5  C   UNL     1       5.719   5.926  17.477  0.00  0.00    +0.000 C 
ATOM      6  C   UNL     1       5.415   6.579  16.129  0.00  0.00    +0.000 C 
ATOM      7  C   UNL     1       5.870   5.694  14.971  0.00  0.00    +0.000 C 
ATOM      8  C   UNL     1       5.323   4.271  15.072  0.00  0.00    +0.000 C 
ATOM      9  C   UNL     1       5.586   3.648  16.442  0.00  0.00    +0.000 C 
ATOM     10  O   UNL     1       3.653   4.647  17.479  0.00  0.00    +0.000 OA
ENDROOT
BRANCH   1  15
ATOM     11  C   UNL     1       1.219  10.496  18.596  0.00  0.00    +0.000 A 
ATOM     12  C   UNL     1       1.798   9.490  17.858  0.00  0.00    +0.000 A 
ATOM     13  C   UNL     1       1.954   8.272  18.601  0.00  0.00    +0.000 A 
ATOM     14  C   UNL     1       2.502   7.028  18.227  0.00  0.00    +0.000 A 
ATOM     15  C   UNL     1       2.549   6.005  19.177  0.00  0.00    +0.000 A 
ATOM     16  N   UNL     1       2.038   6.154  20.418  0.00  0.00    +0.000 NA
ATOM     17  C   UNL     1       1.513   7.343  20.799  0.00  0.00    +0.000 A 
ATOM     18  C   UNL     1       1.469   8.409  19.900  0.00  0.00    +0.000 A 
ATOM     19  S   UNL     1       0.860   9.992  20.185  0.00  0.00    +0.000 S 
ENDBRANCH   1  15
TORSDOF 1
ENDMDL
MODEL 7
REMARK VINA RESULT:      -6.8      1.503      1.942
REMARK  Name = 
REMARK  1 active torsions:
REMARK  status: ('A' for Active; 'I' for Inactive)
REMARK    1  A    between atoms: C_5  and  C_6
REMARK                            x       y       z     vdW  Elec       q    Type
REMARK                         _______ _______ _______ _____ _____    ______ ____
ROOT
ATOM      1  C   UNL     1       3.974   5.975  18.649  0.00  0.00    +0.000 C 
ATOM      2  C   UNL     1       4.230   5.918  17.149  0.00  0.00    +0.000 C 
ATOM      3  O   UNL     1       4.028   4.561  16.746  0.00  0.00    +0.000 OA
ATOM      4  C   UNL     1       3.285   3.956  17.798  0.00  0.00    +0.000 C 
ATOM      5  C   UNL     1       1.782   4.005  17.485  0.00  0.00    +0.000 C 
ATOM      6  C   UNL     1       0.965   3.321  18.582  0.00  0.00    +0.000 C 
ATOM      7  C   UNL     1       1.420   1.879  18.792  0.00  0.00    +0.000 C 
ATOM      8  C   UNL     1       2.926   1.768  19.025  0.00  0.00    +0.000 C 
ATOM      9  C   UNL     1       3.730   2.500  17.952  0.00  0.00    +0.000 C 
ATOM     10  O   UNL     1       3.552   4.654  19.017  0.00  0.00    +0.000 OA
ENDROOT
BRANCH   1  15
ATOM     11  C   UNL     1       0.223  10.855  18.746  0.00  0.00    +0.000 A 
ATOM     12  C   UNL     1       1.128  10.167  17.971  0.00  0.00    +0.000 A 
ATOM     13  C   UNL     1       1.655   9.006  18.629  0.00  0.00    +0.000 A 
ATOM     14  C   UNL     1       2.597   8.051  18.197  0.00  0.00    +0.000 A 
ATOM     15  C   UNL     1       2.950   7.017  19.068  0.00  0.00    +0.000 A 
ATOM     16  N   UNL     1       2.377   6.876  20.283  0.00  0.00    +0.000 NA
ATOM     17  C   UNL     1       1.474   7.787  20.719  0.00  0.00    +0.000 A 
ATOM     18  C   UNL     1       1.108   8.856  19.901  0.00  0.00    +0.000 A 
ATOM     19  S   UNL     1      -0.002  10.118  20.267  0.00  0.00    +0.000 S 
ENDBRANCH   1  15
TORSDOF 1
ENDMDL
MODEL 8
REMARK VINA RESULT:      -6.8      3.729      5.841
REMARK  Name = 
REMARK  1 active torsions:
REMARK  status: ('A' for Active; 'I' for Inactive)
REMARK    1  A    between atoms: C_5  and  C_6
REMARK                            x       y       z     vdW  Elec       q    Type
REMARK                         _______ _______ _______ _____ _____    ______ ____
ROOT
ATOM      1  C   UNL     1       6.898   4.807  17.960  0.00  0.00    +0.000 C 
ATOM      2  C   UNL     1       7.219   6.287  17.793  0.00  0.00    +0.000 C 
ATOM      3  O   UNL     1       7.412   6.512  16.394  0.00  0.00    +0.000 OA
ATOM      4  C   UNL     1       6.823   5.394  15.740  0.00  0.00    +0.000 C 
ATOM      5  C   UNL     1       5.377   5.717  15.333  0.00  0.00    +0.000 C 
ATOM      6  C   UNL     1       4.736   4.545  14.590  0.00  0.00    +0.000 C 
ATOM      7  C   UNL     1       5.560   4.149  13.366  0.00  0.00    +0.000 C 
ATOM      8  C   UNL     1       7.028   3.898  13.706  0.00  0.00    +0.000 C 
ATOM      9  C   UNL     1       7.643   5.053  14.495  0.00  0.00    +0.000 C 
ATOM     10  O   UNL     1       6.839   4.274  16.629  0.00  0.00    +0.000 OA
ENDROOT
BRANCH   1  15
ATOM     11  C   UNL     1       1.419   5.407  20.702  0.00  0.00    +0.000 A 
ATOM     12  C   UNL     1       2.370   6.075  19.966  0.00  0.00    +0.000 A 
ATOM     13  C   UNL     1       3.489   5.246  19.618  0.00  0.00    +0.000 A 
ATOM     14  C   UNL     1       4.662   5.539  18.893  0.00  0.00    +0.000 A 
ATOM     15  C   UNL     1       5.612   4.530  18.721  0.00  0.00    +0.000 A 
ATOM     16  N   UNL     1       5.415   3.274  19.179  0.00  0.00    +0.000 NA
ATOM     17  C   UNL     1       4.298   2.974  19.883  0.00  0.00    +0.000 A 
ATOM     18  C   UNL     1       3.330   3.953  20.110  0.00  0.00    +0.000 A 
ATOM     19  S   UNL     1       1.858   3.783  20.983  0.00  0.00    +0.000 S 
ENDBRANCH   1  15
TORSDOF 1
ENDMDL
MODEL 9
REMARK VINA RESULT:      -6.7      1.073      1.566
REMARK  Name = 
REMARK  1 active torsions:
REMARK  status: ('A' for Active; 'I' for Inactive)
REMARK    1  A    between atoms: C_5  and  C_6
REMARK                            x       y       z     vdW  Elec       q    Type
REMARK                         _______ _______ _______ _____ _____    ______ ____
ROOT
ATOM      1  C   UNL     1       3.499   6.181  18.973  0.00  0.00    +0.000 C 
ATOM      2  C   UNL     1       3.265   5.567  17.599  0.00  0.00    +0.000 C 
ATOM      3  O   UNL     1       3.131   4.156  17.794  0.00  0.00    +0.000 OA
ATOM      4  C   UNL     1       2.855   3.986  19.180  0.00  0.00    +0.000 C 
ATOM      5  C   UNL     1       1.339   3.905  19.415  0.00  0.00    +0.000 C 
ATOM      6  C   UNL     1       1.019   3.678  20.892  0.00  0.00    +0.000 C 
ATOM      7  C   UNL     1       1.709   2.422  21.421  0.00  0.00    +0.000 C 
ATOM      8  C   UNL     1       3.210   2.416  21.137  0.00  0.00    +0.000 C 
ATOM      9  C   UNL     1       3.519   2.697  19.668  0.00  0.00    +0.000 C 
ATOM     10  O   UNL     1       3.401   5.092  19.903  0.00  0.00    +0.000 OA
ENDROOT
BRANCH   1  15
ATOM     11  C   UNL     1      -0.046  11.209  18.758  0.00  0.00    +0.000 A 
ATOM     12  C   UNL     1       0.805  10.420  18.020  0.00  0.00    +0.000 A 
ATOM     13  C   UNL     1       1.305   9.297  18.759  0.00  0.00    +0.000 A 
ATOM     14  C   UNL     1       2.193   8.268  18.385  0.00  0.00    +0.000 A 
ATOM     15  C   UNL     1       2.532   7.298  19.330  0.00  0.00    +0.000 A 
ATOM     16  N   UNL     1       1.993   7.285  20.569  0.00  0.00    +0.000 NA
ATOM     17  C   UNL     1       1.142   8.267  20.950  0.00  0.00    +0.000 A 
ATOM     18  C   UNL     1       0.794   9.278  20.055  0.00  0.00    +0.000 A 
ATOM     19  S   UNL     1      -0.252  10.614  20.343  0.00  0.00    +0.000 S 
ENDBRANCH   1  15
TORSDOF 1
ENDMDL
