MODEL 1
REMARK VINA RESULT:      -8.5      0.000      0.000
REMARK  Name = 
REMARK  6 active torsions:
REMARK  status: ('A' for Active; 'I' for Inactive)
REMARK    1  A    between atoms: C_1  and  C_2
REMARK    2  A    between atoms: C_2  and  C_3
REMARK    3  A    between atoms: C_2  and  C_4
REMARK    4  A    between atoms: C_2  and  C_12
REMARK    5  A    between atoms: C_12  and  C_13
REMARK    6  A    between atoms: C_12  and  C_19
REMARK                            x       y       z     vdW  Elec       q    Type
REMARK                         _______ _______ _______ _____ _____    ______ ____
ROOT
ATOM      1  C   UNL     1       3.268   6.059  19.106  0.00  0.00    +0.000 C 
ENDROOT
BRANCH   1   2
ATOM      2  C   UNL     1       4.508   5.655  18.261  0.00  0.00    +0.000 A 
ATOM      3  C   UNL     1       5.781   5.506  18.830  0.00  0.00    +0.000 A 
ATOM      4  C   UNL     1       6.921   5.189  18.087  0.00  0.00    +0.000 A 
ATOM      5  C   UNL     1       6.761   4.991  16.722  0.00  0.00    +0.000 A 
ATOM      6  N   UNL     1       7.693   4.672  15.763  0.00  0.00    +0.000 N 
ATOM      7  C   UNL     1       7.089   4.566  14.540  0.00  0.00    +0.000 A 
ATOM      8  C   UNL     1       5.749   4.832  14.709  0.00  0.00    +0.000 A 
ATOM      9  C   UNL     1       5.524   5.107  16.091  0.00  0.00    +0.000 A 
ATOM     10  C   UNL     1       4.389   5.453  16.868  0.00  0.00    +0.000 A 
ATOM     11  H   UNL     1       8.680   4.540  15.946  0.00  0.00    +0.000 HD
ENDBRANCH   1   2
BRANCH   1  12
ATOM     12  C   UNL     1       2.383   4.863  19.517  0.00  0.00    +0.000 A 
ATOM     13  C   UNL     1       2.154   4.502  20.857  0.00  0.00    +0.000 A 
ATOM     14  C   UNL     1       1.435   3.354  21.203  0.00  0.00    +0.000 A 
ATOM     15  C   UNL     1       0.918   2.536  20.208  0.00  0.00    +0.000 A 
ATOM     16  C   UNL     1       1.099   2.881  18.873  0.00  0.00    +0.000 A 
ATOM     17  C   UNL     1       1.816   4.035  18.530  0.00  0.00    +0.000 A 
ENDBRANCH   1  12
BRANCH   1  19
ATOM     18  C   UNL     1       1.262   6.891  17.622  0.00  0.00    +0.000 C 
ATOM     19  C   UNL     1       2.439   7.296  18.543  0.00  0.00    +0.000 C 
ATOM     20  C   UNL     1       3.344   8.244  17.720  0.00  0.00    +0.000 C 
BRANCH  19  21
ATOM     21  C   UNL     1       1.796   8.121  19.701  0.00  0.00    +0.000 C 
ATOM     22  O   UNL     1       1.868   7.723  20.862  0.00  0.00    +0.000 OA
ATOM     23  N   UNL     1       1.145   9.278  19.320  0.00  0.00    +0.000 N 
ATOM     24  C   UNL     1       0.456  10.037  20.237  0.00  0.00    +0.000 A 
ATOM     25  N   UNL     1       0.478   9.981  21.543  0.00  0.00    +0.000 NA
ATOM     26  C   UNL     1      -0.415  10.895  22.063  0.00  0.00    +0.000 A 
ATOM     27  C   UNL     1      -1.102  11.642  21.129  0.00  0.00    +0.000 A 
ATOM     28  S   UNL     1      -0.573  11.213  19.551  0.00  0.00    +0.000 S 
ATOM     29  H   UNL     1       0.996   9.511  18.352  0.00  0.00    +0.000 HD
ENDBRANCH  19  21
ENDBRANCH   1  19
TORSDOF 4
ENDMDL
MODEL 2
REMARK VINA RESULT:      -8.4      0.792      1.193
REMARK  Name = 
REMARK  6 active torsions:
REMARK  status: ('A' for Active; 'I' for Inactive)
REMARK    1  A    between atoms: C_1  and  C_2
REMARK    2  A    between atoms: C_2  and  C_3
REMARK    3  A    between atoms: C_2  and  C_4
REMARK    4  A    between atoms: C_2  and  C_12
REMARK    5  A    between atoms: C_12  and  C_13
REMARK    6  A    between atoms: C_12  and  C_19
REMARK                            x       y       z     vdW  Elec       q    Type
REMARK                         _______ _______ _______ _____ _____    ______ ____
ROOT
ATOM      1  C   UNL     1       3.503   5.826  18.853  0.00  0.00    +0.000 C 
ENDROOT
BRANCH   1   2
ATOM      2  C   UNL     1       4.666   5.650  17.838  0.00  0.00    +0.000 A 
ATOM      3  C   UNL     1       5.965   6.102  18.107  0.00  0.00    +0.000 A 
ATOM      4  C   UNL     1       7.019   5.998  17.195  0.00  0.00    +0.000 A 
ATOM      5  C   UNL     1       6.750   5.392  15.974  0.00  0.00    +0.000 A 
ATOM      6  N   UNL     1       7.583   5.158  14.905  0.00  0.00    +0.000 N 
ATOM      7  C   UNL     1       6.896   4.524  13.907  0.00  0.00    +0.000 A 
ATOM      8  C   UNL     1       5.597   4.357  14.331  0.00  0.00    +0.000 A 
ATOM      9  C   UNL     1       5.487   4.907  15.643  0.00  0.00    +0.000 A 
ATOM     10  C   UNL     1       4.433   5.047  16.581  0.00  0.00    +0.000 A 
ATOM     11  H   UNL     1       8.560   5.422  14.873  0.00  0.00    +0.000 HD
ENDBRANCH   1   2
BRANCH   1  12
ATOM     12  C   UNL     1       2.779   4.507  19.200  0.00  0.00    +0.000 A 
ATOM     13  C   UNL     1       1.739   3.974  18.418  0.00  0.00    +0.000 A 
ATOM     14  C   UNL     1       1.030   2.834  18.808  0.00  0.00    +0.000 A 
ATOM     15  C   UNL     1       1.351   2.192  19.996  0.00  0.00    +0.000 A 
ATOM     16  C   UNL     1       2.395   2.675  20.777  0.00  0.00    +0.000 A 
ATOM     17  C   UNL     1       3.108   3.815  20.381  0.00  0.00    +0.000 A 
ENDBRANCH   1  12
BRANCH   1  19
ATOM     18  C   UNL     1       1.339   6.648  17.605  0.00  0.00    +0.000 C 
ATOM     19  C   UNL     1       2.510   7.031  18.543  0.00  0.00    +0.000 C 
ATOM     20  C   UNL     1       3.255   8.208  17.870  0.00  0.00    +0.000 C 
BRANCH  19  21
ATOM     21  C   UNL     1       1.840   7.563  19.848  0.00  0.00    +0.000 C 
ATOM     22  O   UNL     1       1.659   6.812  20.805  0.00  0.00    +0.000 OA
ATOM     23  N   UNL     1       1.462   8.892  19.826  0.00  0.00    +0.000 N 
ATOM     24  C   UNL     1       0.774   9.448  20.879  0.00  0.00    +0.000 A 
ATOM     25  N   UNL     1       0.579   8.978  22.084  0.00  0.00    +0.000 NA
ATOM     26  C   UNL     1      -0.218   9.847  22.799  0.00  0.00    +0.000 A 
ATOM     27  C   UNL     1      -0.614  10.979  22.117  0.00  0.00    +0.000 A 
ATOM     28  S   UNL     1       0.079  10.971  20.544  0.00  0.00    +0.000 S 
ATOM     29  H   UNL     1       1.509   9.445  18.987  0.00  0.00    +0.000 HD
ENDBRANCH  19  21
ENDBRANCH   1  19
TORSDOF 4
ENDMDL
MODEL 3
REMARK VINA RESULT:      -8.2      2.810      7.125
REMARK  Name = 
REMARK  6 active torsions:
REMARK  status: ('A' for Active; 'I' for Inactive)
REMARK    1  A    between atoms: C_1  and  C_2
REMARK    2  A    between atoms: C_2  and  C_3
REMARK    3  A    between atoms: C_2  and  C_4
REMARK    4  A    between atoms: C_2  and  C_12
REMARK    5  A    between atoms: C_12  and  C_13
REMARK    6  A    between atoms: C_12  and  C_19
REMARK                            x       y       z     vdW  Elec       q    Type
REMARK                         _______ _______ _______ _____ _____    ______ ____
ROOT
ATOM      1  C   UNL     1       2.733   5.704  18.312  0.00  0.00    +0.000 C 
ENDROOT
BRANCH   1   2
ATOM      2  C   UNL     1       2.233   7.144  18.613  0.00  0.00    +0.000 A 
ATOM      3  C   UNL     1       2.152   8.128  17.617  0.00  0.00    +0.000 A 
ATOM      4  C   UNL     1       1.750   9.442  17.868  0.00  0.00    +0.000 A 
ATOM      5  C   UNL     1       1.394   9.765  19.171  0.00  0.00    +0.000 A 
ATOM      6  N   UNL     1       0.966  10.962  19.697  0.00  0.00    +0.000 N 
ATOM      7  C   UNL     1       0.718  10.823  21.035  0.00  0.00    +0.000 A 
ATOM      8  C   UNL     1       1.002   9.521  21.382  0.00  0.00    +0.000 A 
ATOM      9  C   UNL     1       1.437   8.836  20.208  0.00  0.00    +0.000 A 
ATOM     10  C   UNL     1       1.870   7.515  19.927  0.00  0.00    +0.000 A 
ATOM     11  H   UNL     1       0.856  11.814  19.162  0.00  0.00    +0.000 HD
ENDBRANCH   1   2
BRANCH   1  12
ATOM     12  C   UNL     1       2.233   4.651  19.324  0.00  0.00    +0.000 A 
ATOM     13  C   UNL     1       2.531   4.704  20.698  0.00  0.00    +0.000 A 
ATOM     14  C   UNL     1       2.154   3.684  21.577  0.00  0.00    +0.000 A 
ATOM     15  C   UNL     1       1.459   2.582  21.101  0.00  0.00    +0.000 A 
ATOM     16  C   UNL     1       1.120   2.514  19.754  0.00  0.00    +0.000 A 
ATOM     17  C   UNL     1       1.495   3.540  18.876  0.00  0.00    +0.000 A 
ENDBRANCH   1  12
BRANCH   1  19
ATOM     18  C   UNL     1       5.080   4.758  19.031  0.00  0.00    +0.000 C 
ATOM     19  C   UNL     1       4.287   5.581  17.986  0.00  0.00    +0.000 C 
ATOM     20  C   UNL     1       4.953   6.976  17.917  0.00  0.00    +0.000 C 
BRANCH  19  21
ATOM     21  C   UNL     1       4.524   4.860  16.623  0.00  0.00    +0.000 C 
ATOM     22  O   UNL     1       3.858   3.873  16.317  0.00  0.00    +0.000 OA
ATOM     23  N   UNL     1       5.524   5.393  15.832  0.00  0.00    +0.000 N 
ATOM     24  C   UNL     1       5.892   4.786  14.654  0.00  0.00    +0.000 A 
ATOM     25  N   UNL     1       5.284   3.844  13.981  0.00  0.00    +0.000 NA
ATOM     26  C   UNL     1       6.040   3.497  12.881  0.00  0.00    +0.000 A 
ATOM     27  C   UNL     1       7.221   4.195  12.734  0.00  0.00    +0.000 A 
ATOM     28  S   UNL     1       7.359   5.356  13.993  0.00  0.00    +0.000 S 
ATOM     29  H   UNL     1       6.134   6.121  16.163  0.00  0.00    +0.000 HD
ENDBRANCH  19  21
ENDBRANCH   1  19
TORSDOF 4
ENDMDL
MODEL 4
REMARK VINA RESULT:      -8.1      3.115      7.315
REMARK  Name = 
REMARK  6 active torsions:
REMARK  status: ('A' for Active; 'I' for Inactive)
REMARK    1  A    between atoms: C_1  and  C_2
REMARK    2  A    between atoms: C_2  and  C_3
REMARK    3  A    between atoms: C_2  and  C_4
REMARK    4  A    between atoms: C_2  and  C_12
REMARK    5  A    between atoms: C_12  and  C_13
REMARK    6  A    between atoms: C_12  and  C_19
REMARK                            x       y       z     vdW  Elec       q    Type
REMARK                         _______ _______ _______ _____ _____    ______ ____
ROOT
ATOM      1  C   UNL     1       4.094   5.708  17.490  0.00  0.00    +0.000 C 
ENDROOT
BRANCH   1   2
ATOM      2  C   UNL     1       3.179   6.818  18.079  0.00  0.00    +0.000 A 
ATOM      3  C   UNL     1       2.802   7.945  17.335  0.00  0.00    +0.000 A 
ATOM      4  C   UNL     1       2.019   8.979  17.853  0.00  0.00    +0.000 A 
ATOM      5  C   UNL     1       1.582   8.855  19.166  0.00  0.00    +0.000 A 
ATOM      6  N   UNL     1       0.810   9.706  19.922  0.00  0.00    +0.000 N 
ATOM      7  C   UNL     1       0.617   9.179  21.169  0.00  0.00    +0.000 A 
ATOM      8  C   UNL     1       1.284   7.976  21.225  0.00  0.00    +0.000 A 
ATOM      9  C   UNL     1       1.906   7.757  19.960  0.00  0.00    +0.000 A 
ATOM     10  C   UNL     1       2.721   6.733  19.413  0.00  0.00    +0.000 A 
ATOM     11  H   UNL     1       0.445  10.591  19.593  0.00  0.00    +0.000 HD
ENDBRANCH   1   2
BRANCH   1  12
ATOM     12  C   UNL     1       3.740   4.288  17.983  0.00  0.00    +0.000 A 
ATOM     13  C   UNL     1       4.371   3.678  19.082  0.00  0.00    +0.000 A 
ATOM     14  C   UNL     1       4.107   2.353  19.445  0.00  0.00    +0.000 A 
ATOM     15  C   UNL     1       3.195   1.604  18.715  0.00  0.00    +0.000 A 
ATOM     16  C   UNL     1       2.531   2.188  17.642  0.00  0.00    +0.000 A 
ATOM     17  C   UNL     1       2.793   3.517  17.284  0.00  0.00    +0.000 A 
ENDBRANCH   1  12
BRANCH   1  19
ATOM     18  C   UNL     1       6.418   5.242  18.631  0.00  0.00    +0.000 C 
ATOM     19  C   UNL     1       5.654   6.023  17.533  0.00  0.00    +0.000 C 
ATOM     20  C   UNL     1       5.911   7.526  17.794  0.00  0.00    +0.000 C 
BRANCH  19  21
ATOM     21  C   UNL     1       6.347   5.637  16.190  0.00  0.00    +0.000 C 
ATOM     22  O   UNL     1       7.404   6.171  15.860  0.00  0.00    +0.000 OA
ATOM     23  N   UNL     1       5.684   4.697  15.424  0.00  0.00    +0.000 N 
ATOM     24  C   UNL     1       6.145   4.350  14.175  0.00  0.00    +0.000 A 
ATOM     25  N   UNL     1       7.301   4.603  13.618  0.00  0.00    +0.000 NA
ATOM     26  C   UNL     1       7.313   4.111  12.330  0.00  0.00    +0.000 A 
ATOM     27  C   UNL     1       6.154   3.479  11.930  0.00  0.00    +0.000 A 
ATOM     28  S   UNL     1       5.032   3.464  13.232  0.00  0.00    +0.000 S 
ATOM     29  H   UNL     1       4.761   4.373  15.661  0.00  0.00    +0.000 HD
ENDBRANCH  19  21
ENDBRANCH   1  19
TORSDOF 4
ENDMDL
MODEL 5
REMARK VINA RESULT:      -8.0      2.863      7.131
REMARK  Name = 
REMARK  6 active torsions:
REMARK  status: ('A' for Active; 'I' for Inactive)
REMARK    1  A    between atoms: C_1  and  C_2
REMARK    2  A    between atoms: C_2  and  C_3
REMARK    3  A    between atoms: C_2  and  C_4
REMARK    4  A    between atoms: C_2  and  C_12
REMARK    5  A    between atoms: C_12  and  C_13
REMARK    6  A    between atoms: C_12  and  C_19
REMARK                            x       y       z     vdW  Elec       q    Type
REMARK                         _______ _______ _______ _____ _____    ______ ____
ROOT
ATOM      1  C   UNL     1       3.449   5.532  17.744  0.00  0.00    +0.000 C 
ENDROOT
BRANCH   1   2
ATOM      2  C   UNL     1       2.778   6.846  18.230  0.00  0.00    +0.000 A 
ATOM      3  C   UNL     1       2.630   7.961  17.393  0.00  0.00    +0.000 A 
ATOM      4  C   UNL     1       2.073   9.171  17.816  0.00  0.00    +0.000 A 
ATOM      5  C   UNL     1       1.626   9.244  19.129  0.00  0.00    +0.000 A 
ATOM      6  N   UNL     1       1.043  10.291  19.804  0.00  0.00    +0.000 N 
ATOM      7  C   UNL     1       0.754   9.918  21.088  0.00  0.00    +0.000 A 
ATOM      8  C   UNL     1       1.167   8.614  21.249  0.00  0.00    +0.000 A 
ATOM      9  C   UNL     1       1.727   8.172  20.013  0.00  0.00    +0.000 A 
ATOM     10  C   UNL     1       2.318   6.965  19.561  0.00  0.00    +0.000 A 
ATOM     11  H   UNL     1       0.862  11.201  19.400  0.00  0.00    +0.000 HD
ENDBRANCH   1   2
BRANCH   1  12
ATOM     12  C   UNL     1       2.628   4.263  18.062  0.00  0.00    +0.000 A 
ATOM     13  C   UNL     1       1.686   4.201  19.105  0.00  0.00    +0.000 A 
ATOM     14  C   UNL     1       1.031   3.011  19.440  0.00  0.00    +0.000 A 
ATOM     15  C   UNL     1       1.300   1.850  18.730  0.00  0.00    +0.000 A 
ATOM     16  C   UNL     1       2.202   1.885  17.673  0.00  0.00    +0.000 A 
ATOM     17  C   UNL     1       2.853   3.080  17.336  0.00  0.00    +0.000 A 
ENDBRANCH   1  12
BRANCH   1  19
ATOM     18  C   UNL     1       5.377   4.008  18.682  0.00  0.00    +0.000 C 
ATOM     19  C   UNL     1       4.994   5.390  18.097  0.00  0.00    +0.000 C 
ATOM     20  C   UNL     1       5.427   6.451  19.137  0.00  0.00    +0.000 C 
BRANCH  19  21
ATOM     21  C   UNL     1       5.884   5.564  16.826  0.00  0.00    +0.000 C 
ATOM     22  O   UNL     1       6.611   6.548  16.706  0.00  0.00    +0.000 OA
ATOM     23  N   UNL     1       5.767   4.569  15.875  0.00  0.00    +0.000 N 
ATOM     24  C   UNL     1       6.425   4.661  14.671  0.00  0.00    +0.000 A 
ATOM     25  N   UNL     1       7.383   5.475  14.310  0.00  0.00    +0.000 NA
ATOM     26  C   UNL     1       7.708   5.252  12.988  0.00  0.00    +0.000 A 
ATOM     27  C   UNL     1       6.986   4.256  12.364  0.00  0.00    +0.000 A 
ATOM     28  S   UNL     1       5.898   3.548  13.489  0.00  0.00    +0.000 S 
ATOM     29  H   UNL     1       5.073   3.844  15.945  0.00  0.00    +0.000 HD
ENDBRANCH  19  21
ENDBRANCH   1  19
TORSDOF 4
ENDMDL
MODEL 6
REMARK VINA RESULT:      -8.0      3.179      7.282
REMARK  Name = 
REMARK  6 active torsions:
REMARK  status: ('A' for Active; 'I' for Inactive)
REMARK    1  A    between atoms: C_1  and  C_2
REMARK    2  A    between atoms: C_2  and  C_3
REMARK    3  A    between atoms: C_2  and  C_4
REMARK    4  A    between atoms: C_2  and  C_12
REMARK    5  A    between atoms: C_12  and  C_13
REMARK    6  A    between atoms: C_12  and  C_19
REMARK                            x       y       z     vdW  Elec       q    Type
REMARK                         _______ _______ _______ _____ _____    ______ ____
ROOT
ATOM      1  C   UNL     1       4.202   5.618  17.464  0.00  0.00    +0.000 C 
ENDROOT
BRANCH   1   2
ATOM      2  C   UNL     1       3.312   6.660  18.196  0.00  0.00    +0.000 A 
ATOM      3  C   UNL     1       2.862   6.465  19.510  0.00  0.00    +0.000 A 
ATOM      4  C   UNL     1       2.025   7.363  20.176  0.00  0.00    +0.000 A 
ATOM      5  C   UNL     1       1.649   8.513  19.494  0.00  0.00    +0.000 A 
ATOM      6  N   UNL     1       0.846   9.554  19.899  0.00  0.00    +0.000 N 
ATOM      7  C   UNL     1       0.752  10.487  18.903  0.00  0.00    +0.000 A 
ATOM      8  C   UNL     1       1.495  10.037  17.834  0.00  0.00    +0.000 A 
ATOM      9  C   UNL     1       2.069   8.781  18.193  0.00  0.00    +0.000 A 
ATOM     10  C   UNL     1       2.901   7.839  17.535  0.00  0.00    +0.000 A 
ATOM     11  H   UNL     1       0.395   9.610  20.803  0.00  0.00    +0.000 HD
ENDBRANCH   1   2
BRANCH   1  12
ATOM     12  C   UNL     1       3.883   4.156  17.846  0.00  0.00    +0.000 A 
ATOM     13  C   UNL     1       2.929   3.376  17.168  0.00  0.00    +0.000 A 
ATOM     14  C   UNL     1       2.583   2.091  17.597  0.00  0.00    +0.000 A 
ATOM     15  C   UNL     1       3.193   1.549  18.719  0.00  0.00    +0.000 A 
ATOM     16  C   UNL     1       4.163   2.281  19.394  0.00  0.00    +0.000 A 
ATOM     17  C   UNL     1       4.512   3.567  18.959  0.00  0.00    +0.000 A 
ENDBRANCH   1  12
BRANCH   1  19
ATOM     18  C   UNL     1       6.564   5.179  18.534  0.00  0.00    +0.000 C 
ATOM     19  C   UNL     1       5.759   5.944  17.454  0.00  0.00    +0.000 C 
ATOM     20  C   UNL     1       6.013   7.452  17.692  0.00  0.00    +0.000 C 
BRANCH  19  21
ATOM     21  C   UNL     1       6.412   5.550  16.093  0.00  0.00    +0.000 C 
ATOM     22  O   UNL     1       7.477   6.057  15.745  0.00  0.00    +0.000 OA
ATOM     23  N   UNL     1       5.705   4.638  15.333  0.00  0.00    +0.000 N 
ATOM     24  C   UNL     1       6.129   4.289  14.072  0.00  0.00    +0.000 A 
ATOM     25  N   UNL     1       7.280   4.513  13.492  0.00  0.00    +0.000 NA
ATOM     26  C   UNL     1       7.250   4.033  12.200  0.00  0.00    +0.000 A 
ATOM     27  C   UNL     1       6.065   3.439  11.819  0.00  0.00    +0.000 A 
ATOM     28  S   UNL     1       4.971   3.445  13.145  0.00  0.00    +0.000 S 
ATOM     29  H   UNL     1       4.779   4.338  15.587  0.00  0.00    +0.000 HD
ENDBRANCH  19  21
ENDBRANCH   1  19
TORSDOF 4
ENDMDL
MODEL 7
REMARK VINA RESULT:      -7.9      2.965      7.261
REMARK  Name = 
REMARK  6 active torsions:
REMARK  status: ('A' for Active; 'I' for Inactive)
REMARK    1  A    between atoms: C_1  and  C_2
REMARK    2  A    between atoms: C_2  and  C_3
REMARK    3  A    between atoms: C_2  and  C_4
REMARK    4  A    between atoms: C_2  and  C_12
REMARK    5  A    between atoms: C_12  and  C_13
REMARK    6  A    between atoms: C_12  and  C_19
REMARK                            x       y       z     vdW  Elec       q    Type
REMARK                         _______ _______ _______ _____ _____    ______ ____
ROOT
ATOM      1  C   UNL     1       3.954   5.535  17.685  0.00  0.00    +0.000 C 
ENDROOT
BRANCH   1   2
ATOM      2  C   UNL     1       3.121   6.755  18.166  0.00  0.00    +0.000 A 
ATOM      3  C   UNL     1       2.902   7.875  17.352  0.00  0.00    +0.000 A 
ATOM      4  C   UNL     1       2.197   9.005  17.774  0.00  0.00    +0.000 A 
ATOM      5  C   UNL     1       1.673   8.988  19.061  0.00  0.00    +0.000 A 
ATOM      6  N   UNL     1       0.947   9.946  19.729  0.00  0.00    +0.000 N 
ATOM      7  C   UNL     1       0.629   9.503  20.984  0.00  0.00    +0.000 A 
ATOM      8  C   UNL     1       1.169   8.245  21.133  0.00  0.00    +0.000 A 
ATOM      9  C   UNL     1       1.840   7.904  19.921  0.00  0.00    +0.000 A 
ATOM     10  C   UNL     1       2.579   6.781  19.471  0.00  0.00    +0.000 A 
ATOM     11  H   UNL     1       0.692  10.845  19.340  0.00  0.00    +0.000 HD
ENDBRANCH   1   2
BRANCH   1  12
ATOM     12  C   UNL     1       3.362   4.174  18.112  0.00  0.00    +0.000 A 
ATOM     13  C   UNL     1       2.982   3.180  17.192  0.00  0.00    +0.000 A 
ATOM     14  C   UNL     1       2.352   1.999  17.597  0.00  0.00    +0.000 A 
ATOM     15  C   UNL     1       2.091   1.780  18.942  0.00  0.00    +0.000 A 
ATOM     16  C   UNL     1       2.482   2.729  19.880  0.00  0.00    +0.000 A 
ATOM     17  C   UNL     1       3.118   3.909  19.472  0.00  0.00    +0.000 A 
ENDBRANCH   1  12
BRANCH   1  19
ATOM     18  C   UNL     1       6.126   4.433  18.678  0.00  0.00    +0.000 C 
ATOM     19  C   UNL     1       5.523   5.647  17.929  0.00  0.00    +0.000 C 
ATOM     20  C   UNL     1       5.868   6.903  18.764  0.00  0.00    +0.000 C 
BRANCH  19  21
ATOM     21  C   UNL     1       6.302   5.731  16.579  0.00  0.00    +0.000 C 
ATOM     22  O   UNL     1       7.041   6.685  16.347  0.00  0.00    +0.000 OA
ATOM     23  N   UNL     1       6.077   4.694  15.694  0.00  0.00    +0.000 N 
ATOM     24  C   UNL     1       6.629   4.707  14.435  0.00  0.00    +0.000 A 
ATOM     25  N   UNL     1       7.573   5.473  13.951  0.00  0.00    +0.000 NA
ATOM     26  C   UNL     1       7.775   5.176  12.620  0.00  0.00    +0.000 A 
ATOM     27  C   UNL     1       6.976   4.173  12.112  0.00  0.00    +0.000 A 
ATOM     28  S   UNL     1       5.972   3.554  13.362  0.00  0.00    +0.000 S 
ATOM     29  H   UNL     1       5.373   3.995  15.861  0.00  0.00    +0.000 HD
ENDBRANCH  19  21
ENDBRANCH   1  19
TORSDOF 4
ENDMDL
MODEL 8
REMARK VINA RESULT:      -7.8      3.783      6.514
REMARK  Name = 
REMARK  6 active torsions:
REMARK  status: ('A' for Active; 'I' for Inactive)
REMARK    1  A    between atoms: C_1  and  C_2
REMARK    2  A    between atoms: C_2  and  C_3
REMARK    3  A    between atoms: C_2  and  C_4
REMARK    4  A    between atoms: C_2  and  C_12
REMARK    5  A    between atoms: C_12  and  C_13
REMARK    6  A    between atoms: C_12  and  C_19
REMARK                            x       y       z     vdW  Elec       q    Type
REMARK                         _______ _______ _______ _____ _____    ______ ____
ROOT
ATOM      1  C   UNL     1       0.039  10.994  19.449  0.00  0.00    +0.000 C 
ENDROOT
BRANCH   1   2
ATOM      2  C   UNL     1       0.785   9.646  19.650  0.00  0.00    +0.000 A 
ATOM      3  C   UNL     1       0.749   8.949  20.866  0.00  0.00    +0.000 A 
ATOM      4  C   UNL     1       1.447   7.759  21.090  0.00  0.00    +0.000 A 
ATOM      5  C   UNL     1       2.189   7.245  20.034  0.00  0.00    +0.000 A 
ATOM      6  N   UNL     1       2.960   6.108  19.971  0.00  0.00    +0.000 N 
ATOM      7  C   UNL     1       3.509   5.983  18.724  0.00  0.00    +0.000 A 
ATOM      8  C   UNL     1       3.097   7.062  17.974  0.00  0.00    +0.000 A 
ATOM      9  C   UNL     1       2.259   7.876  18.793  0.00  0.00    +0.000 A 
ATOM     10  C   UNL     1       1.558   9.094  18.604  0.00  0.00    +0.000 A 
ATOM     11  H   UNL     1       3.096   5.466  20.741  0.00  0.00    +0.000 HD
ENDBRANCH   1   2
BRANCH   1  12
ATOM     12  C   UNL     1      -1.259  10.866  18.622  0.00  0.00    +0.000 A 
ATOM     13  C   UNL     1      -1.344  10.107  17.442  0.00  0.00    +0.000 A 
ATOM     14  C   UNL     1      -2.500  10.090  16.655  0.00  0.00    +0.000 A 
ATOM     15  C   UNL     1      -3.608  10.833  17.036  0.00  0.00    +0.000 A 
ATOM     16  C   UNL     1      -3.567  11.569  18.215  0.00  0.00    +0.000 A 
ATOM     17  C   UNL     1      -2.409  11.580  19.004  0.00  0.00    +0.000 A 
ENDBRANCH   1  12
BRANCH   1  19
ATOM     18  C   UNL     1       0.171  13.378  18.345  0.00  0.00    +0.000 C 
ATOM     19  C   UNL     1       0.956  12.216  19.003  0.00  0.00    +0.000 C 
ATOM     20  C   UNL     1       2.026  11.764  17.980  0.00  0.00    +0.000 C 
BRANCH  19  21
ATOM     21  C   UNL     1       1.690  12.850  20.226  0.00  0.00    +0.000 C 
ATOM     22  O   UNL     1       1.237  12.716  21.361  0.00  0.00    +0.000 OA
ATOM     23  N   UNL     1       2.834  13.566  19.930  0.00  0.00    +0.000 N 
ATOM     24  C   UNL     1       3.512  14.253  20.910  0.00  0.00    +0.000 A 
ATOM     25  N   UNL     1       3.390  14.178  22.210  0.00  0.00    +0.000 NA
ATOM     26  C   UNL     1       4.233  15.090  22.809  0.00  0.00    +0.000 A 
ATOM     27  C   UNL     1       4.995  15.846  21.942  0.00  0.00    +0.000 A 
ATOM     28  S   UNL     1       4.672  15.359  20.326  0.00  0.00    +0.000 S 
ATOM     29  H   UNL     1       3.109  13.763  18.982  0.00  0.00    +0.000 HD
ENDBRANCH  19  21
ENDBRANCH   1  19
TORSDOF 4
ENDMDL
MODEL 9
REMARK VINA RESULT:      -7.7      3.643      6.663
REMARK  Name = 
REMARK  6 active torsions:
REMARK  status: ('A' for Active; 'I' for Inactive)
REMARK    1  A    between atoms: C_1  and  C_2
REMARK    2  A    between atoms: C_2  and  C_3
REMARK    3  A    between atoms: C_2  and  C_4
REMARK    4  A    between atoms: C_2  and  C_12
REMARK    5  A    between atoms: C_12  and  C_13
REMARK    6  A    between atoms: C_12  and  C_19
REMARK                            x       y       z     vdW  Elec       q    Type
REMARK                         _______ _______ _______ _____ _____    ______ ____
ROOT
ATOM      1  C   UNL     1      -0.610  11.200  19.779  0.00  0.00    +0.000 C 
ENDROOT
BRANCH   1   2
ATOM      2  C   UNL     1       0.275   9.927  19.871  0.00  0.00    +0.000 A 
ATOM      3  C   UNL     1       0.373   9.170  21.047  0.00  0.00    +0.000 A 
ATOM      4  C   UNL     1       1.195   8.048  21.173  0.00  0.00    +0.000 A 
ATOM      5  C   UNL     1       1.928   7.664  20.056  0.00  0.00    +0.000 A 
ATOM      6  N   UNL     1       2.803   6.615  19.895  0.00  0.00    +0.000 N 
ATOM      7  C   UNL     1       3.295   6.608  18.619  0.00  0.00    +0.000 A 
ATOM      8  C   UNL     1       2.739   7.675  17.949  0.00  0.00    +0.000 A 
ATOM      9  C   UNL     1       1.870   8.359  18.850  0.00  0.00    +0.000 A 
ATOM     10  C   UNL     1       1.042   9.507  18.761  0.00  0.00    +0.000 A 
ATOM     11  H   UNL     1       3.041   5.953  20.623  0.00  0.00    +0.000 HD
ENDBRANCH   1   2
BRANCH   1  12
ATOM     12  C   UNL     1      -1.716  11.109  18.705  0.00  0.00    +0.000 A 
ATOM     13  C   UNL     1      -2.969  11.734  18.839  0.00  0.00    +0.000 A 
ATOM     14  C   UNL     1      -3.991  11.552  17.902  0.00  0.00    +0.000 A 
ATOM     15  C   UNL     1      -3.780  10.738  16.798  0.00  0.00    +0.000 A 
ATOM     16  C   UNL     1      -2.542  10.130  16.620  0.00  0.00    +0.000 A 
ATOM     17  C   UNL     1      -1.518  10.319  17.557  0.00  0.00    +0.000 A 
ENDBRANCH   1  12
BRANCH   1  19
ATOM     18  C   UNL     1      -0.325  13.574  18.681  0.00  0.00    +0.000 C 
ATOM     19  C   UNL     1       0.187  12.578  19.751  0.00  0.00    +0.000 C 
ATOM     20  C   UNL     1       1.689  12.346  19.463  0.00  0.00    +0.000 C 
BRANCH  19  21
ATOM     21  C   UNL     1       0.063  13.331  21.113  0.00  0.00    +0.000 C 
ATOM     22  O   UNL     1       1.071  13.649  21.741  0.00  0.00    +0.000 OA
ATOM     23  N   UNL     1      -1.226  13.578  21.543  0.00  0.00    +0.000 N 
ATOM     24  C   UNL     1      -1.464  14.146  22.773  0.00  0.00    +0.000 A 
ATOM     25  N   UNL     1      -0.629  14.738  23.588  0.00  0.00    +0.000 NA
ATOM     26  C   UNL     1      -1.291  15.111  24.740  0.00  0.00    +0.000 A 
ATOM     27  C   UNL     1      -2.633  14.796  24.776  0.00  0.00    +0.000 A 
ATOM     28  S   UNL     1      -3.086  14.051  23.295  0.00  0.00    +0.000 S 
ATOM     29  H   UNL     1      -2.028  13.196  21.071  0.00  0.00    +0.000 HD
ENDBRANCH  19  21
ENDBRANCH   1  19
TORSDOF 4
ENDMDL
