MODEL 1
REMARK VINA RESULT:      -7.2      0.000      0.000
REMARK  Name = 
REMARK  4 active torsions:
REMARK  status: ('A' for Active; 'I' for Inactive)
REMARK    1  A    between atoms: C_1  and  C_2
REMARK    2  A    between atoms: C_8  and  O_9
REMARK    3  A    between atoms: C_12  and  C_13
REMARK    4  A    between atoms: N_15  and  C_16
REMARK                            x       y       z     vdW  Elec       q    Type
REMARK                         _______ _______ _______ _____ _____    ______ ____
ROOT
ATOM      1  C   UNL     1       5.965   3.753  15.227  0.00  0.00    +0.000 C 
ATOM      2  C   UNL     1       5.142   4.763  16.025  0.00  0.00    +0.000 C 
ATOM      3  C   UNL     1       5.830   6.145  16.057  0.00  0.00    +0.000 C 
ATOM      4  C   UNL     1       4.658   7.134  16.064  0.00  0.00    +0.000 C 
ATOM      5  C   UNL     1       3.786   6.869  17.277  0.00  0.00    +0.000 A 
ATOM      6  C   UNL     1       2.947   7.909  17.711  0.00  0.00    +0.000 A 
ATOM      7  C   UNL     1       2.293   7.813  18.923  0.00  0.00    +0.000 A 
ATOM      8  C   UNL     1       2.473   6.675  19.702  0.00  0.00    +0.000 A 
ATOM      9  C   UNL     1       3.237   5.596  19.257  0.00  0.00    +0.000 A 
ATOM     10  C   UNL     1       3.885   5.651  18.014  0.00  0.00    +0.000 A 
ATOM     11  C   UNL     1       4.748   4.455  17.490  0.00  0.00    +0.000 C 
ATOM     12  C   UNL     1       3.941   3.141  17.572  0.00  0.00    +0.000 C 
ATOM     13  C   UNL     1       6.044   4.267  18.324  0.00  0.00    +0.000 C 
ATOM     14  N   UNL     1       7.102   5.273  18.145  0.00  0.00    +0.000 NA
ATOM     15  C   UNL     1       7.580   5.718  19.461  0.00  0.00    +0.000 C 
ATOM     16  C   UNL     1       6.722   6.423  17.320  0.00  0.00    +0.000 C 
ENDROOT
BRANCH   8  17
ATOM     17  O   UNL     1       1.916   6.594  20.945  0.00  0.00    +0.000 OA
ATOM     18  H   UNL     1       1.157   5.988  20.897  0.00  0.00    +0.000 HD
ENDBRANCH   8  17
TORSDOF 1
ENDMDL
MODEL 2
REMARK VINA RESULT:      -7.1      1.955      3.735
REMARK  Name = 
REMARK  4 active torsions:
REMARK  status: ('A' for Active; 'I' for Inactive)
REMARK    1  A    between atoms: C_1  and  C_2
REMARK    2  A    between atoms: C_8  and  O_9
REMARK    3  A    between atoms: C_12  and  C_13
REMARK    4  A    between atoms: N_15  and  C_16
REMARK                            x       y       z     vdW  Elec       q    Type
REMARK                         _______ _______ _______ _____ _____    ______ ____
ROOT
ATOM      1  C   UNL     1       7.300   7.765  17.354  0.00  0.00    +0.000 C 
ATOM      2  C   UNL     1       6.438   6.590  17.811  0.00  0.00    +0.000 C 
ATOM      3  C   UNL     1       7.231   5.264  17.768  0.00  0.00    +0.000 C 
ATOM      4  C   UNL     1       6.663   4.464  18.946  0.00  0.00    +0.000 C 
ATOM      5  C   UNL     1       5.169   4.279  18.754  0.00  0.00    +0.000 A 
ATOM      6  C   UNL     1       4.552   3.227  19.452  0.00  0.00    +0.000 A 
ATOM      7  C   UNL     1       3.252   2.870  19.160  0.00  0.00    +0.000 A 
ATOM      8  C   UNL     1       2.563   3.564  18.172  0.00  0.00    +0.000 A 
ATOM      9  C   UNL     1       3.126   4.662  17.520  0.00  0.00    +0.000 A 
ATOM     10  C   UNL     1       4.434   5.070  17.821  0.00  0.00    +0.000 A 
ATOM     11  C   UNL     1       5.091   6.297  17.106  0.00  0.00    +0.000 C 
ATOM     12  C   UNL     1       4.156   7.524  17.189  0.00  0.00    +0.000 C 
ATOM     13  C   UNL     1       5.367   6.014  15.605  0.00  0.00    +0.000 C 
ATOM     14  N   UNL     1       6.465   5.086  15.295  0.00  0.00    +0.000 NA
ATOM     15  C   UNL     1       6.005   4.098  14.308  0.00  0.00    +0.000 C 
ATOM     16  C   UNL     1       7.050   4.415  16.459  0.00  0.00    +0.000 C 
ENDROOT
BRANCH   8  17
ATOM     17  O   UNL     1       1.311   3.172  17.796  0.00  0.00    +0.000 OA
ATOM     18  H   UNL     1       1.166   3.461  16.880  0.00  0.00    +0.000 HD
ENDBRANCH   8  17
TORSDOF 1
ENDMDL
MODEL 3
REMARK VINA RESULT:      -6.9      2.525      4.405
REMARK  Name = 
REMARK  4 active torsions:
REMARK  status: ('A' for Active; 'I' for Inactive)
REMARK    1  A    between atoms: C_1  and  C_2
REMARK    2  A    between atoms: C_8  and  O_9
REMARK    3  A    between atoms: C_12  and  C_13
REMARK    4  A    between atoms: N_15  and  C_16
REMARK                            x       y       z     vdW  Elec       q    Type
REMARK                         _______ _______ _______ _____ _____    ______ ____
ROOT
ATOM      1  C   UNL     1       1.153   4.370  17.814  0.00  0.00    +0.000 C 
ATOM      2  C   UNL     1       2.673   4.471  17.696  0.00  0.00    +0.000 C 
ATOM      3  C   UNL     1       3.292   3.123  17.265  0.00  0.00    +0.000 C 
ATOM      4  C   UNL     1       4.493   3.532  16.405  0.00  0.00    +0.000 C 
ATOM      5  C   UNL     1       5.433   4.390  17.232  0.00  0.00    +0.000 A 
ATOM      6  C   UNL     1       6.766   4.491  16.799  0.00  0.00    +0.000 A 
ATOM      7  C   UNL     1       7.717   5.071  17.612  0.00  0.00    +0.000 A 
ATOM      8  C   UNL     1       7.338   5.556  18.860  0.00  0.00    +0.000 A 
ATOM      9  C   UNL     1       6.008   5.539  19.279  0.00  0.00    +0.000 A 
ATOM     10  C   UNL     1       5.014   4.987  18.458  0.00  0.00    +0.000 A 
ATOM     11  C   UNL     1       3.513   4.954  18.902  0.00  0.00    +0.000 C 
ATOM     12  C   UNL     1       3.061   6.361  19.352  0.00  0.00    +0.000 C 
ATOM     13  C   UNL     1       3.282   3.981  20.089  0.00  0.00    +0.000 C 
ATOM     14  N   UNL     1       3.356   2.542  19.794  0.00  0.00    +0.000 NA
ATOM     15  C   UNL     1       4.206   1.881  20.795  0.00  0.00    +0.000 C 
ATOM     16  C   UNL     1       3.809   2.216  18.440  0.00  0.00    +0.000 C 
ENDROOT
BRANCH   8  17
ATOM     17  O   UNL     1       8.273   6.048  19.723  0.00  0.00    +0.000 OA
ATOM     18  H   UNL     1       7.947   6.895  20.072  0.00  0.00    +0.000 HD
ENDBRANCH   8  17
TORSDOF 1
ENDMDL
MODEL 4
REMARK VINA RESULT:      -6.6      1.015      1.288
REMARK  Name = 
REMARK  4 active torsions:
REMARK  status: ('A' for Active; 'I' for Inactive)
REMARK    1  A    between atoms: C_1  and  C_2
REMARK    2  A    between atoms: C_8  and  O_9
REMARK    3  A    between atoms: C_12  and  C_13
REMARK    4  A    between atoms: N_15  and  C_16
REMARK                            x       y       z     vdW  Elec       q    Type
REMARK                         _______ _______ _______ _____ _____    ______ ____
ROOT
ATOM      1  C   UNL     1       5.710   5.109  14.895  0.00  0.00    +0.000 C 
ATOM      2  C   UNL     1       4.859   5.457  16.116  0.00  0.00    +0.000 C 
ATOM      3  C   UNL     1       5.229   6.848  16.678  0.00  0.00    +0.000 C 
ATOM      4  C   UNL     1       3.896   7.390  17.207  0.00  0.00    +0.000 C 
ATOM      5  C   UNL     1       3.350   6.442  18.258  0.00  0.00    +0.000 A 
ATOM      6  C   UNL     1       2.407   6.954  19.166  0.00  0.00    +0.000 A 
ATOM      7  C   UNL     1       2.034   6.215  20.269  0.00  0.00    +0.000 A 
ATOM      8  C   UNL     1       2.599   4.960  20.468  0.00  0.00    +0.000 A 
ATOM      9  C   UNL     1       3.477   4.397  19.541  0.00  0.00    +0.000 A 
ATOM     10  C   UNL     1       3.847   5.111  18.392  0.00  0.00    +0.000 A 
ATOM     11  C   UNL     1       4.829   4.504  17.335  0.00  0.00    +0.000 C 
ATOM     12  C   UNL     1       4.353   3.096  16.914  0.00  0.00    +0.000 C 
ATOM     13  C   UNL     1       6.270   4.368  17.895  0.00  0.00    +0.000 C 
ATOM     14  N   UNL     1       7.034   5.612  18.075  0.00  0.00    +0.000 NA
ATOM     15  C   UNL     1       7.650   5.618  19.410  0.00  0.00    +0.000 C 
ATOM     16  C   UNL     1       6.266   6.841  17.858  0.00  0.00    +0.000 C 
ENDROOT
BRANCH   8  17
ATOM     17  O   UNL     1       2.322   4.249  21.598  0.00  0.00    +0.000 OA
ATOM     18  H   UNL     1       2.589   4.783  22.365  0.00  0.00    +0.000 HD
ENDBRANCH   8  17
TORSDOF 1
ENDMDL
MODEL 5
REMARK VINA RESULT:      -6.4      2.616      4.487
REMARK  Name = 
REMARK  4 active torsions:
REMARK  status: ('A' for Active; 'I' for Inactive)
REMARK    1  A    between atoms: C_1  and  C_2
REMARK    2  A    between atoms: C_8  and  O_9
REMARK    3  A    between atoms: C_12  and  C_13
REMARK    4  A    between atoms: N_15  and  C_16
REMARK                            x       y       z     vdW  Elec       q    Type
REMARK                         _______ _______ _______ _____ _____    ______ ____
ROOT
ATOM      1  C   UNL     1       0.461   3.246  19.379  0.00  0.00    +0.000 C 
ATOM      2  C   UNL     1       1.728   3.685  18.645  0.00  0.00    +0.000 C 
ATOM      3  C   UNL     1       2.390   2.497  17.912  0.00  0.00    +0.000 C 
ATOM      4  C   UNL     1       2.996   3.137  16.658  0.00  0.00    +0.000 C 
ATOM      5  C   UNL     1       3.981   4.215  17.070  0.00  0.00    +0.000 A 
ATOM      6  C   UNL     1       4.951   4.600  16.129  0.00  0.00    +0.000 A 
ATOM      7  C   UNL     1       6.001   5.410  16.507  0.00  0.00    +0.000 A 
ATOM      8  C   UNL     1       6.084   5.842  17.827  0.00  0.00    +0.000 A 
ATOM      9  C   UNL     1       5.092   5.538  18.760  0.00  0.00    +0.000 A 
ATOM     10  C   UNL     1       3.994   4.745  18.395  0.00  0.00    +0.000 A 
ATOM     11  C   UNL     1       2.867   4.389  19.420  0.00  0.00    +0.000 C 
ATOM     12  C   UNL     1       2.347   5.673  20.105  0.00  0.00    +0.000 C 
ATOM     13  C   UNL     1       3.376   3.433  20.532  0.00  0.00    +0.000 C 
ATOM     14  N   UNL     1       3.636   2.039  20.143  0.00  0.00    +0.000 NA
ATOM     15  C   UNL     1       4.950   1.625  20.655  0.00  0.00    +0.000 C 
ATOM     16  C   UNL     1       3.538   1.775  18.705  0.00  0.00    +0.000 C 
ENDROOT
BRANCH   8  17
ATOM     17  O   UNL     1       7.160   6.564  18.251  0.00  0.00    +0.000 OA
ATOM     18  H   UNL     1       7.081   7.464  17.891  0.00  0.00    +0.000 HD
ENDBRANCH   8  17
TORSDOF 1
ENDMDL
MODEL 6
REMARK VINA RESULT:      -6.2      2.723      4.773
REMARK  Name = 
REMARK  4 active torsions:
REMARK  status: ('A' for Active; 'I' for Inactive)
REMARK    1  A    between atoms: C_1  and  C_2
REMARK    2  A    between atoms: C_8  and  O_9
REMARK    3  A    between atoms: C_12  and  C_13
REMARK    4  A    between atoms: N_15  and  C_16
REMARK                            x       y       z     vdW  Elec       q    Type
REMARK                         _______ _______ _______ _____ _____    ______ ____
ROOT
ATOM      1  C   UNL     1       2.810   3.293  20.589  0.00  0.00    +0.000 C 
ATOM      2  C   UNL     1       3.837   3.636  19.510  0.00  0.00    +0.000 C 
ATOM      3  C   UNL     1       4.527   4.987  19.804  0.00  0.00    +0.000 C 
ATOM      4  C   UNL     1       5.951   4.790  19.272  0.00  0.00    +0.000 C 
ATOM      5  C   UNL     1       5.893   4.453  17.794  0.00  0.00    +0.000 A 
ATOM      6  C   UNL     1       7.054   4.673  17.033  0.00  0.00    +0.000 A 
ATOM      7  C   UNL     1       7.006   4.593  15.656  0.00  0.00    +0.000 A 
ATOM      8  C   UNL     1       5.799   4.288  15.036  0.00  0.00    +0.000 A 
ATOM      9  C   UNL     1       4.653   3.988  15.771  0.00  0.00    +0.000 A 
ATOM     10  C   UNL     1       4.680   4.028  17.173  0.00  0.00    +0.000 A 
ATOM     11  C   UNL     1       3.409   3.696  18.025  0.00  0.00    +0.000 C 
ATOM     12  C   UNL     1       2.808   2.345  17.577  0.00  0.00    +0.000 C 
ATOM     13  C   UNL     1       2.308   4.778  17.868  0.00  0.00    +0.000 C 
ATOM     14  N   UNL     1       2.555   6.076  18.514  0.00  0.00    +0.000 NA
ATOM     15  C   UNL     1       2.271   7.159  17.560  0.00  0.00    +0.000 C 
ATOM     16  C   UNL     1       3.896   6.233  19.084  0.00  0.00    +0.000 C 
ENDROOT
BRANCH   8  17
ATOM     17  O   UNL     1       5.701   4.296  13.675  0.00  0.00    +0.000 OA
ATOM     18  H   UNL     1       5.129   3.557  13.409  0.00  0.00    +0.000 HD
ENDBRANCH   8  17
TORSDOF 1
ENDMDL
MODEL 7
REMARK VINA RESULT:      -5.9      2.328      4.383
REMARK  Name = 
REMARK  4 active torsions:
REMARK  status: ('A' for Active; 'I' for Inactive)
REMARK    1  A    between atoms: C_1  and  C_2
REMARK    2  A    between atoms: C_8  and  O_9
REMARK    3  A    between atoms: C_12  and  C_13
REMARK    4  A    between atoms: N_15  and  C_16
REMARK                            x       y       z     vdW  Elec       q    Type
REMARK                         _______ _______ _______ _____ _____    ______ ____
ROOT
ATOM      1  C   UNL     1       3.173   2.711  17.413  0.00  0.00    +0.000 C 
ATOM      2  C   UNL     1       4.333   3.621  17.813  0.00  0.00    +0.000 C 
ATOM      3  C   UNL     1       4.293   3.947  19.323  0.00  0.00    +0.000 C 
ATOM      4  C   UNL     1       5.772   4.054  19.710  0.00  0.00    +0.000 C 
ATOM      5  C   UNL     1       6.431   5.139  18.878  0.00  0.00    +0.000 A 
ATOM      6  C   UNL     1       7.624   5.697  19.369  0.00  0.00    +0.000 A 
ATOM      7  C   UNL     1       8.156   6.824  18.779  0.00  0.00    +0.000 A 
ATOM      8  C   UNL     1       7.500   7.397  17.694  0.00  0.00    +0.000 A 
ATOM      9  C   UNL     1       6.359   6.817  17.140  0.00  0.00    +0.000 A 
ATOM     10  C   UNL     1       5.815   5.650  17.697  0.00  0.00    +0.000 A 
ATOM     11  C   UNL     1       4.536   4.977  17.096  0.00  0.00    +0.000 C 
ATOM     12  C   UNL     1       4.710   4.767  15.575  0.00  0.00    +0.000 C 
ATOM     13  C   UNL     1       3.269   5.848  17.311  0.00  0.00    +0.000 C 
ATOM     14  N   UNL     1       2.738   5.923  18.680  0.00  0.00    +0.000 NA
ATOM     15  C   UNL     1       2.471   7.328  19.024  0.00  0.00    +0.000 C 
ATOM     16  C   UNL     1       3.582   5.296  19.700  0.00  0.00    +0.000 C 
ENDROOT
BRANCH   8  17
ATOM     17  O   UNL     1       7.950   8.565  17.152  0.00  0.00    +0.000 OA
ATOM     18  H   UNL     1       8.406   9.066  17.850  0.00  0.00    +0.000 HD
ENDBRANCH   8  17
TORSDOF 1
ENDMDL
MODEL 8
REMARK VINA RESULT:      -5.9      8.445     10.087
REMARK  Name = 
REMARK  4 active torsions:
REMARK  status: ('A' for Active; 'I' for Inactive)
REMARK    1  A    between atoms: C_1  and  C_2
REMARK    2  A    between atoms: C_8  and  O_9
REMARK    3  A    between atoms: C_12  and  C_13
REMARK    4  A    between atoms: N_15  and  C_16
REMARK                            x       y       z     vdW  Elec       q    Type
REMARK                         _______ _______ _______ _____ _____    ______ ____
ROOT
ATOM      1  C   UNL     1       8.887   9.992  18.961  0.00  0.00    +0.000 C 
ATOM      2  C   UNL     1       9.673  11.222  18.510  0.00  0.00    +0.000 C 
ATOM      3  C   UNL     1      10.930  11.434  19.383  0.00  0.00    +0.000 C 
ATOM      4  C   UNL     1      11.956  12.021  18.406  0.00  0.00    +0.000 C 
ATOM      5  C   UNL     1      11.408  13.307  17.817  0.00  0.00    +0.000 A 
ATOM      6  C   UNL     1      12.332  14.213  17.269  0.00  0.00    +0.000 A 
ATOM      7  C   UNL     1      11.930  15.484  16.914  0.00  0.00    +0.000 A 
ATOM      8  C   UNL     1      10.603  15.854  17.103  0.00  0.00    +0.000 A 
ATOM      9  C   UNL     1       9.651  14.949  17.572  0.00  0.00    +0.000 A 
ATOM     10  C   UNL     1      10.023  13.638  17.907  0.00  0.00    +0.000 A 
ATOM     11  C   UNL     1       8.976  12.601  18.435  0.00  0.00    +0.000 C 
ATOM     12  C   UNL     1       7.759  12.545  17.485  0.00  0.00    +0.000 C 
ATOM     13  C   UNL     1       8.455  12.973  19.849  0.00  0.00    +0.000 C 
ATOM     14  N   UNL     1       9.388  12.790  20.971  0.00  0.00    +0.000 NA
ATOM     15  C   UNL     1       9.387  13.998  21.809  0.00  0.00    +0.000 C 
ATOM     16  C   UNL     1      10.755  12.436  20.580  0.00  0.00    +0.000 C 
ENDROOT
BRANCH   8  17
ATOM     17  O   UNL     1      10.199  17.132  16.852  0.00  0.00    +0.000 OA
ATOM     18  H   UNL     1      10.393  17.333  15.920  0.00  0.00    +0.000 HD
ENDBRANCH   8  17
TORSDOF 1
ENDMDL
MODEL 9
REMARK VINA RESULT:      -5.7      2.079      3.424
REMARK  Name = 
REMARK  4 active torsions:
REMARK  status: ('A' for Active; 'I' for Inactive)
REMARK    1  A    between atoms: C_1  and  C_2
REMARK    2  A    between atoms: C_8  and  O_9
REMARK    3  A    between atoms: C_12  and  C_13
REMARK    4  A    between atoms: N_15  and  C_16
REMARK                            x       y       z     vdW  Elec       q    Type
REMARK                         _______ _______ _______ _____ _____    ______ ____
ROOT
ATOM      1  C   UNL     1       5.194   7.073  15.369  0.00  0.00    +0.000 C 
ATOM      2  C   UNL     1       4.480   6.011  16.204  0.00  0.00    +0.000 C 
ATOM      3  C   UNL     1       4.053   6.574  17.578  0.00  0.00    +0.000 C 
ATOM      4  C   UNL     1       2.742   5.839  17.880  0.00  0.00    +0.000 C 
ATOM      5  C   UNL     1       2.997   4.343  17.894  0.00  0.00    +0.000 A 
ATOM      6  C   UNL     1       2.069   3.535  18.574  0.00  0.00    +0.000 A 
ATOM      7  C   UNL     1       2.350   2.204  18.808  0.00  0.00    +0.000 A 
ATOM      8  C   UNL     1       3.557   1.677  18.362  0.00  0.00    +0.000 A 
ATOM      9  C   UNL     1       4.458   2.438  17.618  0.00  0.00    +0.000 A 
ATOM     10  C   UNL     1       4.183   3.784  17.333  0.00  0.00    +0.000 A 
ATOM     11  C   UNL     1       5.176   4.661  16.500  0.00  0.00    +0.000 C 
ATOM     12  C   UNL     1       5.546   3.941  15.184  0.00  0.00    +0.000 C 
ATOM     13  C   UNL     1       6.492   4.940  17.273  0.00  0.00    +0.000 C 
ATOM     14  N   UNL     1       6.414   5.879  18.403  0.00  0.00    +0.000 NA
ATOM     15  C   UNL     1       7.093   5.296  19.570  0.00  0.00    +0.000 C 
ATOM     16  C   UNL     1       5.057   6.301  18.756  0.00  0.00    +0.000 C 
ENDROOT
BRANCH   8  17
ATOM     17  O   UNL     1       3.902   0.392  18.663  0.00  0.00    +0.000 OA
ATOM     18  H   UNL     1       4.852   0.375  18.872  0.00  0.00    +0.000 HD
ENDBRANCH   8  17
TORSDOF 1
ENDMDL
