MODEL 1
REMARK VINA RESULT:      -5.7      0.000      0.000
REMARK  Name = 
REMARK  5 active torsions:
REMARK  status: ('A' for Active; 'I' for Inactive)
REMARK    1  A    between atoms: C_1  and  C_2
REMARK    2  A    between atoms: C_2  and  C_3
REMARK    3  A    between atoms: C_3  and  C_4
REMARK    4  A    between atoms: C_6  and  C_7
REMARK    5  A    between atoms: C_11  and  O_12
REMARK                            x       y       z     vdW  Elec       q    Type
REMARK                         _______ _______ _______ _____ _____    ______ ____
ROOT
ATOM      1  C   UNL     1       3.129   3.662  19.004  0.00  0.00    +0.000 A 
ATOM      2  O   UNL     1       2.615   4.900  18.641  0.00  0.00    +0.000 OA
ATOM      3  C   UNL     1       3.479   5.952  18.385  0.00  0.00    +0.000 A 
ATOM      4  C   UNL     1       2.805   7.221  17.970  0.00  0.00    +0.000 C 
ATOM      5  C   UNL     1       4.811   5.848  18.494  0.00  0.00    +0.000 A 
ATOM      6  C   UNL     1       5.388   4.561  18.905  0.00  0.00    +0.000 A 
ATOM      7  O   UNL     1       6.595   4.394  19.038  0.00  0.00    +0.000 OA
ATOM      8  C   UNL     1       4.444   3.441  19.157  0.00  0.00    +0.000 A 
ENDROOT
BRANCH   8   9
ATOM      9  O   UNL     1       4.971   2.224  19.542  0.00  0.00    +0.000 OA
ATOM     10  H   UNL     1       4.645   2.086  20.455  0.00  0.00    +0.000 HD
ENDBRANCH   8   9
BRANCH   1  11
ATOM     11  C   UNL     1       2.080   2.606  19.234  0.00  0.00    +0.000 C 
BRANCH  11  13
ATOM     12  C   UNL     1       1.572   2.696  21.694  0.00  0.00    +0.000 C 
ATOM     13  C   UNL     1       1.062   3.021  20.298  0.00  0.00    +0.000 C 
ENDBRANCH  11  13
ENDBRANCH   1  11
TORSDOF 3
ENDMDL
MODEL 2
REMARK VINA RESULT:      -5.6      2.871      4.525
REMARK  Name = 
REMARK  5 active torsions:
REMARK  status: ('A' for Active; 'I' for Inactive)
REMARK    1  A    between atoms: C_1  and  C_2
REMARK    2  A    between atoms: C_2  and  C_3
REMARK    3  A    between atoms: C_3  and  C_4
REMARK    4  A    between atoms: C_6  and  C_7
REMARK    5  A    between atoms: C_11  and  O_12
REMARK                            x       y       z     vdW  Elec       q    Type
REMARK                         _______ _______ _______ _____ _____    ______ ____
ROOT
ATOM      1  C   UNL     1       5.865   4.307  16.684  0.00  0.00    +0.000 A 
ATOM      2  O   UNL     1       4.489   4.466  16.789  0.00  0.00    +0.000 OA
ATOM      3  C   UNL     1       3.945   4.972  17.958  0.00  0.00    +0.000 A 
ATOM      4  C   UNL     1       2.458   5.128  17.934  0.00  0.00    +0.000 C 
ATOM      5  C   UNL     1       4.685   5.302  19.026  0.00  0.00    +0.000 A 
ATOM      6  C   UNL     1       6.141   5.119  18.961  0.00  0.00    +0.000 A 
ATOM      7  O   UNL     1       6.881   5.386  19.902  0.00  0.00    +0.000 OA
ATOM      8  C   UNL     1       6.705   4.591  17.691  0.00  0.00    +0.000 A 
ENDROOT
BRANCH   8   9
ATOM      9  O   UNL     1       8.072   4.416  17.613  0.00  0.00    +0.000 OA
ATOM     10  H   UNL     1       8.364   5.024  16.903  0.00  0.00    +0.000 HD
ENDBRANCH   8   9
BRANCH   1  11
ATOM     11  C   UNL     1       6.319   3.765  15.354  0.00  0.00    +0.000 C 
BRANCH  11  13
ATOM     12  C   UNL     1       5.785   3.580  12.906  0.00  0.00    +0.000 C 
ATOM     13  C   UNL     1       5.539   4.367  14.183  0.00  0.00    +0.000 C 
ENDBRANCH  11  13
ENDBRANCH   1  11
TORSDOF 3
ENDMDL
MODEL 3
REMARK VINA RESULT:      -5.6      3.374      5.724
REMARK  Name = 
REMARK  5 active torsions:
REMARK  status: ('A' for Active; 'I' for Inactive)
REMARK    1  A    between atoms: C_1  and  C_2
REMARK    2  A    between atoms: C_2  and  C_3
REMARK    3  A    between atoms: C_3  and  C_4
REMARK    4  A    between atoms: C_6  and  C_7
REMARK    5  A    between atoms: C_11  and  O_12
REMARK                            x       y       z     vdW  Elec       q    Type
REMARK                         _______ _______ _______ _____ _____    ______ ____
ROOT
ATOM      1  C   UNL     1       7.056   5.962  17.468  0.00  0.00    +0.000 A 
ATOM      2  O   UNL     1       7.399   5.820  16.129  0.00  0.00    +0.000 OA
ATOM      3  C   UNL     1       6.713   4.912  15.339  0.00  0.00    +0.000 A 
ATOM      4  C   UNL     1       7.151   4.878  13.910  0.00  0.00    +0.000 C 
ATOM      5  C   UNL     1       5.732   4.129  15.809  0.00  0.00    +0.000 A 
ATOM      6  C   UNL     1       5.363   4.231  17.227  0.00  0.00    +0.000 A 
ATOM      7  O   UNL     1       4.485   3.538  17.731  0.00  0.00    +0.000 OA
ATOM      8  C   UNL     1       6.100   5.224  18.052  0.00  0.00    +0.000 A 
ENDROOT
BRANCH   8   9
ATOM      9  O   UNL     1       5.764   5.334  19.387  0.00  0.00    +0.000 OA
ATOM     10  H   UNL     1       5.523   6.275  19.509  0.00  0.00    +0.000 HD
ENDBRANCH   8   9
BRANCH   1  11
ATOM     11  C   UNL     1       7.870   6.994  18.202  0.00  0.00    +0.000 C 
BRANCH  11  13
ATOM     12  C   UNL     1       8.598   9.397  18.328  0.00  0.00    +0.000 C 
ATOM     13  C   UNL     1       7.737   8.388  17.583  0.00  0.00    +0.000 C 
ENDBRANCH  11  13
ENDBRANCH   1  11
TORSDOF 3
ENDMDL
MODEL 4
REMARK VINA RESULT:      -5.6      3.518      5.125
REMARK  Name = 
REMARK  5 active torsions:
REMARK  status: ('A' for Active; 'I' for Inactive)
REMARK    1  A    between atoms: C_1  and  C_2
REMARK    2  A    between atoms: C_2  and  C_3
REMARK    3  A    between atoms: C_3  and  C_4
REMARK    4  A    between atoms: C_6  and  C_7
REMARK    5  A    between atoms: C_11  and  O_12
REMARK                            x       y       z     vdW  Elec       q    Type
REMARK                         _______ _______ _______ _____ _____    ______ ____
ROOT
ATOM      1  C   UNL     1       5.909   5.206  16.074  0.00  0.00    +0.000 A 
ATOM      2  O   UNL     1       6.596   6.401  16.250  0.00  0.00    +0.000 OA
ATOM      3  C   UNL     1       7.070   6.740  17.506  0.00  0.00    +0.000 A 
ATOM      4  C   UNL     1       7.823   8.031  17.558  0.00  0.00    +0.000 C 
ATOM      5  C   UNL     1       6.878   5.976  18.591  0.00  0.00    +0.000 A 
ATOM      6  C   UNL     1       6.128   4.721  18.448  0.00  0.00    +0.000 A 
ATOM      7  O   UNL     1       5.902   3.978  19.397  0.00  0.00    +0.000 OA
ATOM      8  C   UNL     1       5.645   4.368  17.088  0.00  0.00    +0.000 A 
ENDROOT
BRANCH   8   9
ATOM      9  O   UNL     1       4.941   3.190  16.936  0.00  0.00    +0.000 OA
ATOM     10  H   UNL     1       5.620   2.485  16.969  0.00  0.00    +0.000 HD
ENDBRANCH   8   9
BRANCH   1  11
ATOM     11  C   UNL     1       5.467   4.957  14.656  0.00  0.00    +0.000 C 
BRANCH  11  13
ATOM     12  C   UNL     1       5.899   3.506  12.650  0.00  0.00    +0.000 C 
ATOM     13  C   UNL     1       6.528   4.217  13.838  0.00  0.00    +0.000 C 
ENDBRANCH  11  13
ENDBRANCH   1  11
TORSDOF 3
ENDMDL
MODEL 5
REMARK VINA RESULT:      -5.6      1.915      2.667
REMARK  Name = 
REMARK  5 active torsions:
REMARK  status: ('A' for Active; 'I' for Inactive)
REMARK    1  A    between atoms: C_1  and  C_2
REMARK    2  A    between atoms: C_2  and  C_3
REMARK    3  A    between atoms: C_3  and  C_4
REMARK    4  A    between atoms: C_6  and  C_7
REMARK    5  A    between atoms: C_11  and  O_12
REMARK                            x       y       z     vdW  Elec       q    Type
REMARK                         _______ _______ _______ _____ _____    ______ ____
ROOT
ATOM      1  C   UNL     1       3.560   4.703  17.878  0.00  0.00    +0.000 A 
ATOM      2  O   UNL     1       4.126   4.336  16.663  0.00  0.00    +0.000 OA
ATOM      3  C   UNL     1       5.505   4.288  16.537  0.00  0.00    +0.000 A 
ATOM      4  C   UNL     1       5.989   3.846  15.193  0.00  0.00    +0.000 C 
ATOM      5  C   UNL     1       6.342   4.605  17.534  0.00  0.00    +0.000 A 
ATOM      6  C   UNL     1       5.779   5.026  18.824  0.00  0.00    +0.000 A 
ATOM      7  O   UNL     1       6.482   5.343  19.777  0.00  0.00    +0.000 OA
ATOM      8  C   UNL     1       4.298   5.053  18.943  0.00  0.00    +0.000 A 
ENDROOT
BRANCH   8   9
ATOM      9  O   UNL     1       3.752   5.444  20.150  0.00  0.00    +0.000 OA
ATOM     10  H   UNL     1       4.163   4.855  20.815  0.00  0.00    +0.000 HD
ENDBRANCH   8   9
BRANCH   1  11
ATOM     11  C   UNL     1       2.055   4.696  17.879  0.00  0.00    +0.000 C 
BRANCH  11  13
ATOM     12  C   UNL     1       0.924   3.428  19.732  0.00  0.00    +0.000 C 
ATOM     13  C   UNL     1       1.480   3.347  18.318  0.00  0.00    +0.000 C 
ENDBRANCH  11  13
ENDBRANCH   1  11
TORSDOF 3
ENDMDL
MODEL 6
REMARK VINA RESULT:      -5.5      3.276      5.590
REMARK  Name = 
REMARK  5 active torsions:
REMARK  status: ('A' for Active; 'I' for Inactive)
REMARK    1  A    between atoms: C_1  and  C_2
REMARK    2  A    between atoms: C_2  and  C_3
REMARK    3  A    between atoms: C_3  and  C_4
REMARK    4  A    between atoms: C_6  and  C_7
REMARK    5  A    between atoms: C_11  and  O_12
REMARK                            x       y       z     vdW  Elec       q    Type
REMARK                         _______ _______ _______ _____ _____    ______ ____
ROOT
ATOM      1  C   UNL     1       7.263   6.389  18.054  0.00  0.00    +0.000 A 
ATOM      2  O   UNL     1       6.809   6.407  16.741  0.00  0.00    +0.000 OA
ATOM      3  C   UNL     1       5.865   5.481  16.329  0.00  0.00    +0.000 A 
ATOM      4  C   UNL     1       5.433   5.627  14.905  0.00  0.00    +0.000 C 
ATOM      5  C   UNL     1       5.370   4.533  17.137  0.00  0.00    +0.000 A 
ATOM      6  C   UNL     1       5.849   4.464  18.524  0.00  0.00    +0.000 A 
ATOM      7  O   UNL     1       5.452   3.617  19.317  0.00  0.00    +0.000 OA
ATOM      8  C   UNL     1       6.849   5.478  18.950  0.00  0.00    +0.000 A 
ENDROOT
BRANCH   8   9
ATOM      9  O   UNL     1       7.308   5.429  20.251  0.00  0.00    +0.000 OA
ATOM     10  H   UNL     1       7.299   6.360  20.556  0.00  0.00    +0.000 HD
ENDBRANCH   8   9
BRANCH   1  11
ATOM     11  C   UNL     1       8.273   7.459  18.369  0.00  0.00    +0.000 C 
BRANCH  11  13
ATOM     12  C   UNL     1       8.749   9.927  18.328  0.00  0.00    +0.000 C 
ATOM     13  C   UNL     1       7.911   8.805  17.735  0.00  0.00    +0.000 C 
ENDBRANCH  11  13
ENDBRANCH   1  11
TORSDOF 3
ENDMDL
MODEL 7
REMARK VINA RESULT:      -5.5      4.239      5.312
REMARK  Name = 
REMARK  5 active torsions:
REMARK  status: ('A' for Active; 'I' for Inactive)
REMARK    1  A    between atoms: C_1  and  C_2
REMARK    2  A    between atoms: C_2  and  C_3
REMARK    3  A    between atoms: C_3  and  C_4
REMARK    4  A    between atoms: C_6  and  C_7
REMARK    5  A    between atoms: C_11  and  O_12
REMARK                            x       y       z     vdW  Elec       q    Type
REMARK                         _______ _______ _______ _____ _____    ______ ____
ROOT
ATOM      1  C   UNL     1       6.683   5.887  16.890  0.00  0.00    +0.000 A 
ATOM      2  O   UNL     1       7.094   7.208  16.756  0.00  0.00    +0.000 OA
ATOM      3  C   UNL     1       7.810   7.810  17.777  0.00  0.00    +0.000 A 
ATOM      4  C   UNL     1       8.224   9.219  17.497  0.00  0.00    +0.000 C 
ATOM      5  C   UNL     1       8.113   7.185  18.924  0.00  0.00    +0.000 A 
ATOM      6  C   UNL     1       7.668   5.799  19.114  0.00  0.00    +0.000 A 
ATOM      7  O   UNL     1       7.898   5.168  20.140  0.00  0.00    +0.000 OA
ATOM      8  C   UNL     1       6.918   5.166  17.997  0.00  0.00    +0.000 A 
ENDROOT
BRANCH   8   9
ATOM      9  O   UNL     1       6.494   3.862  18.159  0.00  0.00    +0.000 OA
ATOM     10  H   UNL     1       5.517   3.915  18.180  0.00  0.00    +0.000 HD
ENDBRANCH   8   9
BRANCH   1  11
ATOM     11  C   UNL     1       5.931   5.355  15.699  0.00  0.00    +0.000 C 
BRANCH  11  13
ATOM     12  C   UNL     1       6.162   3.858  13.694  0.00  0.00    +0.000 C 
ATOM     13  C   UNL     1       6.867   4.860  14.594  0.00  0.00    +0.000 C 
ENDBRANCH  11  13
ENDBRANCH   1  11
TORSDOF 3
ENDMDL
MODEL 8
REMARK VINA RESULT:      -5.4      0.876      1.162
REMARK  Name = 
REMARK  5 active torsions:
REMARK  status: ('A' for Active; 'I' for Inactive)
REMARK    1  A    between atoms: C_1  and  C_2
REMARK    2  A    between atoms: C_2  and  C_3
REMARK    3  A    between atoms: C_3  and  C_4
REMARK    4  A    between atoms: C_6  and  C_7
REMARK    5  A    between atoms: C_11  and  O_12
REMARK                            x       y       z     vdW  Elec       q    Type
REMARK                         _______ _______ _______ _____ _____    ______ ____
ROOT
ATOM      1  C   UNL     1       3.291   4.307  19.734  0.00  0.00    +0.000 A 
ATOM      2  O   UNL     1       2.714   5.519  19.376  0.00  0.00    +0.000 OA
ATOM      3  C   UNL     1       3.354   6.338  18.461  0.00  0.00    +0.000 A 
ATOM      4  C   UNL     1       2.615   7.596  18.132  0.00  0.00    +0.000 C 
ATOM      5  C   UNL     1       4.536   6.033  17.907  0.00  0.00    +0.000 A 
ATOM      6  C   UNL     1       5.190   4.774  18.285  0.00  0.00    +0.000 A 
ATOM      7  O   UNL     1       6.277   4.435  17.831  0.00  0.00    +0.000 OA
ATOM      8  C   UNL     1       4.478   3.901  19.255  0.00  0.00    +0.000 A 
ENDROOT
BRANCH   8   9
ATOM      9  O   UNL     1       5.078   2.712  19.619  0.00  0.00    +0.000 OA
ATOM     10  H   UNL     1       4.608   2.025  19.104  0.00  0.00    +0.000 HD
ENDBRANCH   8   9
BRANCH   1  11
ATOM     11  C   UNL     1       2.481   3.510  20.722  0.00  0.00    +0.000 C 
BRANCH  11  13
ATOM     12  C   UNL     1       0.917   2.536  19.013  0.00  0.00    +0.000 C 
ATOM     13  C   UNL     1       1.021   3.358  20.288  0.00  0.00    +0.000 C 
ENDBRANCH  11  13
ENDBRANCH   1  11
TORSDOF 3
ENDMDL
MODEL 9
REMARK VINA RESULT:      -5.4      2.487      3.339
REMARK  Name = 
REMARK  5 active torsions:
REMARK  status: ('A' for Active; 'I' for Inactive)
REMARK    1  A    between atoms: C_1  and  C_2
REMARK    2  A    between atoms: C_2  and  C_3
REMARK    3  A    between atoms: C_3  and  C_4
REMARK    4  A    between atoms: C_6  and  C_7
REMARK    5  A    between atoms: C_11  and  O_12
REMARK                            x       y       z     vdW  Elec       q    Type
REMARK                         _______ _______ _______ _____ _____    ______ ____
ROOT
ATOM      1  C   UNL     1       4.590   4.634  17.473  0.00  0.00    +0.000 A 
ATOM      2  O   UNL     1       4.791   4.387  16.120  0.00  0.00    +0.000 OA
ATOM      3  C   UNL     1       6.082   4.274  15.629  0.00  0.00    +0.000 A 
ATOM      4  C   UNL     1       6.164   3.973  14.167  0.00  0.00    +0.000 C 
ATOM      5  C   UNL     1       7.171   4.418  16.397  0.00  0.00    +0.000 A 
ATOM      6  C   UNL     1       6.997   4.709  17.826  0.00  0.00    +0.000 A 
ATOM      7  O   UNL     1       7.945   4.866  18.586  0.00  0.00    +0.000 OA
ATOM      8  C   UNL     1       5.604   4.808  18.335  0.00  0.00    +0.000 A 
ENDROOT
BRANCH   8   9
ATOM      9  O   UNL     1       5.422   5.079  19.676  0.00  0.00    +0.000 OA
ATOM     10  H   UNL     1       4.451   5.081  19.803  0.00  0.00    +0.000 HD
ENDBRANCH   8   9
BRANCH   1  11
ATOM     11  C   UNL     1       3.141   4.714  17.872  0.00  0.00    +0.000 C 
BRANCH  11  13
ATOM     12  C   UNL     1       2.860   2.220  18.013  0.00  0.00    +0.000 C 
ATOM     13  C   UNL     1       2.336   3.505  17.389  0.00  0.00    +0.000 C 
ENDBRANCH  11  13
ENDBRANCH   1  11
TORSDOF 3
ENDMDL
