MODEL 1
REMARK VINA RESULT:      -8.7      0.000      0.000
REMARK  Name = 
REMARK  7 active torsions:
REMARK  status: ('A' for Active; 'I' for Inactive)
REMARK    1  A    between atoms: C_1  and  O_2
REMARK    2  A    between atoms: O_2  and  C_3
REMARK    3  A    between atoms: C_6  and  C_7
REMARK    4  A    between atoms: C_8  and  C_9
REMARK    5  A    between atoms: C_11  and  C_12
REMARK    6  A    between atoms: C_12  and  O_13
REMARK    7  A    between atoms: O_13  and  C_14
REMARK                            x       y       z     vdW  Elec       q    Type
REMARK                         _______ _______ _______ _____ _____    ______ ____
ROOT
ATOM      1  C   UNL     1       7.560   7.961  17.692  0.00  0.00    +0.000 A 
ATOM      2  C   UNL     1       7.837   6.762  18.389  0.00  0.00    +0.000 A 
ATOM      3  C   UNL     1       6.944   5.850  17.878  0.00  0.00    +0.000 A 
ATOM      4  O   UNL     1       6.165   6.465  16.951  0.00  0.00    +0.000 OA
ATOM      5  N   UNL     1       6.547   7.787  16.830  0.00  0.00    +0.000 NA
ENDROOT
BRANCH   1   7
ATOM      6  C   UNL     1       9.008   9.490  18.957  0.00  0.00    +0.000 C 
ATOM      7  C   UNL     1       8.290   9.181  17.866  0.00  0.00    +0.000 C 
BRANCH   6  11
ATOM      8  C   UNL     1      11.018  13.209  19.673  0.00  0.00    +0.000 A 
ATOM      9  C   UNL     1      10.455  12.480  20.720  0.00  0.00    +0.000 A 
ATOM     10  C   UNL     1       9.812  11.263  20.471  0.00  0.00    +0.000 A 
ATOM     11  C   UNL     1       9.701  10.768  19.168  0.00  0.00    +0.000 A 
ATOM     12  C   UNL     1      10.277  11.501  18.124  0.00  0.00    +0.000 A 
ATOM     13  C   UNL     1      10.923  12.719  18.372  0.00  0.00    +0.000 A 
BRANCH   8  15
ATOM     14  C   UNL     1      12.044  15.213  18.958  0.00  0.00    +0.000 C 
ATOM     15  O   UNL     1      11.604  14.390  20.033  0.00  0.00    +0.000 OA
ENDBRANCH   8  15
ENDBRANCH   6  11
ENDBRANCH   1   7
BRANCH   3  16
ATOM     16  C   UNL     1       6.698   4.411  18.105  0.00  0.00    +0.000 C 
BRANCH  16  17
ATOM     17  O   UNL     1       5.365   4.159  17.666  0.00  0.00    +0.000 OA
BRANCH  17  18
ATOM     18  C   UNL     1       4.347   4.111  18.681  0.00  0.00    +0.000 C 
ATOM     19  C   UNL     1       3.061   4.837  18.242  0.00  0.00    +0.000 C 
ATOM     20  C   UNL     1       1.932   3.875  17.913  0.00  0.00    +0.000 C 
ATOM     21  O   UNL     1       0.992   4.212  17.193  0.00  0.00    +0.000 OA
ATOM     22  C   UNL     1       2.002   2.520  18.617  0.00  0.00    +0.000 C 
ATOM     23  O   UNL     1       1.950   2.759  20.026  0.00  0.00    +0.000 OA
ATOM     24  C   UNL     1       3.303   2.621  20.478  0.00  0.00    +0.000 C 
ATOM     25  C   UNL     1       4.137   2.674  19.212  0.00  0.00    +0.000 C 
ATOM     26  O   UNL     1       3.283   1.968  18.298  0.00  0.00    +0.000 OA
ENDBRANCH  17  18
ENDBRANCH  16  17
ENDBRANCH   3  16
TORSDOF 6
ENDMDL
MODEL 2
REMARK VINA RESULT:      -8.7      1.229      1.492
REMARK  Name = 
REMARK  7 active torsions:
REMARK  status: ('A' for Active; 'I' for Inactive)
REMARK    1  A    between atoms: C_1  and  O_2
REMARK    2  A    between atoms: O_2  and  C_3
REMARK    3  A    between atoms: C_6  and  C_7
REMARK    4  A    between atoms: C_8  and  C_9
REMARK    5  A    between atoms: C_11  and  C_12
REMARK    6  A    between atoms: C_12  and  O_13
REMARK    7  A    between atoms: O_13  and  C_14
REMARK                            x       y       z     vdW  Elec       q    Type
REMARK                         _______ _______ _______ _____ _____    ______ ____
ROOT
ATOM      1  C   UNL     1       7.445   6.883  17.837  0.00  0.00    +0.000 A 
ATOM      2  C   UNL     1       6.609   6.043  18.610  0.00  0.00    +0.000 A 
ATOM      3  C   UNL     1       6.072   5.161  17.703  0.00  0.00    +0.000 A 
ATOM      4  O   UNL     1       6.535   5.463  16.463  0.00  0.00    +0.000 OA
ATOM      5  N   UNL     1       7.396   6.541  16.541  0.00  0.00    +0.000 NA
ENDROOT
BRANCH   1   7
ATOM      6  C   UNL     1       8.217   9.211  17.979  0.00  0.00    +0.000 C 
ATOM      7  C   UNL     1       8.256   7.931  18.380  0.00  0.00    +0.000 C 
BRANCH   6  11
ATOM      8  C   UNL     1      10.766  12.280  19.549  0.00  0.00    +0.000 A 
ATOM      9  C   UNL     1      10.090  11.401  20.395  0.00  0.00    +0.000 A 
ATOM     10  C   UNL     1       9.271  10.398  19.866  0.00  0.00    +0.000 A 
ATOM     11  C   UNL     1       9.096  10.275  18.485  0.00  0.00    +0.000 A 
ATOM     12  C   UNL     1       9.785  11.155  17.642  0.00  0.00    +0.000 A 
ATOM     13  C   UNL     1      10.607  12.158  18.170  0.00  0.00    +0.000 A 
BRANCH   8  15
ATOM     14  C   UNL     1      12.000  14.285  19.351  0.00  0.00    +0.000 C 
ATOM     15  O   UNL     1      11.523  13.229  20.179  0.00  0.00    +0.000 OA
ENDBRANCH   8  15
ENDBRANCH   6  11
ENDBRANCH   1   7
BRANCH   3  16
ATOM     16  C   UNL     1       5.165   4.000  17.810  0.00  0.00    +0.000 C 
BRANCH  16  17
ATOM     17  O   UNL     1       3.903   4.430  17.304  0.00  0.00    +0.000 OA
BRANCH  17  18
ATOM     18  C   UNL     1       2.882   4.724  18.274  0.00  0.00    +0.000 C 
ATOM     19  C   UNL     1       1.516   4.137  17.871  0.00  0.00    +0.000 C 
ATOM     20  C   UNL     1       1.126   2.935  18.714  0.00  0.00    +0.000 C 
ATOM     21  O   UNL     1       0.303   2.111  18.315  0.00  0.00    +0.000 OA
ATOM     22  C   UNL     1       1.746   2.888  20.111  0.00  0.00    +0.000 C 
ATOM     23  O   UNL     1       1.313   4.054  20.818  0.00  0.00    +0.000 OA
ATOM     24  C   UNL     1       2.432   4.949  20.781  0.00  0.00    +0.000 C 
ATOM     25  C   UNL     1       3.343   4.380  19.710  0.00  0.00    +0.000 C 
ATOM     26  O   UNL     1       3.163   2.972  19.924  0.00  0.00    +0.000 OA
ENDBRANCH  17  18
ENDBRANCH  16  17
ENDBRANCH   3  16
TORSDOF 6
ENDMDL
MODEL 3
REMARK VINA RESULT:      -8.6      1.199      1.421
REMARK  Name = 
REMARK  7 active torsions:
REMARK  status: ('A' for Active; 'I' for Inactive)
REMARK    1  A    between atoms: C_1  and  O_2
REMARK    2  A    between atoms: O_2  and  C_3
REMARK    3  A    between atoms: C_6  and  C_7
REMARK    4  A    between atoms: C_8  and  C_9
REMARK    5  A    between atoms: C_11  and  C_12
REMARK    6  A    between atoms: C_12  and  O_13
REMARK    7  A    between atoms: O_13  and  C_14
REMARK                            x       y       z     vdW  Elec       q    Type
REMARK                         _______ _______ _______ _____ _____    ______ ____
ROOT
ATOM      1  C   UNL     1       7.111   6.969  17.215  0.00  0.00    +0.000 A 
ATOM      2  C   UNL     1       6.062   6.459  18.017  0.00  0.00    +0.000 A 
ATOM      3  C   UNL     1       5.868   5.179  17.558  0.00  0.00    +0.000 A 
ATOM      4  O   UNL     1       6.727   4.940  16.533  0.00  0.00    +0.000 OA
ATOM      5  N   UNL     1       7.507   6.058  16.315  0.00  0.00    +0.000 NA
ENDROOT
BRANCH   1   7
ATOM      6  C   UNL     1       8.345   8.685  18.470  0.00  0.00    +0.000 C 
ATOM      7  C   UNL     1       7.686   8.271  17.376  0.00  0.00    +0.000 C 
BRANCH   6  11
ATOM      8  C   UNL     1       9.939  12.611  19.123  0.00  0.00    +0.000 A 
ATOM      9  C   UNL     1      10.165  11.579  20.033  0.00  0.00    +0.000 A 
ATOM     10  C   UNL     1       9.648  10.301  19.800  0.00  0.00    +0.000 A 
ATOM     11  C   UNL     1       8.874  10.041  18.665  0.00  0.00    +0.000 A 
ATOM     12  C   UNL     1       8.659  11.079  17.751  0.00  0.00    +0.000 A 
ATOM     13  C   UNL     1       9.178  12.359  17.982  0.00  0.00    +0.000 A 
BRANCH   8  15
ATOM     14  C   UNL     1      11.891  13.837  19.637  0.00  0.00    +0.000 C 
ATOM     15  O   UNL     1      10.478  13.819  19.464  0.00  0.00    +0.000 OA
ENDBRANCH   8  15
ENDBRANCH   6  11
ENDBRANCH   1   7
BRANCH   3  16
ATOM     16  C   UNL     1       4.981   4.066  17.955  0.00  0.00    +0.000 C 
BRANCH  16  17
ATOM     17  O   UNL     1       4.820   4.167  19.368  0.00  0.00    +0.000 OA
BRANCH  17  18
ATOM     18  C   UNL     1       3.472   4.251  19.864  0.00  0.00    +0.000 C 
ATOM     19  C   UNL     1       2.520   4.898  18.839  0.00  0.00    +0.000 C 
ATOM     20  C   UNL     1       1.582   3.890  18.197  0.00  0.00    +0.000 C 
ATOM     21  O   UNL     1       1.042   4.115  17.115  0.00  0.00    +0.000 OA
ATOM     22  C   UNL     1       1.288   2.646  19.036  0.00  0.00    +0.000 C 
ATOM     23  O   UNL     1       0.670   3.077  20.252  0.00  0.00    +0.000 OA
ATOM     24  C   UNL     1       1.706   3.014  21.239  0.00  0.00    +0.000 C 
ATOM     25  C   UNL     1       2.991   2.899  20.440  0.00  0.00    +0.000 C 
ATOM     26  O   UNL     1       2.557   2.066  19.354  0.00  0.00    +0.000 OA
ENDBRANCH  17  18
ENDBRANCH  16  17
ENDBRANCH   3  16
TORSDOF 6
ENDMDL
MODEL 4
REMARK VINA RESULT:      -8.6      1.066      1.781
REMARK  Name = 
REMARK  7 active torsions:
REMARK  status: ('A' for Active; 'I' for Inactive)
REMARK    1  A    between atoms: C_1  and  O_2
REMARK    2  A    between atoms: O_2  and  C_3
REMARK    3  A    between atoms: C_6  and  C_7
REMARK    4  A    between atoms: C_8  and  C_9
REMARK    5  A    between atoms: C_11  and  C_12
REMARK    6  A    between atoms: C_12  and  O_13
REMARK    7  A    between atoms: O_13  and  C_14
REMARK                            x       y       z     vdW  Elec       q    Type
REMARK                         _______ _______ _______ _____ _____    ______ ____
ROOT
ATOM      1  C   UNL     1       7.862   7.586  18.010  0.00  0.00    +0.000 A 
ATOM      2  C   UNL     1       7.673   6.322  18.618  0.00  0.00    +0.000 A 
ATOM      3  C   UNL     1       6.835   5.648  17.762  0.00  0.00    +0.000 A 
ATOM      4  O   UNL     1       6.521   6.460  16.719  0.00  0.00    +0.000 OA
ATOM      5  N   UNL     1       7.163   7.673  16.869  0.00  0.00    +0.000 NA
ENDROOT
BRANCH   1   7
ATOM      6  C   UNL     1       8.681   9.898  18.153  0.00  0.00    +0.000 C 
ATOM      7  C   UNL     1       8.714   8.611  18.533  0.00  0.00    +0.000 C 
BRANCH   6  11
ATOM      8  C   UNL     1      11.366  12.970  19.470  0.00  0.00    +0.000 A 
ATOM      9  C   UNL     1      11.017  12.844  18.126  0.00  0.00    +0.000 A 
ATOM     10  C   UNL     1      10.130  11.844  17.714  0.00  0.00    +0.000 A 
ATOM     11  C   UNL     1       9.600  10.937  18.636  0.00  0.00    +0.000 A 
ATOM     12  C   UNL     1       9.948  11.075  19.985  0.00  0.00    +0.000 A 
ATOM     13  C   UNL     1      10.834  12.077  20.400  0.00  0.00    +0.000 A 
BRANCH   8  15
ATOM     14  C   UNL     1      11.704  15.285  19.798  0.00  0.00    +0.000 C 
ATOM     15  O   UNL     1      12.252  13.972  19.752  0.00  0.00    +0.000 OA
ENDBRANCH   8  15
ENDBRANCH   6  11
ENDBRANCH   1   7
BRANCH   3  16
ATOM     16  C   UNL     1       6.264   4.286  17.741  0.00  0.00    +0.000 C 
BRANCH  16  17
ATOM     17  O   UNL     1       5.534   4.139  18.957  0.00  0.00    +0.000 OA
BRANCH  17  18
ATOM     18  C   UNL     1       4.347   3.327  18.906  0.00  0.00    +0.000 C 
ATOM     19  C   UNL     1       3.436   3.559  20.127  0.00  0.00    +0.000 C 
ATOM     20  C   UNL     1       2.185   4.348  19.779  0.00  0.00    +0.000 C 
ATOM     21  O   UNL     1       1.553   4.959  20.640  0.00  0.00    +0.000 OA
ATOM     22  C   UNL     1       1.726   4.238  18.325  0.00  0.00    +0.000 C 
ATOM     23  O   UNL     1       1.439   2.862  18.063  0.00  0.00    +0.000 OA
ATOM     24  C   UNL     1       2.571   2.378  17.329  0.00  0.00    +0.000 C 
ATOM     25  C   UNL     1       3.641   3.434  17.534  0.00  0.00    +0.000 C 
ATOM     26  O   UNL     1       2.844   4.629  17.521  0.00  0.00    +0.000 OA
ENDBRANCH  17  18
ENDBRANCH  16  17
ENDBRANCH   3  16
TORSDOF 6
ENDMDL
MODEL 5
REMARK VINA RESULT:      -8.6      1.561      1.966
REMARK  Name = 
REMARK  7 active torsions:
REMARK  status: ('A' for Active; 'I' for Inactive)
REMARK    1  A    between atoms: C_1  and  O_2
REMARK    2  A    between atoms: O_2  and  C_3
REMARK    3  A    between atoms: C_6  and  C_7
REMARK    4  A    between atoms: C_8  and  C_9
REMARK    5  A    between atoms: C_11  and  C_12
REMARK    6  A    between atoms: C_12  and  O_13
REMARK    7  A    between atoms: O_13  and  C_14
REMARK                            x       y       z     vdW  Elec       q    Type
REMARK                         _______ _______ _______ _____ _____    ______ ____
ROOT
ATOM      1  C   UNL     1       7.452   6.513  17.802  0.00  0.00    +0.000 A 
ATOM      2  C   UNL     1       6.234   6.520  17.083  0.00  0.00    +0.000 A 
ATOM      3  C   UNL     1       5.956   5.193  16.860  0.00  0.00    +0.000 A 
ATOM      4  O   UNL     1       6.953   4.437  17.388  0.00  0.00    +0.000 OA
ATOM      5  N   UNL     1       7.892   5.259  17.980  0.00  0.00    +0.000 NA
ENDROOT
BRANCH   1   7
ATOM      6  C   UNL     1       7.910   8.927  17.813  0.00  0.00    +0.000 C 
ATOM      7  C   UNL     1       8.102   7.690  18.297  0.00  0.00    +0.000 C 
BRANCH   6  11
ATOM      8  C   UNL     1      10.044  12.369  19.221  0.00  0.00    +0.000 A 
ATOM      9  C   UNL     1      10.146  11.140  19.873  0.00  0.00    +0.000 A 
ATOM     10  C   UNL     1       9.452  10.024  19.394  0.00  0.00    +0.000 A 
ATOM     11  C   UNL     1       8.626  10.126  18.271  0.00  0.00    +0.000 A 
ATOM     12  C   UNL     1       8.536  11.360  17.617  0.00  0.00    +0.000 A 
ATOM     13  C   UNL     1       9.231  12.478  18.094  0.00  0.00    +0.000 A 
BRANCH   8  15
ATOM     14  C   UNL     1      10.255  13.866  21.036  0.00  0.00    +0.000 C 
ATOM     15  O   UNL     1      10.752  13.391  19.789  0.00  0.00    +0.000 OA
ENDBRANCH   8  15
ENDBRANCH   6  11
ENDBRANCH   1   7
BRANCH   3  16
ATOM     16  C   UNL     1       4.840   4.468  16.219  0.00  0.00    +0.000 C 
BRANCH  16  17
ATOM     17  O   UNL     1       4.209   3.713  17.251  0.00  0.00    +0.000 OA
BRANCH  17  18
ATOM     18  C   UNL     1       3.166   4.371  17.992  0.00  0.00    +0.000 C 
ATOM     19  C   UNL     1       1.769   3.843  17.615  0.00  0.00    +0.000 C 
ATOM     20  C   UNL     1       1.163   2.970  18.702  0.00  0.00    +0.000 C 
ATOM     21  O   UNL     1       0.271   2.161  18.451  0.00  0.00    +0.000 OA
ATOM     22  C   UNL     1       1.666   3.248  20.118  0.00  0.00    +0.000 C 
ATOM     23  O   UNL     1       1.338   4.603  20.439  0.00  0.00    +0.000 OA
ATOM     24  C   UNL     1       2.564   5.329  20.285  0.00  0.00    +0.000 C 
ATOM     25  C   UNL     1       3.470   4.392  19.508  0.00  0.00    +0.000 C 
ATOM     26  O   UNL     1       3.091   3.126  20.070  0.00  0.00    +0.000 OA
ENDBRANCH  17  18
ENDBRANCH  16  17
ENDBRANCH   3  16
TORSDOF 6
ENDMDL
MODEL 6
REMARK VINA RESULT:      -8.5      1.437      2.358
REMARK  Name = 
REMARK  7 active torsions:
REMARK  status: ('A' for Active; 'I' for Inactive)
REMARK    1  A    between atoms: C_1  and  O_2
REMARK    2  A    between atoms: O_2  and  C_3
REMARK    3  A    between atoms: C_6  and  C_7
REMARK    4  A    between atoms: C_8  and  C_9
REMARK    5  A    between atoms: C_11  and  C_12
REMARK    6  A    between atoms: C_12  and  O_13
REMARK    7  A    between atoms: O_13  and  C_14
REMARK                            x       y       z     vdW  Elec       q    Type
REMARK                         _______ _______ _______ _____ _____    ______ ____
ROOT
ATOM      1  C   UNL     1       7.508   6.689  18.043  0.00  0.00    +0.000 A 
ATOM      2  C   UNL     1       6.306   6.731  17.298  0.00  0.00    +0.000 A 
ATOM      3  C   UNL     1       5.972   5.411  17.107  0.00  0.00    +0.000 A 
ATOM      4  O   UNL     1       6.922   4.626  17.679  0.00  0.00    +0.000 OA
ATOM      5  N   UNL     1       7.886   5.422  18.266  0.00  0.00    +0.000 NA
ENDROOT
BRANCH   1   7
ATOM      6  C   UNL     1       8.082   9.078  17.990  0.00  0.00    +0.000 C 
ATOM      7  C   UNL     1       8.201   7.849  18.517  0.00  0.00    +0.000 C 
BRANCH   6  11
ATOM      8  C   UNL     1      10.264  12.566  19.195  0.00  0.00    +0.000 A 
ATOM      9  C   UNL     1       9.493  12.563  18.033  0.00  0.00    +0.000 A 
ATOM     10  C   UNL     1       8.777  11.420  17.660  0.00  0.00    +0.000 A 
ATOM     11  C   UNL     1       8.843  10.255  18.429  0.00  0.00    +0.000 A 
ATOM     12  C   UNL     1       9.612  10.268  19.599  0.00  0.00    +0.000 A 
ATOM     13  C   UNL     1      10.327  11.412  19.975  0.00  0.00    +0.000 A 
BRANCH   8  15
ATOM     14  C   UNL     1      10.545  14.849  18.656  0.00  0.00    +0.000 C 
ATOM     15  O   UNL     1      10.932  13.731  19.449  0.00  0.00    +0.000 OA
ENDBRANCH   8  15
ENDBRANCH   6  11
ENDBRANCH   1   7
BRANCH   3  16
ATOM     16  C   UNL     1       4.836   4.719  16.465  0.00  0.00    +0.000 C 
BRANCH  16  17
ATOM     17  O   UNL     1       3.709   4.926  17.313  0.00  0.00    +0.000 OA
BRANCH  17  18
ATOM     18  C   UNL     1       3.017   3.751  17.771  0.00  0.00    +0.000 C 
ATOM     19  C   UNL     1       3.991   2.658  18.251  0.00  0.00    +0.000 C 
ATOM     20  C   UNL     1       4.002   2.508  19.762  0.00  0.00    +0.000 C 
ATOM     21  O   UNL     1       4.955   1.996  20.350  0.00  0.00    +0.000 OA
ATOM     22  C   UNL     1       2.717   2.938  20.470  0.00  0.00    +0.000 C 
ATOM     23  O   UNL     1       1.653   2.120  19.976  0.00  0.00    +0.000 OA
ATOM     24  C   UNL     1       0.948   2.948  19.042  0.00  0.00    +0.000 C 
ATOM     25  C   UNL     1       1.890   4.105  18.770  0.00  0.00    +0.000 C 
ATOM     26  O   UNL     1       2.471   4.290  20.070  0.00  0.00    +0.000 OA
ENDBRANCH  17  18
ENDBRANCH  16  17
ENDBRANCH   3  16
TORSDOF 6
ENDMDL
MODEL 7
REMARK VINA RESULT:      -8.5      1.422      2.104
REMARK  Name = 
REMARK  7 active torsions:
REMARK  status: ('A' for Active; 'I' for Inactive)
REMARK    1  A    between atoms: C_1  and  O_2
REMARK    2  A    between atoms: O_2  and  C_3
REMARK    3  A    between atoms: C_6  and  C_7
REMARK    4  A    between atoms: C_8  and  C_9
REMARK    5  A    between atoms: C_11  and  C_12
REMARK    6  A    between atoms: C_12  and  O_13
REMARK    7  A    between atoms: O_13  and  C_14
REMARK                            x       y       z     vdW  Elec       q    Type
REMARK                         _______ _______ _______ _____ _____    ______ ____
ROOT
ATOM      1  C   UNL     1       7.551   7.078  17.475  0.00  0.00    +0.000 A 
ATOM      2  C   UNL     1       6.566   6.219  18.016  0.00  0.00    +0.000 A 
ATOM      3  C   UNL     1       6.301   5.321  17.010  0.00  0.00    +0.000 A 
ATOM      4  O   UNL     1       7.059   5.632  15.927  0.00  0.00    +0.000 OA
ATOM      5  N   UNL     1       7.844   6.731  16.213  0.00  0.00    +0.000 NA
ENDROOT
BRANCH   1   7
ATOM      6  C   UNL     1       8.202   9.427  17.789  0.00  0.00    +0.000 C 
ATOM      7  C   UNL     1       8.170   8.149  18.198  0.00  0.00    +0.000 C 
BRANCH   6  11
ATOM      8  C   UNL     1      10.236  12.539  19.924  0.00  0.00    +0.000 A 
ATOM      9  C   UNL     1       9.949  11.317  20.531  0.00  0.00    +0.000 A 
ATOM     10  C   UNL     1       9.295  10.307  19.817  0.00  0.00    +0.000 A 
ATOM     11  C   UNL     1       8.895  10.514  18.494  0.00  0.00    +0.000 A 
ATOM     12  C   UNL     1       9.195  11.740  17.888  0.00  0.00    +0.000 A 
ATOM     13  C   UNL     1       9.852  12.750  18.601  0.00  0.00    +0.000 A 
BRANCH   8  15
ATOM     14  C   UNL     1      10.232  14.728  20.812  0.00  0.00    +0.000 C 
ATOM     15  O   UNL     1      10.862  13.454  20.723  0.00  0.00    +0.000 OA
ENDBRANCH   8  15
ENDBRANCH   6  11
ENDBRANCH   1   7
BRANCH   3  16
ATOM     16  C   UNL     1       5.425   4.137  16.891  0.00  0.00    +0.000 C 
BRANCH  16  17
ATOM     17  O   UNL     1       4.090   4.606  17.067  0.00  0.00    +0.000 OA
BRANCH  17  18
ATOM     18  C   UNL     1       3.182   3.733  17.761  0.00  0.00    +0.000 C 
ATOM     19  C   UNL     1       3.891   2.479  18.307  0.00  0.00    +0.000 C 
ATOM     20  C   UNL     1       4.060   2.516  19.817  0.00  0.00    +0.000 C 
ATOM     21  O   UNL     1       4.915   1.835  20.383  0.00  0.00    +0.000 OA
ATOM     22  C   UNL     1       3.036   3.367  20.568  0.00  0.00    +0.000 C 
ATOM     23  O   UNL     1       1.740   2.822  20.306  0.00  0.00    +0.000 OA
ATOM     24  C   UNL     1       1.160   3.694  19.327  0.00  0.00    +0.000 C 
ATOM     25  C   UNL     1       2.328   4.503  18.795  0.00  0.00    +0.000 C 
ATOM     26  O   UNL     1       3.102   4.676  19.992  0.00  0.00    +0.000 OA
ENDBRANCH  17  18
ENDBRANCH  16  17
ENDBRANCH   3  16
TORSDOF 6
ENDMDL
MODEL 8
REMARK VINA RESULT:      -8.4      1.377      2.200
REMARK  Name = 
REMARK  7 active torsions:
REMARK  status: ('A' for Active; 'I' for Inactive)
REMARK    1  A    between atoms: C_1  and  O_2
REMARK    2  A    between atoms: O_2  and  C_3
REMARK    3  A    between atoms: C_6  and  C_7
REMARK    4  A    between atoms: C_8  and  C_9
REMARK    5  A    between atoms: C_11  and  C_12
REMARK    6  A    between atoms: C_12  and  O_13
REMARK    7  A    between atoms: O_13  and  C_14
REMARK                            x       y       z     vdW  Elec       q    Type
REMARK                         _______ _______ _______ _____ _____    ______ ____
ROOT
ATOM      1  C   UNL     1       7.251   6.967  17.448  0.00  0.00    +0.000 A 
ATOM      2  C   UNL     1       6.009   6.433  17.868  0.00  0.00    +0.000 A 
ATOM      3  C   UNL     1       5.718   5.463  16.939  0.00  0.00    +0.000 A 
ATOM      4  O   UNL     1       6.707   5.429  16.008  0.00  0.00    +0.000 OA
ATOM      5  N   UNL     1       7.669   6.369  16.323  0.00  0.00    +0.000 NA
ENDROOT
BRANCH   1   7
ATOM      6  C   UNL     1       8.142   9.241  17.718  0.00  0.00    +0.000 C 
ATOM      7  C   UNL     1       7.970   7.984  18.155  0.00  0.00    +0.000 C 
BRANCH   6  11
ATOM      8  C   UNL     1      10.455  12.291  19.649  0.00  0.00    +0.000 A 
ATOM      9  C   UNL     1      10.026  12.437  18.330  0.00  0.00    +0.000 A 
ATOM     10  C   UNL     1       9.263  11.437  17.718  0.00  0.00    +0.000 A 
ATOM     11  C   UNL     1       8.937  10.266  18.407  0.00  0.00    +0.000 A 
ATOM     12  C   UNL     1       9.363  10.130  19.734  0.00  0.00    +0.000 A 
ATOM     13  C   UNL     1      10.126  11.131  20.348  0.00  0.00    +0.000 A 
BRANCH   8  15
ATOM     14  C   UNL     1      10.521  14.246  20.973  0.00  0.00    +0.000 C 
ATOM     15  O   UNL     1      11.208  13.323  20.135  0.00  0.00    +0.000 OA
ENDBRANCH   8  15
ENDBRANCH   6  11
ENDBRANCH   1   7
BRANCH   3  16
ATOM     16  C   UNL     1       4.620   4.488  16.778  0.00  0.00    +0.000 C 
BRANCH  16  17
ATOM     17  O   UNL     1       3.455   5.103  17.324  0.00  0.00    +0.000 OA
BRANCH  17  18
ATOM     18  C   UNL     1       2.457   4.226  17.875  0.00  0.00    +0.000 C 
ATOM     19  C   UNL     1       2.724   2.751  17.519  0.00  0.00    +0.000 C 
ATOM     20  C   UNL     1       3.224   1.946  18.707  0.00  0.00    +0.000 C 
ATOM     21  O   UNL     1       3.849   0.897  18.553  0.00  0.00    +0.000 OA
ATOM     22  C   UNL     1       2.806   2.477  20.078  0.00  0.00    +0.000 C 
ATOM     23  O   UNL     1       1.376   2.461  20.133  0.00  0.00    +0.000 OA
ATOM     24  C   UNL     1       0.980   3.822  19.923  0.00  0.00    +0.000 C 
ATOM     25  C   UNL     1       2.221   4.503  19.379  0.00  0.00    +0.000 C 
ATOM     26  O   UNL     1       3.245   3.838  20.133  0.00  0.00    +0.000 OA
ENDBRANCH  17  18
ENDBRANCH  16  17
ENDBRANCH   3  16
TORSDOF 6
ENDMDL
MODEL 9
REMARK VINA RESULT:      -8.4      1.311      1.722
REMARK  Name = 
REMARK  7 active torsions:
REMARK  status: ('A' for Active; 'I' for Inactive)
REMARK    1  A    between atoms: C_1  and  O_2
REMARK    2  A    between atoms: O_2  and  C_3
REMARK    3  A    between atoms: C_6  and  C_7
REMARK    4  A    between atoms: C_8  and  C_9
REMARK    5  A    between atoms: C_11  and  C_12
REMARK    6  A    between atoms: C_12  and  O_13
REMARK    7  A    between atoms: O_13  and  C_14
REMARK                            x       y       z     vdW  Elec       q    Type
REMARK                         _______ _______ _______ _____ _____    ______ ____
ROOT
ATOM      1  C   UNL     1       7.838   6.496  18.271  0.00  0.00    +0.000 A 
ATOM      2  C   UNL     1       7.078   6.293  17.095  0.00  0.00    +0.000 A 
ATOM      3  C   UNL     1       6.787   4.950  17.100  0.00  0.00    +0.000 A 
ATOM      4  O   UNL     1       7.352   4.377  18.194  0.00  0.00    +0.000 OA
ATOM      5  N   UNL     1       8.011   5.341  18.931  0.00  0.00    +0.000 NA
ENDROOT
BRANCH   1   7
ATOM      6  C   UNL     1       8.243   8.903  17.987  0.00  0.00    +0.000 C 
ATOM      7  C   UNL     1       8.321   7.772  18.706  0.00  0.00    +0.000 C 
BRANCH   6  11
ATOM      8  C   UNL     1       9.817  12.727  19.118  0.00  0.00    +0.000 A 
ATOM      9  C   UNL     1       9.000  12.586  17.997  0.00  0.00    +0.000 A 
ATOM     10  C   UNL     1       8.485  11.333  17.648  0.00  0.00    +0.000 A 
ATOM     11  C   UNL     1       8.800  10.198  18.400  0.00  0.00    +0.000 A 
ATOM     12  C   UNL     1       9.613  10.349  19.530  0.00  0.00    +0.000 A 
ATOM     13  C   UNL     1      10.128  11.603  19.882  0.00  0.00    +0.000 A 
BRANCH   8  15
ATOM     14  C   UNL     1      11.586  14.273  18.871  0.00  0.00    +0.000 C 
ATOM     15  O   UNL     1      10.275  13.994  19.351  0.00  0.00    +0.000 OA
ENDBRANCH   8  15
ENDBRANCH   6  11
ENDBRANCH   1   7
BRANCH   3  16
ATOM     16  C   UNL     1       6.002   4.063  16.216  0.00  0.00    +0.000 C 
BRANCH  16  17
ATOM     17  O   UNL     1       4.633   4.404  16.420  0.00  0.00    +0.000 OA
BRANCH  17  18
ATOM     18  C   UNL     1       4.109   4.219  17.747  0.00  0.00    +0.000 C 
ATOM     19  C   UNL     1       2.648   4.691  17.863  0.00  0.00    +0.000 C 
ATOM     20  C   UNL     1       1.667   3.535  17.964  0.00  0.00    +0.000 C 
ATOM     21  O   UNL     1       0.479   3.675  17.674  0.00  0.00    +0.000 OA
ATOM     22  C   UNL     1       2.240   2.241  18.542  0.00  0.00    +0.000 C 
ATOM     23  O   UNL     1       2.694   2.522  19.870  0.00  0.00    +0.000 OA
ATOM     24  C   UNL     1       4.119   2.639  19.759  0.00  0.00    +0.000 C 
ATOM     25  C   UNL     1       4.377   2.788  18.272  0.00  0.00    +0.000 C 
ATOM     26  O   UNL     1       3.376   1.909  17.736  0.00  0.00    +0.000 OA
ENDBRANCH  17  18
ENDBRANCH  16  17
ENDBRANCH   3  16
TORSDOF 6
ENDMDL
