MODEL 1
REMARK VINA RESULT:      -5.0      0.000      0.000
REMARK  Name = 
REMARK  2 active torsions:
REMARK  status: ('A' for Active; 'I' for Inactive)
REMARK    1  A    between atoms: C_1  and  N_2
REMARK    2  A    between atoms: N_2  and  C_3
REMARK                            x       y       z     vdW  Elec       q    Type
REMARK                         _______ _______ _______ _____ _____    ______ ____
ROOT
ATOM      1  C   UNL     1       6.918   5.759  16.419  0.00  0.00    +0.000 A 
ATOM      2  C   UNL     1       7.303   6.897  17.125  0.00  0.00    +0.000 A 
ATOM      3  C   UNL     1       7.796   6.788  18.426  0.00  0.00    +0.000 A 
ATOM      4  C   UNL     1       7.861   5.538  19.019  0.00  0.00    +0.000 A 
ATOM      5  N   UNL     1       8.377   5.393  20.304  0.00  0.00    +0.000 N 
ATOM      6  N   UNL     1       7.464   4.420  18.397  0.00  0.00    +0.000 NA
ATOM      7  C   UNL     1       6.989   4.559  17.132  0.00  0.00    +0.000 A 
ATOM      8  H   UNL     1       7.903   5.998  20.964  0.00  0.00    +0.000 HD
ATOM      9  H   UNL     1       8.276   4.414  20.549  0.00  0.00    +0.000 HD
ENDROOT
BRANCH   1  11
ATOM     10  C   UNL     1       6.079   4.530  14.478  0.00  0.00    +0.000 C 
ATOM     11  N   UNL     1       6.360   5.797  15.135  0.00  0.00    +0.000 N 
ATOM     12  H   UNL     1       5.570   6.437  15.085  0.00  0.00    +0.000 HD
ENDBRANCH   1  11
TORSDOF 1
ENDMDL
MODEL 2
REMARK VINA RESULT:      -4.8      2.067      3.991
REMARK  Name = 
REMARK  2 active torsions:
REMARK  status: ('A' for Active; 'I' for Inactive)
REMARK    1  A    between atoms: C_1  and  N_2
REMARK    2  A    between atoms: N_2  and  C_3
REMARK                            x       y       z     vdW  Elec       q    Type
REMARK                         _______ _______ _______ _____ _____    ______ ____
ROOT
ATOM      1  C   UNL     1       5.905   4.169  17.808  0.00  0.00    +0.000 A 
ATOM      2  C   UNL     1       5.043   4.312  16.723  0.00  0.00    +0.000 A 
ATOM      3  C   UNL     1       5.537   4.680  15.472  0.00  0.00    +0.000 A 
ATOM      4  C   UNL     1       6.891   4.938  15.331  0.00  0.00    +0.000 A 
ATOM      5  N   UNL     1       7.419   5.276  14.088  0.00  0.00    +0.000 N 
ATOM      6  N   UNL     1       7.754   4.854  16.353  0.00  0.00    +0.000 NA
ATOM      7  C   UNL     1       7.241   4.494  17.558  0.00  0.00    +0.000 A 
ATOM      8  H   UNL     1       6.934   6.068  13.682  0.00  0.00    +0.000 HD
ATOM      9  H   UNL     1       8.404   5.471  14.234  0.00  0.00    +0.000 HD
ENDROOT
BRANCH   1  11
ATOM     10  C   UNL     1       4.272   3.053  19.245  0.00  0.00    +0.000 C 
ATOM     11  N   UNL     1       5.473   3.861  19.104  0.00  0.00    +0.000 N 
ATOM     12  H   UNL     1       6.236   3.516  19.684  0.00  0.00    +0.000 HD
ENDBRANCH   1  11
TORSDOF 1
ENDMDL
MODEL 3
REMARK VINA RESULT:      -4.6      2.009      4.153
REMARK  Name = 
REMARK  2 active torsions:
REMARK  status: ('A' for Active; 'I' for Inactive)
REMARK    1  A    between atoms: C_1  and  N_2
REMARK    2  A    between atoms: N_2  and  C_3
REMARK                            x       y       z     vdW  Elec       q    Type
REMARK                         _______ _______ _______ _____ _____    ______ ____
ROOT
ATOM      1  C   UNL     1       5.994   4.282  17.003  0.00  0.00    +0.000 A 
ATOM      2  C   UNL     1       5.647   3.688  15.791  0.00  0.00    +0.000 A 
ATOM      3  C   UNL     1       6.267   4.088  14.606  0.00  0.00    +0.000 A 
ATOM      4  C   UNL     1       7.203   5.107  14.646  0.00  0.00    +0.000 A 
ATOM      5  N   UNL     1       7.861   5.506  13.485  0.00  0.00    +0.000 N 
ATOM      6  N   UNL     1       7.540   5.737  15.779  0.00  0.00    +0.000 NA
ATOM      7  C   UNL     1       6.920   5.326  16.915  0.00  0.00    +0.000 A 
ATOM      8  H   UNL     1       7.206   5.749  12.752  0.00  0.00    +0.000 HD
ATOM      9  H   UNL     1       8.451   6.292  13.741  0.00  0.00    +0.000 HD
ENDROOT
BRANCH   1  11
ATOM     10  C   UNL     1       5.226   5.042  19.196  0.00  0.00    +0.000 C 
ATOM     11  N   UNL     1       5.374   3.974  18.220  0.00  0.00    +0.000 N 
ATOM     12  H   UNL     1       4.507   3.459  18.082  0.00  0.00    +0.000 HD
ENDBRANCH   1  11
TORSDOF 1
ENDMDL
MODEL 4
REMARK VINA RESULT:      -4.6      1.877      3.104
REMARK  Name = 
REMARK  2 active torsions:
REMARK  status: ('A' for Active; 'I' for Inactive)
REMARK    1  A    between atoms: C_1  and  N_2
REMARK    2  A    between atoms: N_2  and  C_3
REMARK                            x       y       z     vdW  Elec       q    Type
REMARK                         _______ _______ _______ _____ _____    ______ ____
ROOT
ATOM      1  C   UNL     1       7.027   6.801  17.574  0.00  0.00    +0.000 A 
ATOM      2  C   UNL     1       5.856   6.292  17.017  0.00  0.00    +0.000 A 
ATOM      3  C   UNL     1       5.263   5.144  17.545  0.00  0.00    +0.000 A 
ATOM      4  C   UNL     1       5.875   4.498  18.606  0.00  0.00    +0.000 A 
ATOM      5  N   UNL     1       5.291   3.370  19.176  0.00  0.00    +0.000 N 
ATOM      6  N   UNL     1       7.023   4.925  19.150  0.00  0.00    +0.000 NA
ATOM      7  C   UNL     1       7.575   6.044  18.613  0.00  0.00    +0.000 A 
ATOM      8  H   UNL     1       5.102   2.659  18.479  0.00  0.00    +0.000 HD
ATOM      9  H   UNL     1       5.933   3.039  19.889  0.00  0.00    +0.000 HD
ENDROOT
BRANCH   1  11
ATOM     10  C   UNL     1       8.205   8.901  18.005  0.00  0.00    +0.000 C 
ATOM     11  N   UNL     1       7.708   7.912  17.060  0.00  0.00    +0.000 N 
ATOM     12  H   UNL     1       8.419   7.639  16.384  0.00  0.00    +0.000 HD
ENDBRANCH   1  11
TORSDOF 1
ENDMDL
MODEL 5
REMARK VINA RESULT:      -4.5      2.118      3.793
REMARK  Name = 
REMARK  2 active torsions:
REMARK  status: ('A' for Active; 'I' for Inactive)
REMARK    1  A    between atoms: C_1  and  N_2
REMARK    2  A    between atoms: N_2  and  C_3
REMARK                            x       y       z     vdW  Elec       q    Type
REMARK                         _______ _______ _______ _____ _____    ______ ____
ROOT
ATOM      1  C   UNL     1       5.627   5.065  18.066  0.00  0.00    +0.000 A 
ATOM      2  C   UNL     1       4.959   5.615  16.974  0.00  0.00    +0.000 A 
ATOM      3  C   UNL     1       5.583   5.685  15.727  0.00  0.00    +0.000 A 
ATOM      4  C   UNL     1       6.886   5.234  15.599  0.00  0.00    +0.000 A 
ATOM      5  N   UNL     1       7.523   5.260  14.361  0.00  0.00    +0.000 N 
ATOM      6  N   UNL     1       7.584   4.735  16.628  0.00  0.00    +0.000 NA
ATOM      7  C   UNL     1       6.950   4.682  17.828  0.00  0.00    +0.000 A 
ATOM      8  H   UNL     1       7.500   6.187  13.953  0.00  0.00    +0.000 HD
ATOM      9  H   UNL     1       8.473   4.940  14.516  0.00  0.00    +0.000 HD
ENDROOT
BRANCH   1  11
ATOM     10  C   UNL     1       3.644   5.127  19.495  0.00  0.00    +0.000 C 
ATOM     11  N   UNL     1       5.088   5.017  19.358  0.00  0.00    +0.000 N 
ATOM     12  H   UNL     1       5.465   4.238  19.895  0.00  0.00    +0.000 HD
ENDBRANCH   1  11
TORSDOF 1
ENDMDL
MODEL 6
REMARK VINA RESULT:      -4.5      4.129      5.207
REMARK  Name = 
REMARK  2 active torsions:
REMARK  status: ('A' for Active; 'I' for Inactive)
REMARK    1  A    between atoms: C_1  and  N_2
REMARK    2  A    between atoms: N_2  and  C_3
REMARK                            x       y       z     vdW  Elec       q    Type
REMARK                         _______ _______ _______ _____ _____    ______ ____
ROOT
ATOM      1  C   UNL     1       4.861   3.663  18.501  0.00  0.00    +0.000 A 
ATOM      2  C   UNL     1       4.028   3.767  17.388  0.00  0.00    +0.000 A 
ATOM      3  C   UNL     1       2.755   3.195  17.403  0.00  0.00    +0.000 A 
ATOM      4  C   UNL     1       2.346   2.491  18.523  0.00  0.00    +0.000 A 
ATOM      5  N   UNL     1       1.070   1.937  18.581  0.00  0.00    +0.000 N 
ATOM      6  N   UNL     1       3.125   2.328  19.601  0.00  0.00    +0.000 NA
ATOM      7  C   UNL     1       4.358   2.895  19.555  0.00  0.00    +0.000 A 
ATOM      8  H   UNL     1       0.891   1.336  17.785  0.00  0.00    +0.000 HD
ATOM      9  H   UNL     1       1.012   1.429  19.458  0.00  0.00    +0.000 HD
ENDROOT
BRANCH   1  11
ATOM     10  C   UNL     1       6.758   4.612  17.284  0.00  0.00    +0.000 C 
ATOM     11  N   UNL     1       6.170   4.159  18.535  0.00  0.00    +0.000 N 
ATOM     12  H   UNL     1       6.297   4.836  19.285  0.00  0.00    +0.000 HD
ENDBRANCH   1  11
TORSDOF 1
ENDMDL
MODEL 7
REMARK VINA RESULT:      -4.5      4.840      5.488
REMARK  Name = 
REMARK  2 active torsions:
REMARK  status: ('A' for Active; 'I' for Inactive)
REMARK    1  A    between atoms: C_1  and  N_2
REMARK    2  A    between atoms: N_2  and  C_3
REMARK                            x       y       z     vdW  Elec       q    Type
REMARK                         _______ _______ _______ _____ _____    ______ ____
ROOT
ATOM      1  C   UNL     1       3.857   3.273  17.875  0.00  0.00    +0.000 A 
ATOM      2  C   UNL     1       2.601   3.619  17.381  0.00  0.00    +0.000 A 
ATOM      3  C   UNL     1       1.483   3.594  18.216  0.00  0.00    +0.000 A 
ATOM      4  C   UNL     1       1.632   3.184  19.530  0.00  0.00    +0.000 A 
ATOM      5  N   UNL     1       0.541   3.179  20.395  0.00  0.00    +0.000 N 
ATOM      6  N   UNL     1       2.811   2.802  20.040  0.00  0.00    +0.000 NA
ATOM      7  C   UNL     1       3.879   2.837  19.203  0.00  0.00    +0.000 A 
ATOM      8  H   UNL     1      -0.231   2.643  20.015  0.00  0.00    +0.000 HD
ATOM      9  H   UNL     1       0.870   2.794  21.275  0.00  0.00    +0.000 HD
ENDROOT
BRANCH   1  11
ATOM     10  C   UNL     1       5.154   4.204  16.023  0.00  0.00    +0.000 C 
ATOM     11  N   UNL     1       5.011   3.218  17.083  0.00  0.00    +0.000 N 
ATOM     12  H   UNL     1       5.854   3.140  17.650  0.00  0.00    +0.000 HD
ENDBRANCH   1  11
TORSDOF 1
ENDMDL
MODEL 8
REMARK VINA RESULT:      -4.5      1.991      2.826
REMARK  Name = 
REMARK  2 active torsions:
REMARK  status: ('A' for Active; 'I' for Inactive)
REMARK    1  A    between atoms: C_1  and  N_2
REMARK    2  A    between atoms: N_2  and  C_3
REMARK                            x       y       z     vdW  Elec       q    Type
REMARK                         _______ _______ _______ _____ _____    ______ ____
ROOT
ATOM      1  C   UNL     1       6.546   4.802  16.403  0.00  0.00    +0.000 A 
ATOM      2  C   UNL     1       5.277   4.281  16.160  0.00  0.00    +0.000 A 
ATOM      3  C   UNL     1       4.470   3.864  17.219  0.00  0.00    +0.000 A 
ATOM      4  C   UNL     1       4.963   3.939  18.511  0.00  0.00    +0.000 A 
ATOM      5  N   UNL     1       4.170   3.560  19.591  0.00  0.00    +0.000 N 
ATOM      6  N   UNL     1       6.192   4.393  18.792  0.00  0.00    +0.000 NA
ATOM      7  C   UNL     1       6.952   4.791  17.740  0.00  0.00    +0.000 A 
ATOM      8  H   UNL     1       3.813   2.619  19.477  0.00  0.00    +0.000 HD
ATOM      9  H   UNL     1       4.749   3.646  20.421  0.00  0.00    +0.000 HD
ENDROOT
BRANCH   1  11
ATOM     10  C   UNL     1       7.070   4.867  14.015  0.00  0.00    +0.000 C 
ATOM     11  N   UNL     1       7.432   5.185  15.388  0.00  0.00    +0.000 N 
ATOM     12  H   UNL     1       7.728   6.153  15.491  0.00  0.00    +0.000 HD
ENDBRANCH   1  11
TORSDOF 1
ENDMDL
MODEL 9
REMARK VINA RESULT:      -4.4      2.076      2.376
REMARK  Name = 
REMARK  2 active torsions:
REMARK  status: ('A' for Active; 'I' for Inactive)
REMARK    1  A    between atoms: C_1  and  N_2
REMARK    2  A    between atoms: N_2  and  C_3
REMARK                            x       y       z     vdW  Elec       q    Type
REMARK                         _______ _______ _______ _____ _____    ______ ____
ROOT
ATOM      1  C   UNL     1       6.568   5.450  16.577  0.00  0.00    +0.000 A 
ATOM      2  C   UNL     1       5.367   6.155  16.521  0.00  0.00    +0.000 A 
ATOM      3  C   UNL     1       4.501   6.161  17.615  0.00  0.00    +0.000 A 
ATOM      4  C   UNL     1       4.833   5.427  18.741  0.00  0.00    +0.000 A 
ATOM      5  N   UNL     1       4.004   5.440  19.861  0.00  0.00    +0.000 N 
ATOM      6  N   UNL     1       5.955   4.700  18.828  0.00  0.00    +0.000 NA
ATOM      7  C   UNL     1       6.777   4.714  17.747  0.00  0.00    +0.000 A 
ATOM      8  H   UNL     1       3.054   5.181  19.621  0.00  0.00    +0.000 HD
ATOM      9  H   UNL     1       4.413   4.797  20.532  0.00  0.00    +0.000 HD
ENDROOT
BRANCH   1  11
ATOM     10  C   UNL     1       6.949   4.807  14.248  0.00  0.00    +0.000 C 
ATOM     11  N   UNL     1       7.456   5.350  15.499  0.00  0.00    +0.000 N 
ATOM     12  H   UNL     1       7.977   6.214  15.358  0.00  0.00    +0.000 HD
ENDBRANCH   1  11
TORSDOF 1
ENDMDL
