MODEL 1
REMARK VINA RESULT:      -9.1      0.000      0.000
REMARK  Name = 
REMARK  7 active torsions:
REMARK  status: ('A' for Active; 'I' for Inactive)
REMARK    1  A    between atoms: C_1  and  C_2
REMARK    2  A    between atoms: C_7  and  N_8
REMARK    3  A    between atoms: C_9  and  C_10
REMARK    4  A    between atoms: C_10  and  N_11
REMARK    5  A    between atoms: C_13  and  C_14
REMARK    6  A    between atoms: C_14  and  O_15
REMARK    7  A    between atoms: O_15  and  C_16
REMARK                            x       y       z     vdW  Elec       q    Type
REMARK                         _______ _______ _______ _____ _____    ______ ____
ROOT
ATOM      1  N   UNL     1       3.685   4.409  18.468  0.00  0.00    +0.000 N 
ATOM      2  C   UNL     1       3.738   5.796  18.324  0.00  0.00    +0.000 A 
ATOM      3  N   UNL     1       4.315   6.357  17.310  0.00  0.00    +0.000 NA
ATOM      4  C   UNL     1       5.020   5.594  16.388  0.00  0.00    +0.000 A 
ATOM      5  C   UNL     1       5.745   6.246  15.388  0.00  0.00    +0.000 A 
ATOM      6  C   UNL     1       6.506   5.515  14.473  0.00  0.00    +0.000 A 
ATOM      7  C   UNL     1       6.543   4.123  14.551  0.00  0.00    +0.000 A 
ATOM      8  C   UNL     1       5.813   3.464  15.539  0.00  0.00    +0.000 A 
ATOM      9  C   UNL     1       5.057   4.209  16.452  0.00  0.00    +0.000 A 
ATOM     10  C   UNL     1       4.261   3.562  17.503  0.00  0.00    +0.000 A 
ATOM     11  O   UNL     1       4.114   2.342  17.443  0.00  0.00    +0.000 OA
ENDROOT
BRANCH   1  18
ATOM     12  C   UNL     1       0.834   3.869  17.856  0.00  0.00    +0.000 C 
ATOM     13  C   UNL     1       1.467   3.578  19.190  0.00  0.00    +0.000 A 
ATOM     14  C   UNL     1       0.664   3.046  20.213  0.00  0.00    +0.000 A 
ATOM     15  C   UNL     1       1.210   2.705  21.450  0.00  0.00    +0.000 A 
ATOM     16  C   UNL     1       2.569   2.885  21.684  0.00  0.00    +0.000 A 
ATOM     17  C   UNL     1       3.384   3.417  20.683  0.00  0.00    +0.000 A 
ATOM     18  C   UNL     1       2.844   3.770  19.433  0.00  0.00    +0.000 A 
ENDBRANCH   1  18
BRANCH   2  19
ATOM     19  C   UNL     1       3.080   6.689  19.380  0.00  0.00    +0.000 C 
BRANCH  19  20
ATOM     20  N   UNL     1       2.402   7.890  18.889  0.00  0.00    +0.000 N 
ATOM     21  C   UNL     1       1.728   8.812  19.653  0.00  0.00    +0.000 A 
ATOM     22  C   UNL     1       1.007   9.555  18.739  0.00  0.00    +0.000 A 
ATOM     23  N   UNL     1       1.293   9.106  17.481  0.00  0.00    +0.000 NA
ATOM     24  N   UNL     1       2.109   8.070  17.588  0.00  0.00    +0.000 NA
BRANCH  22  25
ATOM     25  C   UNL     1      -0.043  10.589  18.943  0.00  0.00    +0.000 C 
BRANCH  25  26
ATOM     26  O   UNL     1      -1.360  10.034  18.988  0.00  0.00    +0.000 OA
BRANCH  26  27
ATOM     27  C   UNL     1      -2.165  10.303  17.910  0.00  0.00    +0.000 A 
ATOM     28  C   UNL     1      -2.025   9.766  16.625  0.00  0.00    +0.000 A 
ATOM     29  C   UNL     1      -2.932  10.098  15.612  0.00  0.00    +0.000 A 
ATOM     30  C   UNL     1      -3.978  10.977  15.880  0.00  0.00    +0.000 A 
ATOM     31  C   UNL     1      -4.104  11.519  17.150  0.00  0.00    +0.000 A 
ATOM     32  F   UNL     1      -5.109  12.369  17.406  0.00  0.00    +0.000 F 
ATOM     33  C   UNL     1      -3.209  11.193  18.165  0.00  0.00    +0.000 A 
ENDBRANCH  26  27
ENDBRANCH  25  26
ENDBRANCH  22  25
ENDBRANCH  19  20
ENDBRANCH   2  19
TORSDOF 6
ENDMDL
MODEL 2
REMARK VINA RESULT:      -8.9      0.759      1.135
REMARK  Name = 
REMARK  7 active torsions:
REMARK  status: ('A' for Active; 'I' for Inactive)
REMARK    1  A    between atoms: C_1  and  C_2
REMARK    2  A    between atoms: C_7  and  N_8
REMARK    3  A    between atoms: C_9  and  C_10
REMARK    4  A    between atoms: C_10  and  N_11
REMARK    5  A    between atoms: C_13  and  C_14
REMARK    6  A    between atoms: C_14  and  O_15
REMARK    7  A    between atoms: O_15  and  C_16
REMARK                            x       y       z     vdW  Elec       q    Type
REMARK                         _______ _______ _______ _____ _____    ______ ____
ROOT
ATOM      1  N   UNL     1       3.672   4.360  18.525  0.00  0.00    +0.000 N 
ATOM      2  C   UNL     1       3.761   5.750  18.433  0.00  0.00    +0.000 A 
ATOM      3  N   UNL     1       4.337   6.335  17.432  0.00  0.00    +0.000 NA
ATOM      4  C   UNL     1       5.007   5.589  16.470  0.00  0.00    +0.000 A 
ATOM      5  C   UNL     1       5.734   6.260  15.485  0.00  0.00    +0.000 A 
ATOM      6  C   UNL     1       6.461   5.546  14.530  0.00  0.00    +0.000 A 
ATOM      7  C   UNL     1       6.462   4.151  14.554  0.00  0.00    +0.000 A 
ATOM      8  C   UNL     1       5.729   3.474  15.527  0.00  0.00    +0.000 A 
ATOM      9  C   UNL     1       5.008   4.203  16.480  0.00  0.00    +0.000 A 
ATOM     10  C   UNL     1       4.210   3.537  17.518  0.00  0.00    +0.000 A 
ATOM     11  O   UNL     1       4.029   2.324  17.414  0.00  0.00    +0.000 OA
ENDROOT
BRANCH   1  18
ATOM     12  C   UNL     1       0.818   3.847  17.904  0.00  0.00    +0.000 C 
ATOM     13  C   UNL     1       1.450   3.527  19.232  0.00  0.00    +0.000 A 
ATOM     14  C   UNL     1       0.645   2.978  20.245  0.00  0.00    +0.000 A 
ATOM     15  C   UNL     1       1.191   2.610  21.475  0.00  0.00    +0.000 A 
ATOM     16  C   UNL     1       2.551   2.779  21.711  0.00  0.00    +0.000 A 
ATOM     17  C   UNL     1       3.367   3.327  20.720  0.00  0.00    +0.000 A 
ATOM     18  C   UNL     1       2.829   3.706  19.478  0.00  0.00    +0.000 A 
ENDBRANCH   1  18
BRANCH   2  19
ATOM     19  C   UNL     1       3.143   6.619  19.534  0.00  0.00    +0.000 C 
BRANCH  19  20
ATOM     20  N   UNL     1       2.389   7.794  19.092  0.00  0.00    +0.000 N 
ATOM     21  C   UNL     1       1.567   8.570  19.872  0.00  0.00    +0.000 A 
ATOM     22  C   UNL     1       0.850   9.328  18.966  0.00  0.00    +0.000 A 
ATOM     23  N   UNL     1       1.280   9.032  17.704  0.00  0.00    +0.000 NA
ATOM     24  N   UNL     1       2.185   8.071  17.792  0.00  0.00    +0.000 NA
BRANCH  22  25
ATOM     25  C   UNL     1      -0.312  10.235  19.166  0.00  0.00    +0.000 C 
BRANCH  25  26
ATOM     26  O   UNL     1      -0.654  10.960  17.982  0.00  0.00    +0.000 OA
BRANCH  26  27
ATOM     27  C   UNL     1      -1.993  11.077  17.712  0.00  0.00    +0.000 A 
ATOM     28  C   UNL     1      -2.962  11.612  18.569  0.00  0.00    +0.000 A 
ATOM     29  C   UNL     1      -4.298  11.703  18.165  0.00  0.00    +0.000 A 
ATOM     30  C   UNL     1      -4.673  11.249  16.903  0.00  0.00    +0.000 A 
ATOM     31  C   UNL     1      -3.713  10.704  16.063  0.00  0.00    +0.000 A 
ATOM     32  F   UNL     1      -4.075  10.263  14.849  0.00  0.00    +0.000 F 
ATOM     33  C   UNL     1      -2.381  10.612  16.454  0.00  0.00    +0.000 A 
ENDBRANCH  26  27
ENDBRANCH  25  26
ENDBRANCH  22  25
ENDBRANCH  19  20
ENDBRANCH   2  19
TORSDOF 6
ENDMDL
MODEL 3
REMARK VINA RESULT:      -8.8      5.558      7.776
REMARK  Name = 
REMARK  7 active torsions:
REMARK  status: ('A' for Active; 'I' for Inactive)
REMARK    1  A    between atoms: C_1  and  C_2
REMARK    2  A    between atoms: C_7  and  N_8
REMARK    3  A    between atoms: C_9  and  C_10
REMARK    4  A    between atoms: C_10  and  N_11
REMARK    5  A    between atoms: C_13  and  C_14
REMARK    6  A    between atoms: C_14  and  O_15
REMARK    7  A    between atoms: O_15  and  C_16
REMARK                            x       y       z     vdW  Elec       q    Type
REMARK                         _______ _______ _______ _____ _____    ______ ____
ROOT
ATOM      1  N   UNL     1       5.527   4.738  16.864  0.00  0.00    +0.000 N 
ATOM      2  C   UNL     1       6.736   5.434  16.852  0.00  0.00    +0.000 A 
ATOM      3  N   UNL     1       7.413   5.612  15.763  0.00  0.00    +0.000 NA
ATOM      4  C   UNL     1       7.018   5.001  14.579  0.00  0.00    +0.000 A 
ATOM      5  C   UNL     1       7.847   5.101  13.460  0.00  0.00    +0.000 A 
ATOM      6  C   UNL     1       7.509   4.458  12.267  0.00  0.00    +0.000 A 
ATOM      7  C   UNL     1       6.334   3.712  12.186  0.00  0.00    +0.000 A 
ATOM      8  C   UNL     1       5.495   3.617  13.295  0.00  0.00    +0.000 A 
ATOM      9  C   UNL     1       5.848   4.263  14.485  0.00  0.00    +0.000 A 
ATOM     10  C   UNL     1       4.992   4.203  15.678  0.00  0.00    +0.000 A 
ATOM     11  O   UNL     1       3.860   3.736  15.550  0.00  0.00    +0.000 OA
ENDROOT
BRANCH   1  18
ATOM     12  C   UNL     1       3.811   7.094  17.413  0.00  0.00    +0.000 C 
ATOM     13  C   UNL     1       3.884   5.891  18.315  0.00  0.00    +0.000 A 
ATOM     14  C   UNL     1       3.121   5.888  19.495  0.00  0.00    +0.000 A 
ATOM     15  C   UNL     1       3.108   4.777  20.338  0.00  0.00    +0.000 A 
ATOM     16  C   UNL     1       3.852   3.649  20.013  0.00  0.00    +0.000 A 
ATOM     17  C   UNL     1       4.621   3.633  18.849  0.00  0.00    +0.000 A 
ATOM     18  C   UNL     1       4.647   4.748  17.993  0.00  0.00    +0.000 A 
ENDBRANCH   1  18
BRANCH   2  19
ATOM     19  C   UNL     1       7.279   6.025  18.157  0.00  0.00    +0.000 C 
BRANCH  19  20
ATOM     20  N   UNL     1       7.833   7.379  18.079  0.00  0.00    +0.000 N 
ATOM     21  C   UNL     1       8.708   7.949  18.972  0.00  0.00    +0.000 A 
ATOM     22  C   UNL     1       8.681   9.296  18.666  0.00  0.00    +0.000 A 
ATOM     23  N   UNL     1       7.852   9.489  17.598  0.00  0.00    +0.000 NA
ATOM     24  N   UNL     1       7.314   8.324  17.277  0.00  0.00    +0.000 NA
BRANCH  22  25
ATOM     25  C   UNL     1       9.275  10.462  19.371  0.00  0.00    +0.000 C 
BRANCH  25  26
ATOM     26  O   UNL     1      10.566  10.814  18.865  0.00  0.00    +0.000 OA
BRANCH  26  27
ATOM     27  C   UNL     1      10.685  12.075  18.340  0.00  0.00    +0.000 A 
ATOM     28  C   UNL     1      11.790  12.575  17.642  0.00  0.00    +0.000 A 
ATOM     29  C   UNL     1      11.779  13.876  17.128  0.00  0.00    +0.000 A 
ATOM     30  C   UNL     1      10.663  14.687  17.319  0.00  0.00    +0.000 A 
ATOM     31  C   UNL     1       9.576  14.194  18.025  0.00  0.00    +0.000 A 
ATOM     32  F   UNL     1       8.503  14.976  18.211  0.00  0.00    +0.000 F 
ATOM     33  C   UNL     1       9.576  12.900  18.537  0.00  0.00    +0.000 A 
ENDBRANCH  26  27
ENDBRANCH  25  26
ENDBRANCH  22  25
ENDBRANCH  19  20
ENDBRANCH   2  19
TORSDOF 6
ENDMDL
MODEL 4
REMARK VINA RESULT:      -8.7      0.880      1.142
REMARK  Name = 
REMARK  7 active torsions:
REMARK  status: ('A' for Active; 'I' for Inactive)
REMARK    1  A    between atoms: C_1  and  C_2
REMARK    2  A    between atoms: C_7  and  N_8
REMARK    3  A    between atoms: C_9  and  C_10
REMARK    4  A    between atoms: C_10  and  N_11
REMARK    5  A    between atoms: C_13  and  C_14
REMARK    6  A    between atoms: C_14  and  O_15
REMARK    7  A    between atoms: O_15  and  C_16
REMARK                            x       y       z     vdW  Elec       q    Type
REMARK                         _______ _______ _______ _____ _____    ______ ____
ROOT
ATOM      1  N   UNL     1       3.642   4.326  18.515  0.00  0.00    +0.000 N 
ATOM      2  C   UNL     1       3.691   5.713  18.371  0.00  0.00    +0.000 A 
ATOM      3  N   UNL     1       4.261   6.277  17.355  0.00  0.00    +0.000 NA
ATOM      4  C   UNL     1       4.963   5.516  16.428  0.00  0.00    +0.000 A 
ATOM      5  C   UNL     1       5.681   6.171  15.425  0.00  0.00    +0.000 A 
ATOM      6  C   UNL     1       6.439   5.443  14.505  0.00  0.00    +0.000 A 
ATOM      7  C   UNL     1       6.479   4.051  14.582  0.00  0.00    +0.000 A 
ATOM      8  C   UNL     1       5.756   3.389  15.573  0.00  0.00    +0.000 A 
ATOM      9  C   UNL     1       5.004   4.132  16.490  0.00  0.00    +0.000 A 
ATOM     10  C   UNL     1       4.214   3.482  17.545  0.00  0.00    +0.000 A 
ATOM     11  O   UNL     1       4.070   2.261  17.485  0.00  0.00    +0.000 OA
ENDROOT
BRANCH   1  18
ATOM     12  C   UNL     1       0.793   3.766  17.910  0.00  0.00    +0.000 C 
ATOM     13  C   UNL     1       1.431   3.483  19.244  0.00  0.00    +0.000 A 
ATOM     14  C   UNL     1       0.634   2.948  20.271  0.00  0.00    +0.000 A 
ATOM     15  C   UNL     1       1.186   2.614  21.507  0.00  0.00    +0.000 A 
ATOM     16  C   UNL     1       2.544   2.804  21.737  0.00  0.00    +0.000 A 
ATOM     17  C   UNL     1       3.353   3.338  20.733  0.00  0.00    +0.000 A 
ATOM     18  C   UNL     1       2.808   3.684  19.483  0.00  0.00    +0.000 A 
ENDBRANCH   1  18
BRANCH   2  19
ATOM     19  C   UNL     1       3.037   6.604  19.432  0.00  0.00    +0.000 C 
BRANCH  19  20
ATOM     20  N   UNL     1       2.431   7.849  18.955  0.00  0.00    +0.000 N 
ATOM     21  C   UNL     1       1.559   8.647  19.656  0.00  0.00    +0.000 A 
ATOM     22  C   UNL     1       1.028   9.495  18.704  0.00  0.00    +0.000 A 
ATOM     23  N   UNL     1       1.612   9.226  17.498  0.00  0.00    +0.000 NA
ATOM     24  N   UNL     1       2.431   8.199  17.657  0.00  0.00    +0.000 NA
BRANCH  22  25
ATOM     25  C   UNL     1      -0.089  10.473  18.791  0.00  0.00    +0.000 C 
BRANCH  25  26
ATOM     26  O   UNL     1      -1.056  10.298  17.753  0.00  0.00    +0.000 OA
BRANCH  26  27
ATOM     27  C   UNL     1      -2.315  10.775  18.016  0.00  0.00    +0.000 A 
ATOM     28  C   UNL     1      -3.494  10.382  17.372  0.00  0.00    +0.000 A 
ATOM     29  C   UNL     1      -4.727  10.924  17.752  0.00  0.00    +0.000 A 
ATOM     30  C   UNL     1      -4.784  11.869  18.773  0.00  0.00    +0.000 A 
ATOM     31  C   UNL     1      -3.611  12.267  19.397  0.00  0.00    +0.000 A 
ATOM     32  F   UNL     1      -3.666  13.180  20.378  0.00  0.00    +0.000 F 
ATOM     33  C   UNL     1      -2.381  11.732  19.029  0.00  0.00    +0.000 A 
ENDBRANCH  26  27
ENDBRANCH  25  26
ENDBRANCH  22  25
ENDBRANCH  19  20
ENDBRANCH   2  19
TORSDOF 6
ENDMDL
MODEL 5
REMARK VINA RESULT:      -8.6      1.989      2.502
REMARK  Name = 
REMARK  7 active torsions:
REMARK  status: ('A' for Active; 'I' for Inactive)
REMARK    1  A    between atoms: C_1  and  C_2
REMARK    2  A    between atoms: C_7  and  N_8
REMARK    3  A    between atoms: C_9  and  C_10
REMARK    4  A    between atoms: C_10  and  N_11
REMARK    5  A    between atoms: C_13  and  C_14
REMARK    6  A    between atoms: C_14  and  O_15
REMARK    7  A    between atoms: O_15  and  C_16
REMARK                            x       y       z     vdW  Elec       q    Type
REMARK                         _______ _______ _______ _____ _____    ______ ____
ROOT
ATOM      1  N   UNL     1       3.712   5.384  18.652  0.00  0.00    +0.000 N 
ATOM      2  C   UNL     1       3.594   6.567  17.922  0.00  0.00    +0.000 A 
ATOM      3  N   UNL     1       4.630   7.247  17.546  0.00  0.00    +0.000 NA
ATOM      4  C   UNL     1       5.903   6.886  17.971  0.00  0.00    +0.000 A 
ATOM      5  C   UNL     1       6.977   7.722  17.663  0.00  0.00    +0.000 A 
ATOM      6  C   UNL     1       8.264   7.419  18.116  0.00  0.00    +0.000 A 
ATOM      7  C   UNL     1       8.482   6.273  18.880  0.00  0.00    +0.000 A 
ATOM      8  C   UNL     1       7.416   5.428  19.183  0.00  0.00    +0.000 A 
ATOM      9  C   UNL     1       6.132   5.745  18.725  0.00  0.00    +0.000 A 
ATOM     10  C   UNL     1       4.977   4.881  19.006  0.00  0.00    +0.000 A 
ATOM     11  O   UNL     1       5.197   3.769  19.486  0.00  0.00    +0.000 OA
ENDROOT
BRANCH   1  18
ATOM     12  C   UNL     1       1.864   5.779  20.936  0.00  0.00    +0.000 C 
ATOM     13  C   UNL     1       1.769   4.619  19.981  0.00  0.00    +0.000 A 
ATOM     14  C   UNL     1       0.769   3.654  20.193  0.00  0.00    +0.000 A 
ATOM     15  C   UNL     1       0.601   2.590  19.307  0.00  0.00    +0.000 A 
ATOM     16  C   UNL     1       1.425   2.475  18.192  0.00  0.00    +0.000 A 
ATOM     17  C   UNL     1       2.427   3.420  17.967  0.00  0.00    +0.000 A 
ATOM     18  C   UNL     1       2.610   4.495  18.855  0.00  0.00    +0.000 A 
ENDBRANCH   1  18
BRANCH   2  19
ATOM     19  C   UNL     1       2.203   7.076  17.530  0.00  0.00    +0.000 C 
BRANCH  19  20
ATOM     20  N   UNL     1       1.855   8.430  17.968  0.00  0.00    +0.000 N 
ATOM     21  C   UNL     1       0.789   8.776  18.762  0.00  0.00    +0.000 A 
ATOM     22  C   UNL     1       0.694  10.148  18.629  0.00  0.00    +0.000 A 
ATOM     23  N   UNL     1       1.705  10.585  17.820  0.00  0.00    +0.000 NA
ATOM     24  N   UNL     1       2.377   9.528  17.394  0.00  0.00    +0.000 NA
BRANCH  22  25
ATOM     25  C   UNL     1      -0.350  11.098  19.098  0.00  0.00    +0.000 C 
BRANCH  25  26
ATOM     26  O   UNL     1      -1.638  10.488  19.211  0.00  0.00    +0.000 OA
BRANCH  26  27
ATOM     27  C   UNL     1      -2.499  10.698  18.165  0.00  0.00    +0.000 A 
ATOM     28  C   UNL     1      -3.647  11.499  18.191  0.00  0.00    +0.000 A 
ATOM     29  C   UNL     1      -4.431  11.657  17.043  0.00  0.00    +0.000 A 
ATOM     30  C   UNL     1      -4.074  11.006  15.865  0.00  0.00    +0.000 A 
ATOM     31  C   UNL     1      -2.945  10.201  15.847  0.00  0.00    +0.000 A 
ATOM     32  F   UNL     1      -2.604   9.572  14.713  0.00  0.00    +0.000 F 
ATOM     33  C   UNL     1      -2.157  10.040  16.982  0.00  0.00    +0.000 A 
ENDBRANCH  26  27
ENDBRANCH  25  26
ENDBRANCH  22  25
ENDBRANCH  19  20
ENDBRANCH   2  19
TORSDOF 6
ENDMDL
MODEL 6
REMARK VINA RESULT:      -8.6      5.133      8.320
REMARK  Name = 
REMARK  7 active torsions:
REMARK  status: ('A' for Active; 'I' for Inactive)
REMARK    1  A    between atoms: C_1  and  C_2
REMARK    2  A    between atoms: C_7  and  N_8
REMARK    3  A    between atoms: C_9  and  C_10
REMARK    4  A    between atoms: C_10  and  N_11
REMARK    5  A    between atoms: C_13  and  C_14
REMARK    6  A    between atoms: C_14  and  O_15
REMARK    7  A    between atoms: O_15  and  C_16
REMARK                            x       y       z     vdW  Elec       q    Type
REMARK                         _______ _______ _______ _____ _____    ______ ____
ROOT
ATOM      1  N   UNL     1       2.699   6.255  18.871  0.00  0.00    +0.000 N 
ATOM      2  C   UNL     1       3.127   7.190  17.928  0.00  0.00    +0.000 A 
ATOM      3  N   UNL     1       2.801   8.440  18.006  0.00  0.00    +0.000 NA
ATOM      4  C   UNL     1       1.900   8.875  18.971  0.00  0.00    +0.000 A 
ATOM      5  C   UNL     1       1.466  10.201  18.936  0.00  0.00    +0.000 A 
ATOM      6  C   UNL     1       0.522  10.663  19.857  0.00  0.00    +0.000 A 
ATOM      7  C   UNL     1       0.010   9.797  20.823  0.00  0.00    +0.000 A 
ATOM      8  C   UNL     1       0.447   8.475  20.871  0.00  0.00    +0.000 A 
ATOM      9  C   UNL     1       1.390   8.025  19.939  0.00  0.00    +0.000 A 
ATOM     10  C   UNL     1       1.892   6.644  19.956  0.00  0.00    +0.000 A 
ATOM     11  O   UNL     1       1.613   5.944  20.928  0.00  0.00    +0.000 OA
ENDROOT
BRANCH   1  18
ATOM     12  C   UNL     1       1.283   3.964  17.629  0.00  0.00    +0.000 C 
ATOM     13  C   UNL     1       2.548   3.822  18.433  0.00  0.00    +0.000 A 
ATOM     14  C   UNL     1       3.078   2.536  18.630  0.00  0.00    +0.000 A 
ATOM     15  C   UNL     1       4.277   2.352  19.318  0.00  0.00    +0.000 A 
ATOM     16  C   UNL     1       4.969   3.451  19.816  0.00  0.00    +0.000 A 
ATOM     17  C   UNL     1       4.458   4.737  19.635  0.00  0.00    +0.000 A 
ATOM     18  C   UNL     1       3.247   4.935  18.947  0.00  0.00    +0.000 A 
ENDBRANCH   1  18
BRANCH   2  19
ATOM     19  C   UNL     1       4.025   6.738  16.772  0.00  0.00    +0.000 C 
BRANCH  19  20
ATOM     20  N   UNL     1       5.470   6.843  16.989  0.00  0.00    +0.000 N 
ATOM     21  C   UNL     1       6.103   7.738  17.817  0.00  0.00    +0.000 A 
ATOM     22  C   UNL     1       7.431   7.670  17.445  0.00  0.00    +0.000 A 
ATOM     23  N   UNL     1       7.568   6.728  16.464  0.00  0.00    +0.000 NA
ATOM     24  N   UNL     1       6.365   6.263  16.169  0.00  0.00    +0.000 NA
BRANCH  22  25
ATOM     25  C   UNL     1       8.594   8.508  17.842  0.00  0.00    +0.000 C 
BRANCH  25  26
ATOM     26  O   UNL     1       8.202   9.750  18.432  0.00  0.00    +0.000 OA
BRANCH  26  27
ATOM     27  C   UNL     1       9.218  10.539  18.906  0.00  0.00    +0.000 A 
ATOM     28  C   UNL     1       9.435  10.886  20.245  0.00  0.00    +0.000 A 
ATOM     29  C   UNL     1      10.529  11.679  20.608  0.00  0.00    +0.000 A 
ATOM     30  C   UNL     1      11.407  12.137  19.629  0.00  0.00    +0.000 A 
ATOM     31  C   UNL     1      11.180  11.805  18.302  0.00  0.00    +0.000 A 
ATOM     32  F   UNL     1      12.024  12.249  17.359  0.00  0.00    +0.000 F 
ATOM     33  C   UNL     1      10.097  11.014  17.931  0.00  0.00    +0.000 A 
ENDBRANCH  26  27
ENDBRANCH  25  26
ENDBRANCH  22  25
ENDBRANCH  19  20
ENDBRANCH   2  19
TORSDOF 6
ENDMDL
MODEL 7
REMARK VINA RESULT:      -8.6      3.205      3.732
REMARK  Name = 
REMARK  7 active torsions:
REMARK  status: ('A' for Active; 'I' for Inactive)
REMARK    1  A    between atoms: C_1  and  C_2
REMARK    2  A    between atoms: C_7  and  N_8
REMARK    3  A    between atoms: C_9  and  C_10
REMARK    4  A    between atoms: C_10  and  N_11
REMARK    5  A    between atoms: C_13  and  C_14
REMARK    6  A    between atoms: C_14  and  O_15
REMARK    7  A    between atoms: O_15  and  C_16
REMARK                            x       y       z     vdW  Elec       q    Type
REMARK                         _______ _______ _______ _____ _____    ______ ____
ROOT
ATOM      1  N   UNL     1       3.728   5.329  18.924  0.00  0.00    +0.000 N 
ATOM      2  C   UNL     1       3.467   6.527  18.259  0.00  0.00    +0.000 A 
ATOM      3  N   UNL     1       4.415   7.258  17.766  0.00  0.00    +0.000 NA
ATOM      4  C   UNL     1       5.747   6.937  17.999  0.00  0.00    +0.000 A 
ATOM      5  C   UNL     1       6.737   7.823  17.572  0.00  0.00    +0.000 A 
ATOM      6  C   UNL     1       8.084   7.560  17.832  0.00  0.00    +0.000 A 
ATOM      7  C   UNL     1       8.448   6.401  18.519  0.00  0.00    +0.000 A 
ATOM      8  C   UNL     1       7.466   5.506  18.938  0.00  0.00    +0.000 A 
ATOM      9  C   UNL     1       6.120   5.785  18.674  0.00  0.00    +0.000 A 
ATOM     10  C   UNL     1       5.048   4.867  19.083  0.00  0.00    +0.000 A 
ATOM     11  O   UNL     1       5.371   3.751  19.489  0.00  0.00    +0.000 OA
ENDROOT
BRANCH   1  18
ATOM     12  C   UNL     1       2.827   3.336  16.922  0.00  0.00    +0.000 C 
ATOM     13  C   UNL     1       2.201   3.489  18.283  0.00  0.00    +0.000 A 
ATOM     14  C   UNL     1       1.114   2.664  18.619  0.00  0.00    +0.000 A 
ATOM     15  C   UNL     1       0.533   2.725  19.885  0.00  0.00    +0.000 A 
ATOM     16  C   UNL     1       1.030   3.607  20.838  0.00  0.00    +0.000 A 
ATOM     17  C   UNL     1       2.106   4.439  20.523  0.00  0.00    +0.000 A 
ATOM     18  C   UNL     1       2.698   4.391  19.248  0.00  0.00    +0.000 A 
ENDBRANCH   1  18
BRANCH   2  19
ATOM     19  C   UNL     1       2.017   6.991  18.081  0.00  0.00    +0.000 C 
BRANCH  19  20
ATOM     20  N   UNL     1       1.615   8.180  18.836  0.00  0.00    +0.000 N 
ATOM     21  C   UNL     1       1.348   8.234  20.182  0.00  0.00    +0.000 A 
ATOM     22  C   UNL     1       0.714   9.449  20.357  0.00  0.00    +0.000 A 
ATOM     23  N   UNL     1       0.659  10.096  19.155  0.00  0.00    +0.000 NA
ATOM     24  N   UNL     1       1.173   9.299  18.234  0.00  0.00    +0.000 NA
BRANCH  22  25
ATOM     25  C   UNL     1       0.028  10.022  21.546  0.00  0.00    +0.000 C 
BRANCH  25  26
ATOM     26  O   UNL     1       0.420  11.371  21.811  0.00  0.00    +0.000 OA
BRANCH  26  27
ATOM     27  C   UNL     1      -0.581  12.227  22.192  0.00  0.00    +0.000 A 
ATOM     28  C   UNL     1      -0.669  13.586  21.869  0.00  0.00    +0.000 A 
ATOM     29  C   UNL     1      -1.760  14.350  22.295  0.00  0.00    +0.000 A 
ATOM     30  C   UNL     1      -2.766  13.759  23.055  0.00  0.00    +0.000 A 
ATOM     31  C   UNL     1      -2.668  12.416  23.386  0.00  0.00    +0.000 A 
ATOM     32  F   UNL     1      -3.635  11.847  24.121  0.00  0.00    +0.000 F 
ATOM     33  C   UNL     1      -1.588  11.646  22.965  0.00  0.00    +0.000 A 
ENDBRANCH  26  27
ENDBRANCH  25  26
ENDBRANCH  22  25
ENDBRANCH  19  20
ENDBRANCH   2  19
TORSDOF 6
ENDMDL
MODEL 8
REMARK VINA RESULT:      -8.6      2.625      3.252
REMARK  Name = 
REMARK  7 active torsions:
REMARK  status: ('A' for Active; 'I' for Inactive)
REMARK    1  A    between atoms: C_1  and  C_2
REMARK    2  A    between atoms: C_7  and  N_8
REMARK    3  A    between atoms: C_9  and  C_10
REMARK    4  A    between atoms: C_10  and  N_11
REMARK    5  A    between atoms: C_13  and  C_14
REMARK    6  A    between atoms: C_14  and  O_15
REMARK    7  A    between atoms: O_15  and  C_16
REMARK                            x       y       z     vdW  Elec       q    Type
REMARK                         _______ _______ _______ _____ _____    ______ ____
ROOT
ATOM      1  N   UNL     1       3.732   5.344  18.895  0.00  0.00    +0.000 N 
ATOM      2  C   UNL     1       3.473   6.526  18.200  0.00  0.00    +0.000 A 
ATOM      3  N   UNL     1       4.423   7.255  17.709  0.00  0.00    +0.000 NA
ATOM      4  C   UNL     1       5.753   6.950  17.971  0.00  0.00    +0.000 A 
ATOM      5  C   UNL     1       6.744   7.836  17.544  0.00  0.00    +0.000 A 
ATOM      6  C   UNL     1       8.088   7.589  17.833  0.00  0.00    +0.000 A 
ATOM      7  C   UNL     1       8.450   6.448  18.549  0.00  0.00    +0.000 A 
ATOM      8  C   UNL     1       7.467   5.553  18.969  0.00  0.00    +0.000 A 
ATOM      9  C   UNL     1       6.124   5.815  18.676  0.00  0.00    +0.000 A 
ATOM     10  C   UNL     1       5.053   4.897  19.085  0.00  0.00    +0.000 A 
ATOM     11  O   UNL     1       5.378   3.792  19.520  0.00  0.00    +0.000 OA
ENDROOT
BRANCH   1  18
ATOM     12  C   UNL     1       2.844   3.339  16.899  0.00  0.00    +0.000 C 
ATOM     13  C   UNL     1       2.213   3.496  18.257  0.00  0.00    +0.000 A 
ATOM     14  C   UNL     1       1.128   2.669  18.593  0.00  0.00    +0.000 A 
ATOM     15  C   UNL     1       0.543   2.733  19.857  0.00  0.00    +0.000 A 
ATOM     16  C   UNL     1       1.035   3.621  20.808  0.00  0.00    +0.000 A 
ATOM     17  C   UNL     1       2.108   4.455  20.492  0.00  0.00    +0.000 A 
ATOM     18  C   UNL     1       2.704   4.404  19.219  0.00  0.00    +0.000 A 
ENDBRANCH   1  18
BRANCH   2  19
ATOM     19  C   UNL     1       2.023   6.973  17.988  0.00  0.00    +0.000 C 
BRANCH  19  20
ATOM     20  N   UNL     1       1.632   8.240  18.611  0.00  0.00    +0.000 N 
ATOM     21  C   UNL     1       1.491   8.472  19.958  0.00  0.00    +0.000 A 
ATOM     22  C   UNL     1       0.814   9.674  20.029  0.00  0.00    +0.000 A 
ATOM     23  N   UNL     1       0.613  10.145  18.762  0.00  0.00    +0.000 NA
ATOM     24  N   UNL     1       1.079   9.246  17.910  0.00  0.00    +0.000 NA
BRANCH  22  25
ATOM     25  C   UNL     1       0.213  10.381  21.192  0.00  0.00    +0.000 C 
BRANCH  25  26
ATOM     26  O   UNL     1      -0.346  11.649  20.837  0.00  0.00    +0.000 OA
BRANCH  26  27
ATOM     27  C   UNL     1      -1.520  11.985  21.459  0.00  0.00    +0.000 A 
ATOM     28  C   UNL     1      -1.794  11.855  22.826  0.00  0.00    +0.000 A 
ATOM     29  C   UNL     1      -3.027  12.262  23.347  0.00  0.00    +0.000 A 
ATOM     30  C   UNL     1      -3.997  12.793  22.499  0.00  0.00    +0.000 A 
ATOM     31  C   UNL     1      -3.728  12.905  21.144  0.00  0.00    +0.000 A 
ATOM     32  F   UNL     1      -4.662  13.412  20.327  0.00  0.00    +0.000 F 
ATOM     33  C   UNL     1      -2.503  12.506  20.616  0.00  0.00    +0.000 A 
ENDBRANCH  26  27
ENDBRANCH  25  26
ENDBRANCH  22  25
ENDBRANCH  19  20
ENDBRANCH   2  19
TORSDOF 6
ENDMDL
MODEL 9
REMARK VINA RESULT:      -8.5      6.081      8.135
REMARK  Name = 
REMARK  7 active torsions:
REMARK  status: ('A' for Active; 'I' for Inactive)
REMARK    1  A    between atoms: C_1  and  C_2
REMARK    2  A    between atoms: C_7  and  N_8
REMARK    3  A    between atoms: C_9  and  C_10
REMARK    4  A    between atoms: C_10  and  N_11
REMARK    5  A    between atoms: C_13  and  C_14
REMARK    6  A    between atoms: C_14  and  O_15
REMARK    7  A    between atoms: O_15  and  C_16
REMARK                            x       y       z     vdW  Elec       q    Type
REMARK                         _______ _______ _______ _____ _____    ______ ____
ROOT
ATOM      1  N   UNL     1       5.490   4.709  16.864  0.00  0.00    +0.000 N 
ATOM      2  C   UNL     1       6.701   5.402  16.854  0.00  0.00    +0.000 A 
ATOM      3  N   UNL     1       7.381   5.578  15.766  0.00  0.00    +0.000 NA
ATOM      4  C   UNL     1       6.988   4.967  14.582  0.00  0.00    +0.000 A 
ATOM      5  C   UNL     1       7.820   5.064  13.466  0.00  0.00    +0.000 A 
ATOM      6  C   UNL     1       7.485   4.421  12.272  0.00  0.00    +0.000 A 
ATOM      7  C   UNL     1       6.308   3.677  12.188  0.00  0.00    +0.000 A 
ATOM      8  C   UNL     1       5.466   3.584  13.295  0.00  0.00    +0.000 A 
ATOM      9  C   UNL     1       5.817   4.231  14.486  0.00  0.00    +0.000 A 
ATOM     10  C   UNL     1       4.957   4.174  15.676  0.00  0.00    +0.000 A 
ATOM     11  O   UNL     1       3.825   3.709  15.545  0.00  0.00    +0.000 OA
ENDROOT
BRANCH   1  18
ATOM     12  C   UNL     1       3.812   7.087  17.431  0.00  0.00    +0.000 C 
ATOM     13  C   UNL     1       3.862   5.874  18.322  0.00  0.00    +0.000 A 
ATOM     14  C   UNL     1       3.096   5.872  19.499  0.00  0.00    +0.000 A 
ATOM     15  C   UNL     1       3.061   4.753  20.331  0.00  0.00    +0.000 A 
ATOM     16  C   UNL     1       3.789   3.616  19.997  0.00  0.00    +0.000 A 
ATOM     17  C   UNL     1       4.561   3.599  18.834  0.00  0.00    +0.000 A 
ATOM     18  C   UNL     1       4.608   4.722  17.990  0.00  0.00    +0.000 A 
ENDBRANCH   1  18
BRANCH   2  19
ATOM     19  C   UNL     1       7.241   5.994  18.159  0.00  0.00    +0.000 C 
BRANCH  19  20
ATOM     20  N   UNL     1       7.809   7.342  18.080  0.00  0.00    +0.000 N 
ATOM     21  C   UNL     1       8.706   7.898  18.959  0.00  0.00    +0.000 A 
ATOM     22  C   UNL     1       8.688   9.246  18.662  0.00  0.00    +0.000 A 
ATOM     23  N   UNL     1       7.841   9.456  17.611  0.00  0.00    +0.000 NA
ATOM     24  N   UNL     1       7.284   8.299  17.294  0.00  0.00    +0.000 NA
BRANCH  22  25
ATOM     25  C   UNL     1       9.308  10.402  19.363  0.00  0.00    +0.000 C 
BRANCH  25  26
ATOM     26  O   UNL     1      10.033  11.259  18.477  0.00  0.00    +0.000 OA
BRANCH  26  27
ATOM     27  C   UNL     1      10.401  12.479  18.985  0.00  0.00    +0.000 A 
ATOM     28  C   UNL     1      10.276  12.887  20.318  0.00  0.00    +0.000 A 
ATOM     29  C   UNL     1      10.716  14.152  20.720  0.00  0.00    +0.000 A 
ATOM     30  C   UNL     1      11.276  15.020  19.785  0.00  0.00    +0.000 A 
ATOM     31  C   UNL     1      11.383  14.619  18.463  0.00  0.00    +0.000 A 
ATOM     32  F   UNL     1      11.918  15.456  17.562  0.00  0.00    +0.000 F 
ATOM     33  C   UNL     1      10.951  13.361  18.053  0.00  0.00    +0.000 A 
ENDBRANCH  26  27
ENDBRANCH  25  26
ENDBRANCH  22  25
ENDBRANCH  19  20
ENDBRANCH   2  19
TORSDOF 6
ENDMDL
