MODEL 1
REMARK VINA RESULT:      -7.7      0.000      0.000
REMARK  Name = 
REMARK  6 active torsions:
REMARK  status: ('A' for Active; 'I' for Inactive)
REMARK    1  A    between atoms: C_1  and  O_2
REMARK    2  A    between atoms: O_2  and  C_3
REMARK    3  A    between atoms: C_6  and  C_7
REMARK    4  A    between atoms: C_7  and  C_8
REMARK    5  A    between atoms: N_12  and  S_13
REMARK    6  A    between atoms: S_13  and  C_16
REMARK                            x       y       z     vdW  Elec       q    Type
REMARK                         _______ _______ _______ _____ _____    ______ ____
ROOT
ATOM      1  C   UNL     1       3.258   4.926  19.134  0.00  0.00    +0.000 A 
ATOM      2  N   UNL     1       2.810   4.210  18.119  0.00  0.00    +0.000 NA
ATOM      3  N   UNL     1       3.812   3.896  17.223  0.00  0.00    +0.000 NA
ATOM      4  C   UNL     1       4.953   4.445  17.562  0.00  0.00    +0.000 A 
ATOM      5  N   UNL     1       6.113   4.219  16.773  0.00  0.00    +0.000 N 
ATOM      6  S   UNL     1       4.948   5.252  19.066  0.00  0.00    +0.000 S 
ATOM      7  H   UNL     1       5.943   3.388  16.206  0.00  0.00    +0.000 HD
ENDROOT
BRANCH   5   8
ATOM      8  S   UNL     1       6.405   5.520  15.726  0.00  0.00    +0.000 S 
ATOM      9  O   UNL     1       5.271   6.423  15.693  0.00  0.00    +0.000 OA
ATOM     10  O   UNL     1       7.734   6.011  16.040  0.00  0.00    +0.000 OA
BRANCH   8  11
ATOM     11  C   UNL     1       6.527   4.723  14.130  0.00  0.00    +0.000 A 
ATOM     12  C   UNL     1       5.567   3.784  13.742  0.00  0.00    +0.000 A 
ATOM     13  C   UNL     1       5.656   3.192  12.479  0.00  0.00    +0.000 A 
ATOM     14  C   UNL     1       6.690   3.546  11.610  0.00  0.00    +0.000 A 
ATOM     15  C   UNL     1       7.629   4.504  11.991  0.00  0.00    +0.000 A 
ATOM     16  C   UNL     1       7.549   5.101  13.252  0.00  0.00    +0.000 A 
ENDBRANCH   8  11
ENDBRANCH   5   8
BRANCH   1  17
ATOM     17  C   UNL     1       2.414   5.427  20.265  0.00  0.00    +0.000 C 
BRANCH  17  21
ATOM     18  C   UNL     1       1.092   9.516  19.731  0.00  0.00    +0.000 A 
ATOM     19  C   UNL     1       0.822   8.834  20.918  0.00  0.00    +0.000 A 
ATOM     20  C   UNL     1       1.256   7.519  21.094  0.00  0.00    +0.000 A 
ATOM     21  C   UNL     1       1.941   6.852  20.070  0.00  0.00    +0.000 A 
ATOM     22  C   UNL     1       2.189   7.535  18.871  0.00  0.00    +0.000 A 
ATOM     23  C   UNL     1       1.766   8.858  18.702  0.00  0.00    +0.000 A 
BRANCH  18  25
ATOM     24  C   UNL     1      -0.380  11.128  20.633  0.00  0.00    +0.000 C 
ATOM     25  O   UNL     1       0.622  10.798  19.679  0.00  0.00    +0.000 OA
ENDBRANCH  18  25
ENDBRANCH  17  21
ENDBRANCH   1  17
TORSDOF 5
ENDMDL
MODEL 2
REMARK VINA RESULT:      -7.7      0.386      1.057
REMARK  Name = 
REMARK  6 active torsions:
REMARK  status: ('A' for Active; 'I' for Inactive)
REMARK    1  A    between atoms: C_1  and  O_2
REMARK    2  A    between atoms: O_2  and  C_3
REMARK    3  A    between atoms: C_6  and  C_7
REMARK    4  A    between atoms: C_7  and  C_8
REMARK    5  A    between atoms: N_12  and  S_13
REMARK    6  A    between atoms: S_13  and  C_16
REMARK                            x       y       z     vdW  Elec       q    Type
REMARK                         _______ _______ _______ _____ _____    ______ ____
ROOT
ATOM      1  C   UNL     1       3.247   5.063  19.148  0.00  0.00    +0.000 A 
ATOM      2  N   UNL     1       2.794   4.315  18.159  0.00  0.00    +0.000 NA
ATOM      3  N   UNL     1       3.792   3.969  17.270  0.00  0.00    +0.000 NA
ATOM      4  C   UNL     1       4.936   4.527  17.587  0.00  0.00    +0.000 A 
ATOM      5  N   UNL     1       6.092   4.273  16.803  0.00  0.00    +0.000 N 
ATOM      6  S   UNL     1       4.937   5.383  19.064  0.00  0.00    +0.000 S 
ATOM      7  H   UNL     1       5.920   3.424  16.264  0.00  0.00    +0.000 HD
ENDROOT
BRANCH   5   8
ATOM      8  S   UNL     1       6.383   5.537  15.712  0.00  0.00    +0.000 S 
ATOM      9  O   UNL     1       5.256   6.447  15.661  0.00  0.00    +0.000 OA
ATOM     10  O   UNL     1       7.719   6.029  15.998  0.00  0.00    +0.000 OA
BRANCH   8  11
ATOM     11  C   UNL     1       6.485   4.690  14.142  0.00  0.00    +0.000 A 
ATOM     12  C   UNL     1       5.467   3.815  13.751  0.00  0.00    +0.000 A 
ATOM     13  C   UNL     1       5.543   3.183  12.507  0.00  0.00    +0.000 A 
ATOM     14  C   UNL     1       6.622   3.434  11.658  0.00  0.00    +0.000 A 
ATOM     15  C   UNL     1       7.622   4.328  12.040  0.00  0.00    +0.000 A 
ATOM     16  C   UNL     1       7.555   4.965  13.282  0.00  0.00    +0.000 A 
ENDBRANCH   8  11
ENDBRANCH   5   8
BRANCH   1  17
ATOM     17  C   UNL     1       2.406   5.602  20.264  0.00  0.00    +0.000 C 
BRANCH  17  21
ATOM     18  C   UNL     1       1.048   9.655  19.565  0.00  0.00    +0.000 A 
ATOM     19  C   UNL     1       1.759   8.967  18.581  0.00  0.00    +0.000 A 
ATOM     20  C   UNL     1       2.189   7.657  18.803  0.00  0.00    +0.000 A 
ATOM     21  C   UNL     1       1.942   7.024  20.027  0.00  0.00    +0.000 A 
ATOM     22  C   UNL     1       1.248   7.729  21.021  0.00  0.00    +0.000 A 
ATOM     23  C   UNL     1       0.805   9.037  20.792  0.00  0.00    +0.000 A 
BRANCH  18  25
ATOM     24  C   UNL     1      -0.707  11.113  18.956  0.00  0.00    +0.000 C 
ATOM     25  O   UNL     1       0.676  10.926  19.230  0.00  0.00    +0.000 OA
ENDBRANCH  18  25
ENDBRANCH  17  21
ENDBRANCH   1  17
TORSDOF 5
ENDMDL
MODEL 3
REMARK VINA RESULT:      -7.7      0.455      1.467
REMARK  Name = 
REMARK  6 active torsions:
REMARK  status: ('A' for Active; 'I' for Inactive)
REMARK    1  A    between atoms: C_1  and  O_2
REMARK    2  A    between atoms: O_2  and  C_3
REMARK    3  A    between atoms: C_6  and  C_7
REMARK    4  A    between atoms: C_7  and  C_8
REMARK    5  A    between atoms: N_12  and  S_13
REMARK    6  A    between atoms: S_13  and  C_16
REMARK                            x       y       z     vdW  Elec       q    Type
REMARK                         _______ _______ _______ _____ _____    ______ ____
ROOT
ATOM      1  C   UNL     1       3.058   5.061  19.086  0.00  0.00    +0.000 A 
ATOM      2  N   UNL     1       2.614   4.400  18.033  0.00  0.00    +0.000 NA
ATOM      3  N   UNL     1       3.633   4.053  17.169  0.00  0.00    +0.000 NA
ATOM      4  C   UNL     1       4.788   4.528  17.569  0.00  0.00    +0.000 A 
ATOM      5  N   UNL     1       5.965   4.258  16.821  0.00  0.00    +0.000 N 
ATOM      6  S   UNL     1       4.765   5.293  19.095  0.00  0.00    +0.000 S 
ATOM      7  H   UNL     1       5.773   3.453  16.224  0.00  0.00    +0.000 HD
ENDROOT
BRANCH   5   8
ATOM      8  S   UNL     1       6.372   5.567  15.826  0.00  0.00    +0.000 S 
ATOM      9  O   UNL     1       5.303   6.545  15.791  0.00  0.00    +0.000 OA
ATOM     10  O   UNL     1       7.722   5.959  16.191  0.00  0.00    +0.000 OA
BRANCH   8  11
ATOM     11  C   UNL     1       6.489   4.814  14.209  0.00  0.00    +0.000 A 
ATOM     12  C   UNL     1       7.540   5.153  13.352  0.00  0.00    +0.000 A 
ATOM     13  C   UNL     1       7.638   4.534  12.103  0.00  0.00    +0.000 A 
ATOM     14  C   UNL     1       6.697   3.576  11.722  0.00  0.00    +0.000 A 
ATOM     15  C   UNL     1       5.666   3.220  12.589  0.00  0.00    +0.000 A 
ATOM     16  C   UNL     1       5.559   3.834  13.841  0.00  0.00    +0.000 A 
ENDBRANCH   8  11
ENDBRANCH   5   8
BRANCH   1  17
ATOM     17  C   UNL     1       2.196   5.579  20.196  0.00  0.00    +0.000 C 
BRANCH  17  21
ATOM     18  C   UNL     1       1.068   9.729  19.686  0.00  0.00    +0.000 A 
ATOM     19  C   UNL     1       1.684   9.030  18.647  0.00  0.00    +0.000 A 
ATOM     20  C   UNL     1       2.039   7.689  18.808  0.00  0.00    +0.000 A 
ATOM     21  C   UNL     1       1.813   7.034  20.025  0.00  0.00    +0.000 A 
ATOM     22  C   UNL     1       1.215   7.749  21.073  0.00  0.00    +0.000 A 
ATOM     23  C   UNL     1       0.847   9.088  20.905  0.00  0.00    +0.000 A 
BRANCH  18  25
ATOM     24  C   UNL     1      -0.417  11.239  18.640  0.00  0.00    +0.000 C 
ATOM     25  O   UNL     1       0.763  11.032  19.407  0.00  0.00    +0.000 OA
ENDBRANCH  18  25
ENDBRANCH  17  21
ENDBRANCH   1  17
TORSDOF 5
ENDMDL
MODEL 4
REMARK VINA RESULT:      -7.6      0.635      1.174
REMARK  Name = 
REMARK  6 active torsions:
REMARK  status: ('A' for Active; 'I' for Inactive)
REMARK    1  A    between atoms: C_1  and  O_2
REMARK    2  A    between atoms: O_2  and  C_3
REMARK    3  A    between atoms: C_6  and  C_7
REMARK    4  A    between atoms: C_7  and  C_8
REMARK    5  A    between atoms: N_12  and  S_13
REMARK    6  A    between atoms: S_13  and  C_16
REMARK                            x       y       z     vdW  Elec       q    Type
REMARK                         _______ _______ _______ _____ _____    ______ ____
ROOT
ATOM      1  C   UNL     1       3.011   4.897  19.133  0.00  0.00    +0.000 A 
ATOM      2  N   UNL     1       2.507   4.680  17.933  0.00  0.00    +0.000 NA
ATOM      3  N   UNL     1       3.447   4.174  17.058  0.00  0.00    +0.000 NA
ATOM      4  C   UNL     1       4.632   4.098  17.613  0.00  0.00    +0.000 A 
ATOM      5  N   UNL     1       5.730   3.580  16.876  0.00  0.00    +0.000 N 
ATOM      6  S   UNL     1       4.677   4.481  19.276  0.00  0.00    +0.000 S 
ATOM      7  H   UNL     1       5.352   3.045  16.093  0.00  0.00    +0.000 HD
ENDROOT
BRANCH   5   8
ATOM      8  S   UNL     1       6.690   4.827  16.246  0.00  0.00    +0.000 S 
ATOM      9  O   UNL     1       6.073   6.120  16.473  0.00  0.00    +0.000 OA
ATOM     10  O   UNL     1       8.048   4.567  16.689  0.00  0.00    +0.000 OA
BRANCH   8  11
ATOM     11  C   UNL     1       6.662   4.499  14.489  0.00  0.00    +0.000 A 
ATOM     12  C   UNL     1       7.617   5.085  13.653  0.00  0.00    +0.000 A 
ATOM     13  C   UNL     1       7.604   4.795  12.285  0.00  0.00    +0.000 A 
ATOM     14  C   UNL     1       6.651   3.919  11.764  0.00  0.00    +0.000 A 
ATOM     15  C   UNL     1       5.718   3.315  12.606  0.00  0.00    +0.000 A 
ATOM     16  C   UNL     1       5.722   3.599  13.975  0.00  0.00    +0.000 A 
ENDBRANCH   8  11
ENDBRANCH   5   8
BRANCH   1  17
ATOM     17  C   UNL     1       2.244   5.449  20.295  0.00  0.00    +0.000 C 
BRANCH  17  21
ATOM     18  C   UNL     1       1.119   9.599  19.788  0.00  0.00    +0.000 A 
ATOM     19  C   UNL     1       0.782   8.912  20.955  0.00  0.00    +0.000 A 
ATOM     20  C   UNL     1       1.153   7.577  21.123  0.00  0.00    +0.000 A 
ATOM     21  C   UNL     1       1.840   6.896  20.110  0.00  0.00    +0.000 A 
ATOM     22  C   UNL     1       2.156   7.586  18.930  0.00  0.00    +0.000 A 
ATOM     23  C   UNL     1       1.795   8.928  18.770  0.00  0.00    +0.000 A 
BRANCH  18  25
ATOM     24  C   UNL     1      -0.636  11.110  19.320  0.00  0.00    +0.000 C 
ATOM     25  O   UNL     1       0.706  10.902  19.743  0.00  0.00    +0.000 OA
ENDBRANCH  18  25
ENDBRANCH  17  21
ENDBRANCH   1  17
TORSDOF 5
ENDMDL
MODEL 5
REMARK VINA RESULT:      -7.5      0.988      1.738
REMARK  Name = 
REMARK  6 active torsions:
REMARK  status: ('A' for Active; 'I' for Inactive)
REMARK    1  A    between atoms: C_1  and  O_2
REMARK    2  A    between atoms: O_2  and  C_3
REMARK    3  A    between atoms: C_6  and  C_7
REMARK    4  A    between atoms: C_7  and  C_8
REMARK    5  A    between atoms: N_12  and  S_13
REMARK    6  A    between atoms: S_13  and  C_16
REMARK                            x       y       z     vdW  Elec       q    Type
REMARK                         _______ _______ _______ _____ _____    ______ ____
ROOT
ATOM      1  C   UNL     1       3.513   4.952  18.754  0.00  0.00    +0.000 A 
ATOM      2  N   UNL     1       2.916   4.196  17.852  0.00  0.00    +0.000 NA
ATOM      3  N   UNL     1       3.797   3.728  16.899  0.00  0.00    +0.000 NA
ATOM      4  C   UNL     1       5.004   4.208  17.080  0.00  0.00    +0.000 A 
ATOM      5  N   UNL     1       6.060   3.825  16.211  0.00  0.00    +0.000 N 
ATOM      6  S   UNL     1       5.207   5.132  18.501  0.00  0.00    +0.000 S 
ATOM      7  H   UNL     1       5.774   2.967  15.738  0.00  0.00    +0.000 HD
ENDROOT
BRANCH   5   8
ATOM      8  S   UNL     1       6.341   5.007  15.030  0.00  0.00    +0.000 S 
ATOM      9  O   UNL     1       5.362   6.072  15.119  0.00  0.00    +0.000 OA
ATOM     10  O   UNL     1       7.762   5.303  15.073  0.00  0.00    +0.000 OA
BRANCH   8  11
ATOM     11  C   UNL     1       6.059   4.119  13.505  0.00  0.00    +0.000 A 
ATOM     12  C   UNL     1       7.144   3.638  12.764  0.00  0.00    +0.000 A 
ATOM     13  C   UNL     1       6.909   2.918  11.589  0.00  0.00    +0.000 A 
ATOM     14  C   UNL     1       5.601   2.672  11.168  0.00  0.00    +0.000 A 
ATOM     15  C   UNL     1       4.522   3.130  11.924  0.00  0.00    +0.000 A 
ATOM     16  C   UNL     1       4.747   3.852  13.100  0.00  0.00    +0.000 A 
ENDBRANCH   8  11
ENDBRANCH   5   8
BRANCH   1  17
ATOM     17  C   UNL     1       2.824   5.611  19.909  0.00  0.00    +0.000 C 
BRANCH  17  21
ATOM     18  C   UNL     1       1.299   9.550  18.955  0.00  0.00    +0.000 A 
ATOM     19  C   UNL     1       1.991   8.807  17.996  0.00  0.00    +0.000 A 
ATOM     20  C   UNL     1       2.474   7.533  18.301  0.00  0.00    +0.000 A 
ATOM     21  C   UNL     1       2.302   6.994  19.582  0.00  0.00    +0.000 A 
ATOM     22  C   UNL     1       1.627   7.755  20.548  0.00  0.00    +0.000 A 
ATOM     23  C   UNL     1       1.131   9.026  20.236  0.00  0.00    +0.000 A 
BRANCH  18  25
ATOM     24  C   UNL     1       1.876  11.780  18.431  0.00  0.00    +0.000 C 
ATOM     25  O   UNL     1       0.870  10.779  18.537  0.00  0.00    +0.000 OA
ENDBRANCH  18  25
ENDBRANCH  17  21
ENDBRANCH   1  17
TORSDOF 5
ENDMDL
MODEL 6
REMARK VINA RESULT:      -7.2      2.591      3.403
REMARK  Name = 
REMARK  6 active torsions:
REMARK  status: ('A' for Active; 'I' for Inactive)
REMARK    1  A    between atoms: C_1  and  O_2
REMARK    2  A    between atoms: O_2  and  C_3
REMARK    3  A    between atoms: C_6  and  C_7
REMARK    4  A    between atoms: C_7  and  C_8
REMARK    5  A    between atoms: N_12  and  S_13
REMARK    6  A    between atoms: S_13  and  C_16
REMARK                            x       y       z     vdW  Elec       q    Type
REMARK                         _______ _______ _______ _____ _____    ______ ____
ROOT
ATOM      1  C   UNL     1       2.512   5.383  19.451  0.00  0.00    +0.000 A 
ATOM      2  N   UNL     1       1.871   4.704  18.519  0.00  0.00    +0.000 NA
ATOM      3  N   UNL     1       2.728   3.949  17.744  0.00  0.00    +0.000 NA
ATOM      4  C   UNL     1       3.981   4.145  18.077  0.00  0.00    +0.000 A 
ATOM      5  N   UNL     1       5.014   3.437  17.407  0.00  0.00    +0.000 N 
ATOM      6  S   UNL     1       4.216   5.131  19.451  0.00  0.00    +0.000 S 
ATOM      7  H   UNL     1       4.589   2.629  16.951  0.00  0.00    +0.000 HD
ENDROOT
BRANCH   5   8
ATOM      8  S   UNL     1       5.736   4.396  16.210  0.00  0.00    +0.000 S 
ATOM      9  O   UNL     1       6.607   3.602  15.366  0.00  0.00    +0.000 OA
ATOM     10  O   UNL     1       4.675   5.200  15.630  0.00  0.00    +0.000 OA
BRANCH   8  11
ATOM     11  C   UNL     1       6.754   5.516  17.161  0.00  0.00    +0.000 A 
ATOM     12  C   UNL     1       6.807   6.872  16.823  0.00  0.00    +0.000 A 
ATOM     13  C   UNL     1       7.581   7.743  17.594  0.00  0.00    +0.000 A 
ATOM     14  C   UNL     1       8.287   7.262  18.698  0.00  0.00    +0.000 A 
ATOM     15  C   UNL     1       8.210   5.915  19.048  0.00  0.00    +0.000 A 
ATOM     16  C   UNL     1       7.438   5.035  18.283  0.00  0.00    +0.000 A 
ENDBRANCH   8  11
ENDBRANCH   5   8
BRANCH   1  17
ATOM     17  C   UNL     1       1.862   6.298  20.442  0.00  0.00    +0.000 C 
BRANCH  17  21
ATOM     18  C   UNL     1       1.300  10.324  18.949  0.00  0.00    +0.000 A 
ATOM     19  C   UNL     1       0.816   9.962  20.207  0.00  0.00    +0.000 A 
ATOM     20  C   UNL     1       1.005   8.666  20.692  0.00  0.00    +0.000 A 
ATOM     21  C   UNL     1       1.655   7.702  19.912  0.00  0.00    +0.000 A 
ATOM     22  C   UNL     1       2.118   8.066  18.639  0.00  0.00    +0.000 A 
ATOM     23  C   UNL     1       1.939   9.368  18.161  0.00  0.00    +0.000 A 
BRANCH  18  25
ATOM     24  C   UNL     1       2.211  12.430  18.389  0.00  0.00    +0.000 C 
ATOM     25  O   UNL     1       1.059  11.620  18.586  0.00  0.00    +0.000 OA
ENDBRANCH  18  25
ENDBRANCH  17  21
ENDBRANCH   1  17
TORSDOF 5
ENDMDL
MODEL 7
REMARK VINA RESULT:      -7.2      2.528      3.446
REMARK  Name = 
REMARK  6 active torsions:
REMARK  status: ('A' for Active; 'I' for Inactive)
REMARK    1  A    between atoms: C_1  and  O_2
REMARK    2  A    between atoms: O_2  and  C_3
REMARK    3  A    between atoms: C_6  and  C_7
REMARK    4  A    between atoms: C_7  and  C_8
REMARK    5  A    between atoms: N_12  and  S_13
REMARK    6  A    between atoms: S_13  and  C_16
REMARK                            x       y       z     vdW  Elec       q    Type
REMARK                         _______ _______ _______ _____ _____    ______ ____
ROOT
ATOM      1  C   UNL     1       2.588   5.304  19.261  0.00  0.00    +0.000 A 
ATOM      2  N   UNL     1       1.930   4.753  18.258  0.00  0.00    +0.000 NA
ATOM      3  N   UNL     1       2.762   4.033  17.424  0.00  0.00    +0.000 NA
ATOM      4  C   UNL     1       4.017   4.132  17.791  0.00  0.00    +0.000 A 
ATOM      5  N   UNL     1       5.025   3.441  17.067  0.00  0.00    +0.000 N 
ATOM      6  S   UNL     1       4.277   4.966  19.257  0.00  0.00    +0.000 S 
ATOM      7  H   UNL     1       4.569   2.703  16.529  0.00  0.00    +0.000 HD
ENDROOT
BRANCH   5   8
ATOM      8  S   UNL     1       5.815   4.473  15.979  0.00  0.00    +0.000 S 
ATOM      9  O   UNL     1       6.713   3.728  15.118  0.00  0.00    +0.000 OA
ATOM     10  O   UNL     1       4.793   5.336  15.414  0.00  0.00    +0.000 OA
BRANCH   8  11
ATOM     11  C   UNL     1       6.803   5.501  17.056  0.00  0.00    +0.000 A 
ATOM     12  C   UNL     1       6.851   6.884  16.853  0.00  0.00    +0.000 A 
ATOM     13  C   UNL     1       7.602   7.681  17.722  0.00  0.00    +0.000 A 
ATOM     14  C   UNL     1       8.289   7.100  18.788  0.00  0.00    +0.000 A 
ATOM     15  C   UNL     1       8.217   5.725  19.003  0.00  0.00    +0.000 A 
ATOM     16  C   UNL     1       7.469   4.918  18.140  0.00  0.00    +0.000 A 
ENDBRANCH   8  11
ENDBRANCH   5   8
BRANCH   1  17
ATOM     17  C   UNL     1       1.966   6.151  20.328  0.00  0.00    +0.000 C 
BRANCH  17  21
ATOM     18  C   UNL     1       1.235  10.224  19.052  0.00  0.00    +0.000 A 
ATOM     19  C   UNL     1       1.896   9.327  18.212  0.00  0.00    +0.000 A 
ATOM     20  C   UNL     1       2.124   8.011  18.620  0.00  0.00    +0.000 A 
ATOM     21  C   UNL     1       1.722   7.580  19.890  0.00  0.00    +0.000 A 
ATOM     22  C   UNL     1       1.079   8.493  20.738  0.00  0.00    +0.000 A 
ATOM     23  C   UNL     1       0.839   9.807  20.322  0.00  0.00    +0.000 A 
BRANCH  18  25
ATOM     24  C   UNL     1      -0.219  12.058  18.735  0.00  0.00    +0.000 C 
ATOM     25  O   UNL     1       1.067  11.480  18.541  0.00  0.00    +0.000 OA
ENDBRANCH  18  25
ENDBRANCH  17  21
ENDBRANCH   1  17
TORSDOF 5
ENDMDL
MODEL 8
REMARK VINA RESULT:      -7.1      2.534      3.363
REMARK  Name = 
REMARK  6 active torsions:
REMARK  status: ('A' for Active; 'I' for Inactive)
REMARK    1  A    between atoms: C_1  and  O_2
REMARK    2  A    between atoms: O_2  and  C_3
REMARK    3  A    between atoms: C_6  and  C_7
REMARK    4  A    between atoms: C_7  and  C_8
REMARK    5  A    between atoms: N_12  and  S_13
REMARK    6  A    between atoms: S_13  and  C_16
REMARK                            x       y       z     vdW  Elec       q    Type
REMARK                         _______ _______ _______ _____ _____    ______ ____
ROOT
ATOM      1  C   UNL     1       2.567   4.937  19.402  0.00  0.00    +0.000 A 
ATOM      2  N   UNL     1       1.936   4.330  18.414  0.00  0.00    +0.000 NA
ATOM      3  N   UNL     1       2.805   3.678  17.563  0.00  0.00    +0.000 NA
ATOM      4  C   UNL     1       4.055   3.879  17.904  0.00  0.00    +0.000 A 
ATOM      5  N   UNL     1       5.101   3.270  17.160  0.00  0.00    +0.000 N 
ATOM      6  S   UNL     1       4.278   4.737  19.363  0.00  0.00    +0.000 S 
ATOM      7  H   UNL     1       4.695   2.496  16.633  0.00  0.00    +0.000 HD
ENDROOT
BRANCH   5   8
ATOM      8  S   UNL     1       5.782   4.359  16.054  0.00  0.00    +0.000 S 
ATOM      9  O   UNL     1       6.711   3.686  15.169  0.00  0.00    +0.000 OA
ATOM     10  O   UNL     1       4.683   5.143  15.518  0.00  0.00    +0.000 OA
BRANCH   8  11
ATOM     11  C   UNL     1       6.717   5.460  17.107  0.00  0.00    +0.000 A 
ATOM     12  C   UNL     1       7.462   4.945  18.173  0.00  0.00    +0.000 A 
ATOM     13  C   UNL     1       8.214   5.813  18.969  0.00  0.00    +0.000 A 
ATOM     14  C   UNL     1       8.228   7.181  18.694  0.00  0.00    +0.000 A 
ATOM     15  C   UNL     1       7.506   7.688  17.614  0.00  0.00    +0.000 A 
ATOM     16  C   UNL     1       6.750   6.828  16.812  0.00  0.00    +0.000 A 
ENDBRANCH   8  11
ENDBRANCH   5   8
BRANCH   1  17
ATOM     17  C   UNL     1       1.901   5.733  20.481  0.00  0.00    +0.000 C 
BRANCH  17  21
ATOM     18  C   UNL     1       1.235   9.867  19.377  0.00  0.00    +0.000 A 
ATOM     19  C   UNL     1       1.807   8.976  18.469  0.00  0.00    +0.000 A 
ATOM     20  C   UNL     1       2.013   7.640  18.821  0.00  0.00    +0.000 A 
ATOM     21  C   UNL     1       1.679   7.182  20.102  0.00  0.00    +0.000 A 
ATOM     22  C   UNL     1       1.126   8.089  21.018  0.00  0.00    +0.000 A 
ATOM     23  C   UNL     1       0.907   9.423  20.658  0.00  0.00    +0.000 A 
BRANCH  18  25
ATOM     24  C   UNL     1      -0.266  11.569  18.720  0.00  0.00    +0.000 C 
ATOM     25  O   UNL     1       1.078  11.144  18.916  0.00  0.00    +0.000 OA
ENDBRANCH  18  25
ENDBRANCH  17  21
ENDBRANCH   1  17
TORSDOF 5
ENDMDL
MODEL 9
REMARK VINA RESULT:      -7.1      2.539      3.245
REMARK  Name = 
REMARK  6 active torsions:
REMARK  status: ('A' for Active; 'I' for Inactive)
REMARK    1  A    between atoms: C_1  and  O_2
REMARK    2  A    between atoms: O_2  and  C_3
REMARK    3  A    between atoms: C_6  and  C_7
REMARK    4  A    between atoms: C_7  and  C_8
REMARK    5  A    between atoms: N_12  and  S_13
REMARK    6  A    between atoms: S_13  and  C_16
REMARK                            x       y       z     vdW  Elec       q    Type
REMARK                         _______ _______ _______ _____ _____    ______ ____
ROOT
ATOM      1  C   UNL     1       2.609   5.237  19.315  0.00  0.00    +0.000 A 
ATOM      2  N   UNL     1       1.951   4.695  18.307  0.00  0.00    +0.000 NA
ATOM      3  N   UNL     1       2.783   3.988  17.462  0.00  0.00    +0.000 NA
ATOM      4  C   UNL     1       4.038   4.087  17.828  0.00  0.00    +0.000 A 
ATOM      5  N   UNL     1       5.047   3.409  17.093  0.00  0.00    +0.000 N 
ATOM      6  S   UNL     1       4.299   4.906  19.303  0.00  0.00    +0.000 S 
ATOM      7  H   UNL     1       4.592   2.675  16.548  0.00  0.00    +0.000 HD
ENDROOT
BRANCH   5   8
ATOM      8  S   UNL     1       5.831   4.456  16.016  0.00  0.00    +0.000 S 
ATOM      9  O   UNL     1       6.766   3.732  15.178  0.00  0.00    +0.000 OA
ATOM     10  O   UNL     1       4.798   5.288  15.425  0.00  0.00    +0.000 OA
BRANCH   8  11
ATOM     11  C   UNL     1       6.768   5.517  17.106  0.00  0.00    +0.000 A 
ATOM     12  C   UNL     1       7.470   4.969  18.185  0.00  0.00    +0.000 A 
ATOM     13  C   UNL     1       8.225   5.806  19.011  0.00  0.00    +0.000 A 
ATOM     14  C   UNL     1       8.285   7.176  18.753  0.00  0.00    +0.000 A 
ATOM     15  C   UNL     1       7.606   7.715  17.661  0.00  0.00    +0.000 A 
ATOM     16  C   UNL     1       6.848   6.887  16.829  0.00  0.00    +0.000 A 
ENDBRANCH   8  11
ENDBRANCH   5   8
BRANCH   1  17
ATOM     17  C   UNL     1       1.987   6.069  20.394  0.00  0.00    +0.000 C 
BRANCH  17  21
ATOM     18  C   UNL     1       1.196  10.148  19.175  0.00  0.00    +0.000 A 
ATOM     19  C   UNL     1       0.810   9.700  20.439  0.00  0.00    +0.000 A 
ATOM     20  C   UNL     1       1.073   8.387  20.835  0.00  0.00    +0.000 A 
ATOM     21  C   UNL     1       1.700   7.491  19.960  0.00  0.00    +0.000 A 
ATOM     22  C   UNL     1       2.064   7.941  18.682  0.00  0.00    +0.000 A 
ATOM     23  C   UNL     1       1.812   9.261  18.292  0.00  0.00    +0.000 A 
BRANCH  18  25
ATOM     24  C   UNL     1      -0.483  11.723  18.644  0.00  0.00    +0.000 C 
ATOM     25  O   UNL     1       0.890  11.452  18.903  0.00  0.00    +0.000 OA
ENDBRANCH  18  25
ENDBRANCH  17  21
ENDBRANCH   1  17
TORSDOF 5
ENDMDL
