MODEL 1
REMARK VINA RESULT:      -7.4      0.000      0.000
REMARK  Name = 
REMARK  4 active torsions:
REMARK  status: ('A' for Active; 'I' for Inactive)
REMARK    1  A    between atoms: C_1  and  N_2
REMARK    2  A    between atoms: C_11  and  C_12
REMARK    3  A    between atoms: C_12  and  C_14
REMARK    4  A    between atoms: C_19  and  N_20
REMARK                            x       y       z     vdW  Elec       q    Type
REMARK                         _______ _______ _______ _____ _____    ______ ____
ROOT
ATOM      1  C   UNL     1      -1.531  11.207  23.228  0.00  0.00    +0.000 C 
ATOM      2  N   UNL     1      -0.196  11.147  22.635  0.00  0.00    +0.000 NA
ATOM      3  C   UNL     1      -0.046  12.182  21.607  0.00  0.00    +0.000 C 
ATOM      4  C   UNL     1       1.179  12.037  20.707  0.00  0.00    +0.000 C 
ATOM      5  C   UNL     1       0.910  11.178  19.471  0.00  0.00    +0.000 C 
ATOM      6  N   UNL     1       0.727   9.760  19.769  0.00  0.00    +0.000 N 
ATOM      7  C   UNL     1       1.555   8.781  19.243  0.00  0.00    +0.000 A 
ATOM      8  C   UNL     1       2.228   8.960  18.031  0.00  0.00    +0.000 A 
ATOM      9  C   UNL     1       3.052   7.960  17.512  0.00  0.00    +0.000 A 
ATOM     10  C   UNL     1       3.188   6.773  18.207  0.00  0.00    +0.000 A 
ATOM     11  C   UNL     1       2.473   6.635  19.384  0.00  0.00    +0.000 A 
ATOM     12  N   UNL     1       1.673   7.606  19.901  0.00  0.00    +0.000 NA
ATOM     13  C   UNL     1      -0.268   9.373  20.780  0.00  0.00    +0.000 C 
ATOM     14  C   UNL     1       0.156   9.777  22.205  0.00  0.00    +0.000 C 
ENDROOT
BRANCH  11  15
ATOM     15  C   UNL     1       2.536   5.334  20.113  0.00  0.00    +0.000 C 
ATOM     16  O   UNL     1       2.514   5.316  21.344  0.00  0.00    +0.000 OA
BRANCH  15  17
ATOM     17  C   UNL     1       2.704   4.062  19.369  0.00  0.00    +0.000 A 
ATOM     18  C   UNL     1       1.602   3.417  18.792  0.00  0.00    +0.000 A 
ATOM     19  C   UNL     1       1.787   2.247  18.074  0.00  0.00    +0.000 A 
ATOM     20  C   UNL     1       3.079   1.777  17.926  0.00  0.00    +0.000 A 
ATOM     21  N   UNL     1       4.168   2.394  18.433  0.00  0.00    +0.000 NA
ATOM     22  C   UNL     1       3.977   3.530  19.140  0.00  0.00    +0.000 A 
BRANCH  22  23
ATOM     23  N   UNL     1       5.135   4.076  19.690  0.00  0.00    +0.000 N 
ATOM     24  H   UNL     1       5.894   3.418  19.555  0.00  0.00    +0.000 HD
ATOM     25  H   UNL     1       5.317   5.006  19.313  0.00  0.00    +0.000 HD
ENDBRANCH  22  23
ENDBRANCH  15  17
ENDBRANCH  11  15
TORSDOF 3
ENDMDL
MODEL 2
REMARK VINA RESULT:      -7.4      1.105      1.399
REMARK  Name = 
REMARK  4 active torsions:
REMARK  status: ('A' for Active; 'I' for Inactive)
REMARK    1  A    between atoms: C_1  and  N_2
REMARK    2  A    between atoms: C_11  and  C_12
REMARK    3  A    between atoms: C_12  and  C_14
REMARK    4  A    between atoms: C_19  and  N_20
REMARK                            x       y       z     vdW  Elec       q    Type
REMARK                         _______ _______ _______ _____ _____    ______ ____
ROOT
ATOM      1  C   UNL     1      -1.506  11.563  23.115  0.00  0.00    +0.000 C 
ATOM      2  N   UNL     1      -0.169  11.448  22.534  0.00  0.00    +0.000 NA
ATOM      3  C   UNL     1       0.030  12.473  21.504  0.00  0.00    +0.000 C 
ATOM      4  C   UNL     1       1.255  12.276  20.614  0.00  0.00    +0.000 C 
ATOM      5  C   UNL     1       0.962  11.424  19.379  0.00  0.00    +0.000 C 
ATOM      6  N   UNL     1       0.721  10.015  19.680  0.00  0.00    +0.000 N 
ATOM      7  C   UNL     1       1.513   9.002  19.164  0.00  0.00    +0.000 A 
ATOM      8  C   UNL     1       2.202   9.150  17.957  0.00  0.00    +0.000 A 
ATOM      9  C   UNL     1       2.990   8.116  17.448  0.00  0.00    +0.000 A 
ATOM     10  C   UNL     1       3.073   6.928  18.148  0.00  0.00    +0.000 A 
ATOM     11  C   UNL     1       2.343   6.822  19.319  0.00  0.00    +0.000 A 
ATOM     12  N   UNL     1       1.579   7.826  19.826  0.00  0.00    +0.000 NA
ATOM     13  C   UNL     1      -0.297   9.671  20.684  0.00  0.00    +0.000 C 
ATOM     14  C   UNL     1       0.131  10.064  22.111  0.00  0.00    +0.000 C 
ENDROOT
BRANCH  11  15
ATOM     15  C   UNL     1       2.349   5.523  20.052  0.00  0.00    +0.000 C 
ATOM     16  O   UNL     1       2.266   5.508  21.281  0.00  0.00    +0.000 OA
BRANCH  15  17
ATOM     17  C   UNL     1       2.533   4.245  19.321  0.00  0.00    +0.000 A 
ATOM     18  C   UNL     1       3.666   4.033  18.523  0.00  0.00    +0.000 A 
ATOM     19  C   UNL     1       3.833   2.819  17.875  0.00  0.00    +0.000 A 
ATOM     20  C   UNL     1       2.876   1.841  18.076  0.00  0.00    +0.000 A 
ATOM     21  N   UNL     1       1.794   1.998  18.870  0.00  0.00    +0.000 NA
ATOM     22  C   UNL     1       1.635   3.188  19.490  0.00  0.00    +0.000 A 
BRANCH  22  23
ATOM     23  N   UNL     1       0.464   3.303  20.238  0.00  0.00    +0.000 N 
ATOM     24  H   UNL     1      -0.324   3.118  19.627  0.00  0.00    +0.000 HD
ATOM     25  H   UNL     1       0.499   2.709  21.066  0.00  0.00    +0.000 HD
ENDBRANCH  22  23
ENDBRANCH  15  17
ENDBRANCH  11  15
TORSDOF 3
ENDMDL
MODEL 3
REMARK VINA RESULT:      -7.1      1.245      1.477
REMARK  Name = 
REMARK  4 active torsions:
REMARK  status: ('A' for Active; 'I' for Inactive)
REMARK    1  A    between atoms: C_1  and  N_2
REMARK    2  A    between atoms: C_11  and  C_12
REMARK    3  A    between atoms: C_12  and  C_14
REMARK    4  A    between atoms: C_19  and  N_20
REMARK                            x       y       z     vdW  Elec       q    Type
REMARK                         _______ _______ _______ _____ _____    ______ ____
ROOT
ATOM      1  C   UNL     1      -0.814  10.107  23.463  0.00  0.00    +0.000 C 
ATOM      2  N   UNL     1       0.374  10.352  22.646  0.00  0.00    +0.000 NA
ATOM      3  C   UNL     1       0.097  11.380  21.638  0.00  0.00    +0.000 C 
ATOM      4  C   UNL     1       1.145  11.513  20.534  0.00  0.00    +0.000 C 
ATOM      5  C   UNL     1       0.869  10.598  19.340  0.00  0.00    +0.000 C 
ATOM      6  N   UNL     1       1.075   9.181  19.625  0.00  0.00    +0.000 N 
ATOM      7  C   UNL     1       2.001   8.415  18.935  0.00  0.00    +0.000 A 
ATOM      8  C   UNL     1       2.391   8.729  17.631  0.00  0.00    +0.000 A 
ATOM      9  C   UNL     1       3.320   7.943  16.948  0.00  0.00    +0.000 A 
ATOM     10  C   UNL     1       3.847   6.829  17.575  0.00  0.00    +0.000 A 
ATOM     11  C   UNL     1       3.401   6.544  18.854  0.00  0.00    +0.000 A 
ATOM     12  N   UNL     1       2.502   7.308  19.529  0.00  0.00    +0.000 NA
ATOM     13  C   UNL     1       0.390   8.585  20.782  0.00  0.00    +0.000 C 
ATOM     14  C   UNL     1       0.952   9.096  22.122  0.00  0.00    +0.000 C 
ENDROOT
BRANCH  11  15
ATOM     15  C   UNL     1       3.891   5.303  19.523  0.00  0.00    +0.000 C 
ATOM     16  O   UNL     1       5.065   5.221  19.885  0.00  0.00    +0.000 OA
BRANCH  15  17
ATOM     17  C   UNL     1       2.996   4.132  19.689  0.00  0.00    +0.000 A 
ATOM     18  C   UNL     1       1.884   4.194  20.539  0.00  0.00    +0.000 A 
ATOM     19  C   UNL     1       1.042   3.099  20.653  0.00  0.00    +0.000 A 
ATOM     20  C   UNL     1       1.322   1.986  19.882  0.00  0.00    +0.000 A 
ATOM     21  N   UNL     1       2.360   1.907  19.022  0.00  0.00    +0.000 NA
ATOM     22  C   UNL     1       3.181   2.976  18.925  0.00  0.00    +0.000 A 
BRANCH  22  23
ATOM     23  N   UNL     1       4.268   2.800  18.071  0.00  0.00    +0.000 N 
ATOM     24  H   UNL     1       5.109   2.733  18.633  0.00  0.00    +0.000 HD
ATOM     25  H   UNL     1       4.119   2.008  17.447  0.00  0.00    +0.000 HD
ENDBRANCH  22  23
ENDBRANCH  15  17
ENDBRANCH  11  15
TORSDOF 3
ENDMDL
MODEL 4
REMARK VINA RESULT:      -7.1      2.828      7.756
REMARK  Name = 
REMARK  4 active torsions:
REMARK  status: ('A' for Active; 'I' for Inactive)
REMARK    1  A    between atoms: C_1  and  N_2
REMARK    2  A    between atoms: C_11  and  C_12
REMARK    3  A    between atoms: C_12  and  C_14
REMARK    4  A    between atoms: C_19  and  N_20
REMARK                            x       y       z     vdW  Elec       q    Type
REMARK                         _______ _______ _______ _____ _____    ______ ____
ROOT
ATOM      1  C   UNL     1       6.806   5.134  15.487  0.00  0.00    +0.000 C 
ATOM      2  N   UNL     1       6.588   5.715  16.811  0.00  0.00    +0.000 NA
ATOM      3  C   UNL     1       6.599   4.667  17.837  0.00  0.00    +0.000 C 
ATOM      4  C   UNL     1       6.086   5.091  19.211  0.00  0.00    +0.000 C 
ATOM      5  C   UNL     1       4.577   4.902  19.366  0.00  0.00    +0.000 C 
ATOM      6  N   UNL     1       3.782   5.836  18.573  0.00  0.00    +0.000 N 
ATOM      7  C   UNL     1       2.890   6.724  19.151  0.00  0.00    +0.000 A 
ATOM      8  C   UNL     1       2.279   6.458  20.380  0.00  0.00    +0.000 A 
ATOM      9  C   UNL     1       1.377   7.362  20.944  0.00  0.00    +0.000 A 
ATOM     10  C   UNL     1       1.078   8.527  20.264  0.00  0.00    +0.000 A 
ATOM     11  C   UNL     1       1.685   8.725  19.035  0.00  0.00    +0.000 A 
ATOM     12  N   UNL     1       2.570   7.854  18.481  0.00  0.00    +0.000 NA
ATOM     13  C   UNL     1       4.050   5.944  17.131  0.00  0.00    +0.000 C 
ATOM     14  C   UNL     1       5.409   6.607  16.836  0.00  0.00    +0.000 C 
ENDROOT
BRANCH  11  15
ATOM     15  C   UNL     1       1.319   9.934  18.242  0.00  0.00    +0.000 C 
ATOM     16  O   UNL     1       2.180  10.530  17.594  0.00  0.00    +0.000 OA
BRANCH  15  17
ATOM     17  C   UNL     1      -0.062  10.475  18.286  0.00  0.00    +0.000 A 
ATOM     18  C   UNL     1      -1.107   9.828  17.615  0.00  0.00    +0.000 A 
ATOM     19  C   UNL     1      -2.396  10.333  17.697  0.00  0.00    +0.000 A 
ATOM     20  C   UNL     1      -2.602  11.453  18.481  0.00  0.00    +0.000 A 
ATOM     21  N   UNL     1      -1.625  12.078  19.175  0.00  0.00    +0.000 NA
ATOM     22  C   UNL     1      -0.370  11.584  19.081  0.00  0.00    +0.000 A 
BRANCH  22  23
ATOM     23  N   UNL     1       0.597  12.316  19.766  0.00  0.00    +0.000 N 
ATOM     24  H   UNL     1       0.258  13.265  19.879  0.00  0.00    +0.000 HD
ATOM     25  H   UNL     1       0.852  11.857  20.640  0.00  0.00    +0.000 HD
ENDBRANCH  22  23
ENDBRANCH  15  17
ENDBRANCH  11  15
TORSDOF 3
ENDMDL
MODEL 5
REMARK VINA RESULT:      -7.1      2.773      7.944
REMARK  Name = 
REMARK  4 active torsions:
REMARK  status: ('A' for Active; 'I' for Inactive)
REMARK    1  A    between atoms: C_1  and  N_2
REMARK    2  A    between atoms: C_11  and  C_12
REMARK    3  A    between atoms: C_12  and  C_14
REMARK    4  A    between atoms: C_19  and  N_20
REMARK                            x       y       z     vdW  Elec       q    Type
REMARK                         _______ _______ _______ _____ _____    ______ ____
ROOT
ATOM      1  C   UNL     1       7.199   5.220  14.521  0.00  0.00    +0.000 C 
ATOM      2  N   UNL     1       7.063   5.596  15.928  0.00  0.00    +0.000 NA
ATOM      3  C   UNL     1       7.247   4.424  16.790  0.00  0.00    +0.000 C 
ATOM      4  C   UNL     1       6.834   4.613  18.248  0.00  0.00    +0.000 C 
ATOM      5  C   UNL     1       5.363   4.276  18.497  0.00  0.00    +0.000 C 
ATOM      6  N   UNL     1       4.432   5.236  17.912  0.00  0.00    +0.000 N 
ATOM      7  C   UNL     1       3.534   5.959  18.682  0.00  0.00    +0.000 A 
ATOM      8  C   UNL     1       3.061   5.478  19.906  0.00  0.00    +0.000 A 
ATOM      9  C   UNL     1       2.151   6.216  20.665  0.00  0.00    +0.000 A 
ATOM     10  C   UNL     1       1.706   7.433  20.184  0.00  0.00    +0.000 A 
ATOM     11  C   UNL     1       2.180   7.846  18.950  0.00  0.00    +0.000 A 
ATOM     12  N   UNL     1       3.071   7.137  18.208  0.00  0.00    +0.000 NA
ATOM     13  C   UNL     1       4.556   5.561  16.484  0.00  0.00    +0.000 C 
ATOM     14  C   UNL     1       5.829   6.372  16.175  0.00  0.00    +0.000 C 
ENDROOT
BRANCH  11  15
ATOM     15  C   UNL     1       1.653   9.115  18.370  0.00  0.00    +0.000 C 
ATOM     16  O   UNL     1       2.067   9.512  17.280  0.00  0.00    +0.000 OA
BRANCH  15  17
ATOM     17  C   UNL     1       0.690   9.949  19.129  0.00  0.00    +0.000 A 
ATOM     18  C   UNL     1       1.012  10.438  20.402  0.00  0.00    +0.000 A 
ATOM     19  C   UNL     1       0.110  11.243  21.080  0.00  0.00    +0.000 A 
ATOM     20  C   UNL     1      -1.075  11.563  20.443  0.00  0.00    +0.000 A 
ATOM     21  N   UNL     1      -1.400  11.144  19.200  0.00  0.00    +0.000 NA
ATOM     22  C   UNL     1      -0.518  10.352  18.551  0.00  0.00    +0.000 A 
BRANCH  22  23
ATOM     23  N   UNL     1      -0.947   9.902  17.304  0.00  0.00    +0.000 N 
ATOM     24  H   UNL     1      -0.802   8.900  17.259  0.00  0.00    +0.000 HD
ATOM     25  H   UNL     1      -1.906  10.194  17.120  0.00  0.00    +0.000 HD
ENDBRANCH  22  23
ENDBRANCH  15  17
ENDBRANCH  11  15
TORSDOF 3
ENDMDL
MODEL 6
REMARK VINA RESULT:      -6.8      4.482      6.711
REMARK  Name = 
REMARK  4 active torsions:
REMARK  status: ('A' for Active; 'I' for Inactive)
REMARK    1  A    between atoms: C_1  and  N_2
REMARK    2  A    between atoms: C_11  and  C_12
REMARK    3  A    between atoms: C_12  and  C_14
REMARK    4  A    between atoms: C_19  and  N_20
REMARK                            x       y       z     vdW  Elec       q    Type
REMARK                         _______ _______ _______ _____ _____    ______ ____
ROOT
ATOM      1  C   UNL     1       0.657   1.662  18.983  0.00  0.00    +0.000 C 
ATOM      2  N   UNL     1       1.668   2.592  19.484  0.00  0.00    +0.000 NA
ATOM      3  C   UNL     1       1.030   3.789  20.043  0.00  0.00    +0.000 C 
ATOM      4  C   UNL     1       1.968   4.962  20.319  0.00  0.00    +0.000 C 
ATOM      5  C   UNL     1       2.126   5.892  19.117  0.00  0.00    +0.000 C 
ATOM      6  N   UNL     1       2.881   5.305  18.013  0.00  0.00    +0.000 N 
ATOM      7  C   UNL     1       4.061   5.862  17.545  0.00  0.00    +0.000 A 
ATOM      8  C   UNL     1       4.330   7.227  17.671  0.00  0.00    +0.000 A 
ATOM      9  C   UNL     1       5.521   7.772  17.187  0.00  0.00    +0.000 A 
ATOM     10  C   UNL     1       6.434   6.944  16.562  0.00  0.00    +0.000 A 
ATOM     11  C   UNL     1       6.102   5.606  16.434  0.00  0.00    +0.000 A 
ATOM     12  N   UNL     1       4.948   5.065  16.909  0.00  0.00    +0.000 NA
ATOM     13  C   UNL     1       2.461   3.998  17.486  0.00  0.00    +0.000 C 
ATOM     14  C   UNL     1       2.723   2.852  18.482  0.00  0.00    +0.000 C 
ENDROOT
BRANCH  11  15
ATOM     15  C   UNL     1       7.033   4.705  15.693  0.00  0.00    +0.000 C 
ATOM     16  O   UNL     1       8.038   4.265  16.250  0.00  0.00    +0.000 OA
BRANCH  15  17
ATOM     17  C   UNL     1       6.800   4.395  14.261  0.00  0.00    +0.000 A 
ATOM     18  C   UNL     1       5.739   3.568  13.870  0.00  0.00    +0.000 A 
ATOM     19  C   UNL     1       5.521   3.318  12.524  0.00  0.00    +0.000 A 
ATOM     20  C   UNL     1       6.353   3.935  11.609  0.00  0.00    +0.000 A 
ATOM     21  N   UNL     1       7.359   4.771  11.949  0.00  0.00    +0.000 NA
ATOM     22  C   UNL     1       7.570   5.001  13.264  0.00  0.00    +0.000 A 
BRANCH  22  23
ATOM     23  N   UNL     1       8.664   5.817  13.544  0.00  0.00    +0.000 N 
ATOM     24  H   UNL     1       8.707   6.546  12.840  0.00  0.00    +0.000 HD
ATOM     25  H   UNL     1       8.627   6.163  14.502  0.00  0.00    +0.000 HD
ENDBRANCH  22  23
ENDBRANCH  15  17
ENDBRANCH  11  15
TORSDOF 3
ENDMDL
MODEL 7
REMARK VINA RESULT:      -6.8      2.382      7.321
REMARK  Name = 
REMARK  4 active torsions:
REMARK  status: ('A' for Active; 'I' for Inactive)
REMARK    1  A    between atoms: C_1  and  N_2
REMARK    2  A    between atoms: C_11  and  C_12
REMARK    3  A    between atoms: C_12  and  C_14
REMARK    4  A    between atoms: C_19  and  N_20
REMARK                            x       y       z     vdW  Elec       q    Type
REMARK                         _______ _______ _______ _____ _____    ______ ____
ROOT
ATOM      1  C   UNL     1       1.628   2.447  21.505  0.00  0.00    +0.000 C 
ATOM      2  N   UNL     1       1.322   3.183  20.279  0.00  0.00    +0.000 NA
ATOM      3  C   UNL     1       2.304   2.869  19.236  0.00  0.00    +0.000 C 
ATOM      4  C   UNL     1       2.281   3.790  18.018  0.00  0.00    +0.000 C 
ATOM      5  C   UNL     1       3.190   5.009  18.179  0.00  0.00    +0.000 C 
ATOM      6  N   UNL     1       2.704   5.980  19.156  0.00  0.00    +0.000 N 
ATOM      7  C   UNL     1       2.404   7.288  18.813  0.00  0.00    +0.000 A 
ATOM      8  C   UNL     1       3.020   7.925  17.732  0.00  0.00    +0.000 A 
ATOM      9  C   UNL     1       2.711   9.247  17.405  0.00  0.00    +0.000 A 
ATOM     10  C   UNL     1       1.792   9.932  18.177  0.00  0.00    +0.000 A 
ATOM     11  C   UNL     1       1.237   9.265  19.256  0.00  0.00    +0.000 A 
ATOM     12  N   UNL     1       1.527   7.976  19.577  0.00  0.00    +0.000 NA
ATOM     13  C   UNL     1       2.377   5.514  20.512  0.00  0.00    +0.000 C 
ATOM     14  C   UNL     1       1.119   4.625  20.538  0.00  0.00    +0.000 C 
ENDROOT
BRANCH  11  15
ATOM     15  C   UNL     1       0.304  10.007  20.153  0.00  0.00    +0.000 C 
ATOM     16  O   UNL     1       0.492  10.011  21.370  0.00  0.00    +0.000 OA
BRANCH  15  17
ATOM     17  C   UNL     1      -0.898  10.678  19.601  0.00  0.00    +0.000 A 
ATOM     18  C   UNL     1      -1.628  10.097  18.556  0.00  0.00    +0.000 A 
ATOM     19  C   UNL     1      -2.767  10.725  18.078  0.00  0.00    +0.000 A 
ATOM     20  C   UNL     1      -3.160  11.902  18.689  0.00  0.00    +0.000 A 
ATOM     21  N   UNL     1      -2.505  12.469  19.726  0.00  0.00    +0.000 NA
ATOM     22  C   UNL     1      -1.390  11.853  20.178  0.00  0.00    +0.000 A 
BRANCH  22  23
ATOM     23  N   UNL     1      -0.727  12.527  21.202  0.00  0.00    +0.000 N 
ATOM     24  H   UNL     1       0.269  12.371  21.096  0.00  0.00    +0.000 HD
ATOM     25  H   UNL     1      -0.995  13.510  21.227  0.00  0.00    +0.000 HD
ENDBRANCH  22  23
ENDBRANCH  15  17
ENDBRANCH  11  15
TORSDOF 3
ENDMDL
MODEL 8
REMARK VINA RESULT:      -6.7      2.373      3.987
REMARK  Name = 
REMARK  4 active torsions:
REMARK  status: ('A' for Active; 'I' for Inactive)
REMARK    1  A    between atoms: C_1  and  N_2
REMARK    2  A    between atoms: C_11  and  C_12
REMARK    3  A    between atoms: C_12  and  C_14
REMARK    4  A    between atoms: C_19  and  N_20
REMARK                            x       y       z     vdW  Elec       q    Type
REMARK                         _______ _______ _______ _____ _____    ______ ____
ROOT
ATOM      1  C   UNL     1       2.304  11.404  17.882  0.00  0.00    +0.000 C 
ATOM      2  N   UNL     1       1.400  10.304  18.212  0.00  0.00    +0.000 NA
ATOM      3  C   UNL     1       0.882  10.459  19.576  0.00  0.00    +0.000 C 
ATOM      4  C   UNL     1       0.175   9.234  20.151  0.00  0.00    +0.000 C 
ATOM      5  C   UNL     1       1.129   8.281  20.871  0.00  0.00    +0.000 C 
ATOM      6  N   UNL     1       2.037   7.570  19.975  0.00  0.00    +0.000 N 
ATOM      7  C   UNL     1       2.054   6.187  19.884  0.00  0.00    +0.000 A 
ATOM      8  C   UNL     1       1.656   5.374  20.949  0.00  0.00    +0.000 A 
ATOM      9  C   UNL     1       1.686   3.983  20.842  0.00  0.00    +0.000 A 
ATOM     10  C   UNL     1       2.131   3.409  19.666  0.00  0.00    +0.000 A 
ATOM     11  C   UNL     1       2.546   4.259  18.656  0.00  0.00    +0.000 A 
ATOM     12  N   UNL     1       2.513   5.616  18.748  0.00  0.00    +0.000 NA
ATOM     13  C   UNL     1       2.850   8.348  19.029  0.00  0.00    +0.000 C 
ATOM     14  C   UNL     1       2.001   8.986  17.914  0.00  0.00    +0.000 C 
ENDROOT
BRANCH  11  15
ATOM     15  C   UNL     1       3.107   3.667  17.407  0.00  0.00    +0.000 C 
ATOM     16  O   UNL     1       2.483   2.792  16.805  0.00  0.00    +0.000 OA
BRANCH  15  17
ATOM     17  C   UNL     1       4.451   4.065  16.921  0.00  0.00    +0.000 A 
ATOM     18  C   UNL     1       4.634   4.517  15.607  0.00  0.00    +0.000 A 
ATOM     19  C   UNL     1       5.892   4.916  15.185  0.00  0.00    +0.000 A 
ATOM     20  C   UNL     1       6.923   4.883  16.106  0.00  0.00    +0.000 A 
ATOM     21  N   UNL     1       6.774   4.493  17.391  0.00  0.00    +0.000 NA
ATOM     22  C   UNL     1       5.545   4.097  17.791  0.00  0.00    +0.000 A 
BRANCH  22  23
ATOM     23  N   UNL     1       5.479   3.644  19.107  0.00  0.00    +0.000 N 
ATOM     24  H   UNL     1       4.615   3.981  19.517  0.00  0.00    +0.000 HD
ATOM     25  H   UNL     1       5.596   2.633  19.153  0.00  0.00    +0.000 HD
ENDBRANCH  22  23
ENDBRANCH  15  17
ENDBRANCH  11  15
TORSDOF 3
ENDMDL
MODEL 9
REMARK VINA RESULT:      -6.7      1.847      7.448
REMARK  Name = 
REMARK  4 active torsions:
REMARK  status: ('A' for Active; 'I' for Inactive)
REMARK    1  A    between atoms: C_1  and  N_2
REMARK    2  A    between atoms: C_11  and  C_12
REMARK    3  A    between atoms: C_12  and  C_14
REMARK    4  A    between atoms: C_19  and  N_20
REMARK                            x       y       z     vdW  Elec       q    Type
REMARK                         _______ _______ _______ _____ _____    ______ ____
ROOT
ATOM      1  C   UNL     1       2.366   2.262  21.353  0.00  0.00    +0.000 C 
ATOM      2  N   UNL     1       1.568   3.131  20.488  0.00  0.00    +0.000 NA
ATOM      3  C   UNL     1       1.916   2.909  19.081  0.00  0.00    +0.000 C 
ATOM      4  C   UNL     1       1.383   3.955  18.103  0.00  0.00    +0.000 C 
ATOM      5  C   UNL     1       2.340   5.132  17.913  0.00  0.00    +0.000 C 
ATOM      6  N   UNL     1       2.442   6.003  19.082  0.00  0.00    +0.000 N 
ATOM      7  C   UNL     1       2.105   7.346  19.035  0.00  0.00    +0.000 A 
ATOM      8  C   UNL     1       2.178   8.082  17.849  0.00  0.00    +0.000 A 
ATOM      9  C   UNL     1       1.841   9.437  17.822  0.00  0.00    +0.000 A 
ATOM     10  C   UNL     1       1.445  10.054  18.993  0.00  0.00    +0.000 A 
ATOM     11  C   UNL     1       1.423   9.287  20.145  0.00  0.00    +0.000 A 
ATOM     12  N   UNL     1       1.742   7.966  20.180  0.00  0.00    +0.000 NA
ATOM     13  C   UNL     1       2.763   5.402  20.384  0.00  0.00    +0.000 C 
ATOM     14  C   UNL     1       1.609   4.540  20.933  0.00  0.00    +0.000 C 
ENDROOT
BRANCH  11  15
ATOM     15  C   UNL     1       1.077   9.947  21.438  0.00  0.00    +0.000 C 
ATOM     16  O   UNL     1       1.644   9.605  22.476  0.00  0.00    +0.000 OA
BRANCH  15  17
ATOM     17  C   UNL     1      -0.002  10.963  21.501  0.00  0.00    +0.000 A 
ATOM     18  C   UNL     1      -0.082  11.984  20.545  0.00  0.00    +0.000 A 
ATOM     19  C   UNL     1      -1.119  12.903  20.604  0.00  0.00    +0.000 A 
ATOM     20  C   UNL     1      -2.064  12.747  21.601  0.00  0.00    +0.000 A 
ATOM     21  N   UNL     1      -2.040  11.751  22.514  0.00  0.00    +0.000 NA
ATOM     22  C   UNL     1      -1.021  10.866  22.454  0.00  0.00    +0.000 A 
BRANCH  22  23
ATOM     23  N   UNL     1      -1.022   9.907  23.464  0.00  0.00    +0.000 N 
ATOM     24  H   UNL     1      -1.301  10.355  24.330  0.00  0.00    +0.000 HD
ATOM     25  H   UNL     1      -1.596   9.104  23.207  0.00  0.00    +0.000 HD
ENDBRANCH  22  23
ENDBRANCH  15  17
ENDBRANCH  11  15
TORSDOF 3
ENDMDL
