MODEL 1
REMARK VINA RESULT:      -6.8      0.000      0.000
REMARK  Name = 
REMARK  10 active torsions:
REMARK  status: ('A' for Active; 'I' for Inactive)
REMARK    1  A    between atoms: C_1  and  C_2
REMARK    2  A    between atoms: N_4  and  C_5
REMARK    3  A    between atoms: C_6  and  N_7
REMARK    4  A    between atoms: N_7  and  C_8
REMARK    5  A    between atoms: N_7  and  C_9
REMARK    6  A    between atoms: C_10  and  C_11
REMARK    7  A    between atoms: C_11  and  N_12
REMARK    8  A    between atoms: N_12  and  C_13
REMARK    9  A    between atoms: C_13  and  C_14
REMARK   10  A    between atoms: C_13  and  C_15
REMARK                            x       y       z     vdW  Elec       q    Type
REMARK                         _______ _______ _______ _____ _____    ______ ____
ROOT
ATOM      1  C   UNL     1       4.032   4.149  16.499  0.00  0.00    +0.000 C 
ENDROOT
BRANCH   1   8
ATOM      2  C   UNL     1       3.828   7.315  17.521  0.00  0.00    +0.000 C 
ATOM      3  C   UNL     1       3.495   6.062  18.246  0.00  0.00    +0.000 A 
ATOM      4  N   UNL     1       3.068   6.163  19.503  0.00  0.00    +0.000 NA
ATOM      5  N   UNL     1       2.760   4.906  19.863  0.00  0.00    +0.000 N 
ATOM      6  C   UNL     1       2.079   4.752  21.125  0.00  0.00    +0.000 C 
ATOM      7  C   UNL     1       3.054   3.960  18.891  0.00  0.00    +0.000 A 
ATOM      8  C   UNL     1       3.553   4.699  17.812  0.00  0.00    +0.000 A 
BRANCH   7   9
ATOM      9  N   UNL     1       2.790   2.609  19.046  0.00  0.00    +0.000 N 
ATOM     10  C   UNL     1       3.825   1.598  19.246  0.00  0.00    +0.000 C 
ATOM     11  C   UNL     1       1.483   2.028  18.753  0.00  0.00    +0.000 C 
ENDBRANCH   7   9
ENDBRANCH   1   8
BRANCH   1  12
ATOM     12  N   UNL     1       5.307   3.430  16.594  0.00  0.00    +0.000 NA
ATOM     13  H   UNL     1       5.200   2.533  16.122  0.00  0.00    +0.000 HD
BRANCH  12  14
ATOM     14  C   UNL     1       6.443   4.149  15.983  0.00  0.00    +0.000 C 
ATOM     15  C   UNL     1       6.121   4.555  14.536  0.00  0.00    +0.000 C 
BRANCH  14  16
ATOM     16  C   UNL     1       7.008   5.254  16.861  0.00  0.00    +0.000 A 
ATOM     17  C   UNL     1       7.402   4.978  18.178  0.00  0.00    +0.000 A 
ATOM     18  C   UNL     1       7.916   5.990  18.986  0.00  0.00    +0.000 A 
ATOM     19  C   UNL     1       8.026   7.261  18.453  0.00  0.00    +0.000 A 
ATOM     20  N   UNL     1       7.662   7.576  17.194  0.00  0.00    +0.000 NA
ATOM     21  C   UNL     1       7.165   6.570  16.434  0.00  0.00    +0.000 A 
ENDBRANCH  14  16
ENDBRANCH  12  14
ENDBRANCH   1  12
TORSDOF 5
ENDMDL
MODEL 2
REMARK VINA RESULT:      -6.6      0.722      1.106
REMARK  Name = 
REMARK  10 active torsions:
REMARK  status: ('A' for Active; 'I' for Inactive)
REMARK    1  A    between atoms: C_1  and  C_2
REMARK    2  A    between atoms: N_4  and  C_5
REMARK    3  A    between atoms: C_6  and  N_7
REMARK    4  A    between atoms: N_7  and  C_8
REMARK    5  A    between atoms: N_7  and  C_9
REMARK    6  A    between atoms: C_10  and  C_11
REMARK    7  A    between atoms: C_11  and  N_12
REMARK    8  A    between atoms: N_12  and  C_13
REMARK    9  A    between atoms: C_13  and  C_14
REMARK   10  A    between atoms: C_13  and  C_15
REMARK                            x       y       z     vdW  Elec       q    Type
REMARK                         _______ _______ _______ _____ _____    ______ ____
ROOT
ATOM      1  C   UNL     1       4.018   4.131  16.480  0.00  0.00    +0.000 C 
ENDROOT
BRANCH   1   8
ATOM      2  C   UNL     1       3.678   7.302  17.448  0.00  0.00    +0.000 C 
ATOM      3  C   UNL     1       3.468   6.050  18.218  0.00  0.00    +0.000 A 
ATOM      4  N   UNL     1       3.112   6.154  19.497  0.00  0.00    +0.000 NA
ATOM      5  N   UNL     1       2.907   4.890  19.900  0.00  0.00    +0.000 N 
ATOM      6  C   UNL     1       2.315   4.725  21.204  0.00  0.00    +0.000 C 
ATOM      7  C   UNL     1       3.200   3.940  18.931  0.00  0.00    +0.000 A 
ATOM      8  C   UNL     1       3.586   4.683  17.809  0.00  0.00    +0.000 A 
BRANCH   7   9
ATOM      9  N   UNL     1       3.032   2.580  19.130  0.00  0.00    +0.000 N 
ATOM     10  C   UNL     1       4.094   1.689  19.593  0.00  0.00    +0.000 C 
ATOM     11  C   UNL     1       1.864   1.856  18.638  0.00  0.00    +0.000 C 
ENDBRANCH   7   9
ENDBRANCH   1   8
BRANCH   1  12
ATOM     12  N   UNL     1       5.285   3.394  16.534  0.00  0.00    +0.000 NA
ATOM     13  H   UNL     1       5.181   2.547  15.978  0.00  0.00    +0.000 HD
BRANCH  12  14
ATOM     14  C   UNL     1       6.441   4.156  16.019  0.00  0.00    +0.000 C 
ATOM     15  C   UNL     1       6.126   4.764  14.644  0.00  0.00    +0.000 C 
BRANCH  14  16
ATOM     16  C   UNL     1       7.041   5.113  17.036  0.00  0.00    +0.000 A 
ATOM     17  C   UNL     1       7.139   6.481  16.748  0.00  0.00    +0.000 A 
ATOM     18  C   UNL     1       7.691   7.359  17.677  0.00  0.00    +0.000 A 
ATOM     19  C   UNL     1       8.134   6.844  18.882  0.00  0.00    +0.000 A 
ATOM     20  N   UNL     1       8.061   5.538  19.207  0.00  0.00    +0.000 NA
ATOM     21  C   UNL     1       7.519   4.710  18.281  0.00  0.00    +0.000 A 
ENDBRANCH  14  16
ENDBRANCH  12  14
ENDBRANCH   1  12
TORSDOF 5
ENDMDL
MODEL 3
REMARK VINA RESULT:      -6.2      1.507      2.920
REMARK  Name = 
REMARK  10 active torsions:
REMARK  status: ('A' for Active; 'I' for Inactive)
REMARK    1  A    between atoms: C_1  and  C_2
REMARK    2  A    between atoms: N_4  and  C_5
REMARK    3  A    between atoms: C_6  and  N_7
REMARK    4  A    between atoms: N_7  and  C_8
REMARK    5  A    between atoms: N_7  and  C_9
REMARK    6  A    between atoms: C_10  and  C_11
REMARK    7  A    between atoms: C_11  and  N_12
REMARK    8  A    between atoms: N_12  and  C_13
REMARK    9  A    between atoms: C_13  and  C_14
REMARK   10  A    between atoms: C_13  and  C_15
REMARK                            x       y       z     vdW  Elec       q    Type
REMARK                         _______ _______ _______ _____ _____    ______ ____
ROOT
ATOM      1  C   UNL     1       3.944   4.001  16.482  0.00  0.00    +0.000 C 
ENDROOT
BRANCH   1   8
ATOM      2  C   UNL     1       4.010   7.163  17.533  0.00  0.00    +0.000 C 
ATOM      3  C   UNL     1       3.580   5.936  18.250  0.00  0.00    +0.000 A 
ATOM      4  N   UNL     1       3.171   6.060  19.511  0.00  0.00    +0.000 NA
ATOM      5  N   UNL     1       2.764   4.830  19.863  0.00  0.00    +0.000 N 
ATOM      6  C   UNL     1       2.082   4.720  21.129  0.00  0.00    +0.000 C 
ATOM      7  C   UNL     1       2.971   3.871  18.881  0.00  0.00    +0.000 A 
ATOM      8  C   UNL     1       3.522   4.577  17.804  0.00  0.00    +0.000 A 
BRANCH   7   9
ATOM      9  N   UNL     1       2.598   2.545  19.026  0.00  0.00    +0.000 N 
ATOM     10  C   UNL     1       3.543   1.431  19.026  0.00  0.00    +0.000 C 
ATOM     11  C   UNL     1       1.210   2.107  18.919  0.00  0.00    +0.000 C 
ENDBRANCH   7   9
ENDBRANCH   1   8
BRANCH   1  12
ATOM     12  N   UNL     1       5.331   3.524  16.465  0.00  0.00    +0.000 NA
ATOM     13  H   UNL     1       5.396   2.764  15.790  0.00  0.00    +0.000 HD
BRANCH  12  14
ATOM     14  C   UNL     1       6.314   4.564  16.099  0.00  0.00    +0.000 C 
ATOM     15  C   UNL     1       7.500   4.565  17.076  0.00  0.00    +0.000 C 
BRANCH  14  16
ATOM     16  C   UNL     1       6.682   4.560  14.624  0.00  0.00    +0.000 A 
ATOM     17  C   UNL     1       6.080   3.646  13.748  0.00  0.00    +0.000 A 
ATOM     18  C   UNL     1       6.418   3.639  12.396  0.00  0.00    +0.000 A 
ATOM     19  C   UNL     1       7.355   4.553  11.951  0.00  0.00    +0.000 A 
ATOM     20  N   UNL     1       7.961   5.451  12.753  0.00  0.00    +0.000 NA
ATOM     21  C   UNL     1       7.611   5.433  14.062  0.00  0.00    +0.000 A 
ENDBRANCH  14  16
ENDBRANCH  12  14
ENDBRANCH   1  12
TORSDOF 5
ENDMDL
MODEL 4
REMARK VINA RESULT:      -6.0      1.796      5.108
REMARK  Name = 
REMARK  10 active torsions:
REMARK  status: ('A' for Active; 'I' for Inactive)
REMARK    1  A    between atoms: C_1  and  C_2
REMARK    2  A    between atoms: N_4  and  C_5
REMARK    3  A    between atoms: C_6  and  N_7
REMARK    4  A    between atoms: N_7  and  C_8
REMARK    5  A    between atoms: N_7  and  C_9
REMARK    6  A    between atoms: C_10  and  C_11
REMARK    7  A    between atoms: C_11  and  N_12
REMARK    8  A    between atoms: N_12  and  C_13
REMARK    9  A    between atoms: C_13  and  C_14
REMARK   10  A    between atoms: C_13  and  C_15
REMARK                            x       y       z     vdW  Elec       q    Type
REMARK                         _______ _______ _______ _____ _____    ______ ____
ROOT
ATOM      1  C   UNL     1       3.420   2.514  17.238  0.00  0.00    +0.000 C 
ENDROOT
BRANCH   1   8
ATOM      2  C   UNL     1       4.379   2.449  20.430  0.00  0.00    +0.000 C 
ATOM      3  C   UNL     1       4.873   3.289  19.309  0.00  0.00    +0.000 A 
ATOM      4  N   UNL     1       5.827   4.181  19.571  0.00  0.00    +0.000 NA
ATOM      5  N   UNL     1       6.135   4.715  18.377  0.00  0.00    +0.000 N 
ATOM      6  C   UNL     1       7.289   5.577  18.342  0.00  0.00    +0.000 C 
ATOM      7  C   UNL     1       5.342   4.249  17.337  0.00  0.00    +0.000 A 
ATOM      8  C   UNL     1       4.490   3.310  17.930  0.00  0.00    +0.000 A 
BRANCH   7   9
ATOM      9  N   UNL     1       5.510   4.648  16.021  0.00  0.00    +0.000 N 
ATOM     10  C   UNL     1       6.214   3.855  15.016  0.00  0.00    +0.000 C 
ATOM     11  C   UNL     1       5.241   6.012  15.577  0.00  0.00    +0.000 C 
ENDBRANCH   7   9
ENDBRANCH   1   8
BRANCH   1  12
ATOM     12  N   UNL     1       2.258   3.314  16.840  0.00  0.00    +0.000 NA
ATOM     13  H   UNL     1       1.758   2.805  16.112  0.00  0.00    +0.000 HD
BRANCH  12  14
ATOM     14  C   UNL     1       1.319   3.595  17.945  0.00  0.00    +0.000 C 
ATOM     15  C   UNL     1       1.088   2.338  18.799  0.00  0.00    +0.000 C 
BRANCH  14  16
ATOM     16  C   UNL     1       1.652   4.859  18.720  0.00  0.00    +0.000 A 
ATOM     17  C   UNL     1       2.181   5.976  18.057  0.00  0.00    +0.000 A 
ATOM     18  C   UNL     1       2.490   7.135  18.766  0.00  0.00    +0.000 A 
ATOM     19  C   UNL     1       2.259   7.149  20.129  0.00  0.00    +0.000 A 
ATOM     20  N   UNL     1       1.752   6.104  20.811  0.00  0.00    +0.000 NA
ATOM     21  C   UNL     1       1.462   4.991  20.094  0.00  0.00    +0.000 A 
ENDBRANCH  14  16
ENDBRANCH  12  14
ENDBRANCH   1  12
TORSDOF 5
ENDMDL
MODEL 5
REMARK VINA RESULT:      -6.0      2.171      5.731
REMARK  Name = 
REMARK  10 active torsions:
REMARK  status: ('A' for Active; 'I' for Inactive)
REMARK    1  A    between atoms: C_1  and  C_2
REMARK    2  A    between atoms: N_4  and  C_5
REMARK    3  A    between atoms: C_6  and  N_7
REMARK    4  A    between atoms: N_7  and  C_8
REMARK    5  A    between atoms: N_7  and  C_9
REMARK    6  A    between atoms: C_10  and  C_11
REMARK    7  A    between atoms: C_11  and  N_12
REMARK    8  A    between atoms: N_12  and  C_13
REMARK    9  A    between atoms: C_13  and  C_14
REMARK   10  A    between atoms: C_13  and  C_15
REMARK                            x       y       z     vdW  Elec       q    Type
REMARK                         _______ _______ _______ _____ _____    ______ ____
ROOT
ATOM      1  C   UNL     1       4.625   4.789  19.507  0.00  0.00    +0.000 C 
ENDROOT
BRANCH   1   8
ATOM      2  C   UNL     1       3.030   3.214  17.040  0.00  0.00    +0.000 C 
ATOM      3  C   UNL     1       4.354   3.887  17.035  0.00  0.00    +0.000 A 
ATOM      4  N   UNL     1       5.060   3.867  15.906  0.00  0.00    +0.000 NA
ATOM      5  N   UNL     1       6.144   4.616  16.165  0.00  0.00    +0.000 N 
ATOM      6  C   UNL     1       6.989   4.927  15.039  0.00  0.00    +0.000 C 
ATOM      7  C   UNL     1       6.209   5.067  17.476  0.00  0.00    +0.000 A 
ATOM      8  C   UNL     1       5.039   4.588  18.078  0.00  0.00    +0.000 A 
BRANCH   7   9
ATOM      9  N   UNL     1       7.229   5.878  17.947  0.00  0.00    +0.000 N 
ATOM     10  C   UNL     1       8.077   5.536  19.086  0.00  0.00    +0.000 C 
ATOM     11  C   UNL     1       7.379   7.269  17.530  0.00  0.00    +0.000 C 
ENDBRANCH   7   9
ENDBRANCH   1   8
BRANCH   1  12
ATOM     12  N   UNL     1       4.044   6.110  19.770  0.00  0.00    +0.000 NA
ATOM     13  H   UNL     1       4.546   6.794  19.205  0.00  0.00    +0.000 HD
BRANCH  12  14
ATOM     14  C   UNL     1       2.605   6.204  19.449  0.00  0.00    +0.000 C 
ATOM     15  C   UNL     1       1.762   5.454  20.493  0.00  0.00    +0.000 C 
BRANCH  14  16
ATOM     16  C   UNL     1       2.144   7.616  19.129  0.00  0.00    +0.000 A 
ATOM     17  C   UNL     1       1.429   8.359  20.078  0.00  0.00    +0.000 A 
ATOM     18  C   UNL     1       1.002   9.652  19.785  0.00  0.00    +0.000 A 
ATOM     19  C   UNL     1       1.305  10.175  18.541  0.00  0.00    +0.000 A 
ATOM     20  N   UNL     1       1.990   9.502  17.595  0.00  0.00    +0.000 NA
ATOM     21  C   UNL     1       2.390   8.247  17.911  0.00  0.00    +0.000 A 
ENDBRANCH  14  16
ENDBRANCH  12  14
ENDBRANCH   1  12
TORSDOF 5
ENDMDL
MODEL 6
REMARK VINA RESULT:      -6.0      1.817      4.997
REMARK  Name = 
REMARK  10 active torsions:
REMARK  status: ('A' for Active; 'I' for Inactive)
REMARK    1  A    between atoms: C_1  and  C_2
REMARK    2  A    between atoms: N_4  and  C_5
REMARK    3  A    between atoms: C_6  and  N_7
REMARK    4  A    between atoms: N_7  and  C_8
REMARK    5  A    between atoms: N_7  and  C_9
REMARK    6  A    between atoms: C_10  and  C_11
REMARK    7  A    between atoms: C_11  and  N_12
REMARK    8  A    between atoms: N_12  and  C_13
REMARK    9  A    between atoms: C_13  and  C_14
REMARK   10  A    between atoms: C_13  and  C_15
REMARK                            x       y       z     vdW  Elec       q    Type
REMARK                         _______ _______ _______ _____ _____    ______ ____
ROOT
ATOM      1  C   UNL     1       3.590   2.635  17.253  0.00  0.00    +0.000 C 
ENDROOT
BRANCH   1   8
ATOM      2  C   UNL     1       4.315   2.514  20.503  0.00  0.00    +0.000 C 
ATOM      3  C   UNL     1       4.876   3.385  19.440  0.00  0.00    +0.000 A 
ATOM      4  N   UNL     1       5.793   4.286  19.789  0.00  0.00    +0.000 NA
ATOM      5  N   UNL     1       6.177   4.851  18.633  0.00  0.00    +0.000 N 
ATOM      6  C   UNL     1       7.317   5.731  18.701  0.00  0.00    +0.000 C 
ATOM      7  C   UNL     1       5.470   4.397  17.528  0.00  0.00    +0.000 A 
ATOM      8  C   UNL     1       4.593   3.432  18.038  0.00  0.00    +0.000 A 
BRANCH   7   9
ATOM      9  N   UNL     1       5.726   4.828  16.237  0.00  0.00    +0.000 N 
ATOM     10  C   UNL     1       5.212   6.077  15.682  0.00  0.00    +0.000 C 
ATOM     11  C   UNL     1       6.302   3.953  15.220  0.00  0.00    +0.000 C 
ENDBRANCH   7   9
ENDBRANCH   1   8
BRANCH   1  12
ATOM     12  N   UNL     1       2.444   3.426  16.792  0.00  0.00    +0.000 NA
ATOM     13  H   UNL     1       1.998   2.920  16.027  0.00  0.00    +0.000 HD
BRANCH  12  14
ATOM     14  C   UNL     1       1.433   3.678  17.839  0.00  0.00    +0.000 C 
ATOM     15  C   UNL     1       1.144   2.399  18.641  0.00  0.00    +0.000 C 
BRANCH  14  16
ATOM     16  C   UNL     1       1.714   4.920  18.669  0.00  0.00    +0.000 A 
ATOM     17  C   UNL     1       1.465   4.921  20.048  0.00  0.00    +0.000 A 
ATOM     18  C   UNL     1       1.719   6.060  20.810  0.00  0.00    +0.000 A 
ATOM     19  C   UNL     1       2.221   7.177  20.169  0.00  0.00    +0.000 A 
ATOM     20  N   UNL     1       2.478   7.227  18.847  0.00  0.00    +0.000 NA
ATOM     21  C   UNL     1       2.220   6.103  18.134  0.00  0.00    +0.000 A 
ENDBRANCH  14  16
ENDBRANCH  12  14
ENDBRANCH   1  12
TORSDOF 5
ENDMDL
MODEL 7
REMARK VINA RESULT:      -6.0      1.078      1.548
REMARK  Name = 
REMARK  10 active torsions:
REMARK  status: ('A' for Active; 'I' for Inactive)
REMARK    1  A    between atoms: C_1  and  C_2
REMARK    2  A    between atoms: N_4  and  C_5
REMARK    3  A    between atoms: C_6  and  N_7
REMARK    4  A    between atoms: N_7  and  C_8
REMARK    5  A    between atoms: N_7  and  C_9
REMARK    6  A    between atoms: C_10  and  C_11
REMARK    7  A    between atoms: C_11  and  N_12
REMARK    8  A    between atoms: N_12  and  C_13
REMARK    9  A    between atoms: C_13  and  C_14
REMARK   10  A    between atoms: C_13  and  C_15
REMARK                            x       y       z     vdW  Elec       q    Type
REMARK                         _______ _______ _______ _____ _____    ______ ____
ROOT
ATOM      1  C   UNL     1       3.844   5.162  16.975  0.00  0.00    +0.000 C 
ENDROOT
BRANCH   1   8
ATOM      2  C   UNL     1       2.401   7.639  18.675  0.00  0.00    +0.000 C 
ATOM      3  C   UNL     1       2.632   6.227  19.072  0.00  0.00    +0.000 A 
ATOM      4  N   UNL     1       2.243   5.849  20.288  0.00  0.00    +0.000 NA
ATOM      5  N   UNL     1       2.486   4.529  20.332  0.00  0.00    +0.000 N 
ATOM      6  C   UNL     1       1.970   3.821  21.477  0.00  0.00    +0.000 C 
ATOM      7  C   UNL     1       3.108   4.039  19.191  0.00  0.00    +0.000 A 
ATOM      8  C   UNL     1       3.226   5.147  18.344  0.00  0.00    +0.000 A 
BRANCH   7   9
ATOM      9  N   UNL     1       3.423   2.701  19.016  0.00  0.00    +0.000 N 
ATOM     10  C   UNL     1       2.561   1.748  18.322  0.00  0.00    +0.000 C 
ATOM     11  C   UNL     1       4.512   2.053  19.741  0.00  0.00    +0.000 C 
ENDBRANCH   7   9
ENDBRANCH   1   8
BRANCH   1  12
ATOM     12  N   UNL     1       4.566   3.930  16.644  0.00  0.00    +0.000 NA
ATOM     13  H   UNL     1       4.069   3.466  15.885  0.00  0.00    +0.000 HD
BRANCH  12  14
ATOM     14  C   UNL     1       5.964   4.153  16.221  0.00  0.00    +0.000 C 
ATOM     15  C   UNL     1       6.036   4.477  14.720  0.00  0.00    +0.000 C 
BRANCH  14  16
ATOM     16  C   UNL     1       6.732   5.097  17.132  0.00  0.00    +0.000 A 
ATOM     17  C   UNL     1       6.931   6.433  16.759  0.00  0.00    +0.000 A 
ATOM     18  C   UNL     1       7.637   7.299  17.591  0.00  0.00    +0.000 A 
ATOM     19  C   UNL     1       8.129   6.804  18.784  0.00  0.00    +0.000 A 
ATOM     20  N   UNL     1       7.965   5.528  19.188  0.00  0.00    +0.000 NA
ATOM     21  C   UNL     1       7.273   4.711  18.356  0.00  0.00    +0.000 A 
ENDBRANCH  14  16
ENDBRANCH  12  14
ENDBRANCH   1  12
TORSDOF 5
ENDMDL
MODEL 8
REMARK VINA RESULT:      -5.9      1.693      3.180
REMARK  Name = 
REMARK  10 active torsions:
REMARK  status: ('A' for Active; 'I' for Inactive)
REMARK    1  A    between atoms: C_1  and  C_2
REMARK    2  A    between atoms: N_4  and  C_5
REMARK    3  A    between atoms: C_6  and  N_7
REMARK    4  A    between atoms: N_7  and  C_8
REMARK    5  A    between atoms: N_7  and  C_9
REMARK    6  A    between atoms: C_10  and  C_11
REMARK    7  A    between atoms: C_11  and  N_12
REMARK    8  A    between atoms: N_12  and  C_13
REMARK    9  A    between atoms: C_13  and  C_14
REMARK   10  A    between atoms: C_13  and  C_15
REMARK                            x       y       z     vdW  Elec       q    Type
REMARK                         _______ _______ _______ _____ _____    ______ ____
ROOT
ATOM      1  C   UNL     1       5.718   4.669  18.447  0.00  0.00    +0.000 C 
ENDROOT
BRANCH   1   8
ATOM      2  C   UNL     1       3.508   7.091  17.852  0.00  0.00    +0.000 C 
ATOM      3  C   UNL     1       3.300   5.742  18.436  0.00  0.00    +0.000 A 
ATOM      4  N   UNL     1       2.067   5.408  18.815  0.00  0.00    +0.000 NA
ATOM      5  N   UNL     1       2.163   4.128  19.208  0.00  0.00    +0.000 N 
ATOM      6  C   UNL     1       0.922   3.450  19.485  0.00  0.00    +0.000 C 
ATOM      7  C   UNL     1       3.458   3.629  19.172  0.00  0.00    +0.000 A 
ATOM      8  C   UNL     1       4.234   4.683  18.674  0.00  0.00    +0.000 A 
BRANCH   7   9
ATOM      9  N   UNL     1       3.776   2.323  19.508  0.00  0.00    +0.000 N 
ATOM     10  C   UNL     1       4.484   1.949  20.730  0.00  0.00    +0.000 C 
ATOM     11  C   UNL     1       3.680   1.223  18.553  0.00  0.00    +0.000 C 
ENDBRANCH   7   9
ENDBRANCH   1   8
BRANCH   1  12
ATOM     12  N   UNL     1       6.103   4.227  17.103  0.00  0.00    +0.000 NA
ATOM     13  H   UNL     1       5.387   3.585  16.764  0.00  0.00    +0.000 HD
BRANCH  12  14
ATOM     14  C   UNL     1       6.243   5.330  16.130  0.00  0.00    +0.000 C 
ATOM     15  C   UNL     1       7.223   6.394  16.646  0.00  0.00    +0.000 C 
BRANCH  14  16
ATOM     16  C   UNL     1       6.481   4.857  14.705  0.00  0.00    +0.000 A 
ATOM     17  C   UNL     1       5.612   3.931  14.112  0.00  0.00    +0.000 A 
ATOM     18  C   UNL     1       5.831   3.494  12.808  0.00  0.00    +0.000 A 
ATOM     19  C   UNL     1       6.920   3.999  12.123  0.00  0.00    +0.000 A 
ATOM     20  N   UNL     1       7.784   4.890  12.647  0.00  0.00    +0.000 NA
ATOM     21  C   UNL     1       7.544   5.295  13.918  0.00  0.00    +0.000 A 
ENDBRANCH  14  16
ENDBRANCH  12  14
ENDBRANCH   1  12
TORSDOF 5
ENDMDL
MODEL 9
REMARK VINA RESULT:      -5.9      2.086      5.821
REMARK  Name = 
REMARK  10 active torsions:
REMARK  status: ('A' for Active; 'I' for Inactive)
REMARK    1  A    between atoms: C_1  and  C_2
REMARK    2  A    between atoms: N_4  and  C_5
REMARK    3  A    between atoms: C_6  and  N_7
REMARK    4  A    between atoms: N_7  and  C_8
REMARK    5  A    between atoms: N_7  and  C_9
REMARK    6  A    between atoms: C_10  and  C_11
REMARK    7  A    between atoms: C_11  and  N_12
REMARK    8  A    between atoms: N_12  and  C_13
REMARK    9  A    between atoms: C_13  and  C_14
REMARK   10  A    between atoms: C_13  and  C_15
REMARK                            x       y       z     vdW  Elec       q    Type
REMARK                         _______ _______ _______ _____ _____    ______ ____
ROOT
ATOM      1  C   UNL     1       4.494   4.615  19.589  0.00  0.00    +0.000 C 
ENDROOT
BRANCH   1   8
ATOM      2  C   UNL     1       2.926   3.113  17.060  0.00  0.00    +0.000 C 
ATOM      3  C   UNL     1       4.231   3.821  17.078  0.00  0.00    +0.000 A 
ATOM      4  N   UNL     1       4.930   3.873  15.946  0.00  0.00    +0.000 NA
ATOM      5  N   UNL     1       5.994   4.640  16.234  0.00  0.00    +0.000 N 
ATOM      6  C   UNL     1       6.823   5.027  15.119  0.00  0.00    +0.000 C 
ATOM      7  C   UNL     1       6.056   5.031  17.564  0.00  0.00    +0.000 A 
ATOM      8  C   UNL     1       4.904   4.492  18.149  0.00  0.00    +0.000 A 
BRANCH   7   9
ATOM      9  N   UNL     1       7.056   5.848  18.067  0.00  0.00    +0.000 N 
ATOM     10  C   UNL     1       7.390   7.157  17.513  0.00  0.00    +0.000 C 
ATOM     11  C   UNL     1       8.051   5.368  19.022  0.00  0.00    +0.000 C 
ENDBRANCH   7   9
ENDBRANCH   1   8
BRANCH   1  12
ATOM     12  N   UNL     1       3.895   5.913  19.919  0.00  0.00    +0.000 NA
ATOM     13  H   UNL     1       4.417   6.637  19.427  0.00  0.00    +0.000 HD
BRANCH  12  14
ATOM     14  C   UNL     1       2.470   6.025  19.545  0.00  0.00    +0.000 C 
ATOM     15  C   UNL     1       1.590   5.183  20.482  0.00  0.00    +0.000 C 
BRANCH  14  16
ATOM     16  C   UNL     1       2.010   7.457  19.326  0.00  0.00    +0.000 A 
ATOM     17  C   UNL     1       2.161   8.064  18.071  0.00  0.00    +0.000 A 
ATOM     18  C   UNL     1       1.743   9.377  17.869  0.00  0.00    +0.000 A 
ATOM     19  C   UNL     1       1.178  10.055  18.934  0.00  0.00    +0.000 A 
ATOM     20  N   UNL     1       1.011   9.517  20.158  0.00  0.00    +0.000 NA
ATOM     21  C   UNL     1       1.428   8.238  20.322  0.00  0.00    +0.000 A 
ENDBRANCH  14  16
ENDBRANCH  12  14
ENDBRANCH   1  12
TORSDOF 5
ENDMDL
