MODEL 1
REMARK VINA RESULT:      -7.9      0.000      0.000
REMARK  Name = 
REMARK  4 active torsions:
REMARK  status: ('A' for Active; 'I' for Inactive)
REMARK    1  A    between atoms: N_1  and  C_2
REMARK    2  A    between atoms: C_5  and  N_6
REMARK    3  A    between atoms: C_9  and  N_10
REMARK    4  A    between atoms: N_10  and  C_11
REMARK                            x       y       z     vdW  Elec       q    Type
REMARK                         _______ _______ _______ _____ _____    ______ ____
ROOT
ATOM      1  N   UNL     1       2.516   7.289  18.952  0.00  0.00    +0.000 N 
ATOM      2  C   UNL     1       1.667   8.254  19.445  0.00  0.00    +0.000 A 
ATOM      3  C   UNL     1       0.967   9.104  18.434  0.00  0.00    +0.000 A 
ATOM      4  C   UNL     1       0.232  10.157  18.860  0.00  0.00    +0.000 A 
ATOM      5  N   UNL     1       0.071  10.321  20.245  0.00  0.00    +0.000 N 
ATOM      6  N   UNL     1      -0.636  11.295  20.893  0.00  0.00    +0.000 NA
ATOM      7  C   UNL     1      -0.520  10.973  22.186  0.00  0.00    +0.000 A 
ATOM      8  C   UNL     1       0.276   9.838  22.400  0.00  0.00    +0.000 A 
ATOM      9 CL   UNL     1       0.644   9.139  23.895  0.00  0.00    +0.000 Cl
ATOM     10  C   UNL     1       0.682   9.432  21.141  0.00  0.00    +0.000 A 
ATOM     11  N   UNL     1       1.493   8.410  20.731  0.00  0.00    +0.000 NA
ATOM     12  H   UNL     1       2.842   7.384  18.002  0.00  0.00    +0.000 HD
ENDROOT
BRANCH   1  16
ATOM     13  C   UNL     1       3.171   3.983  17.472  0.00  0.00    +0.000 C 
ATOM     14  C   UNL     1       1.800   4.497  17.923  0.00  0.00    +0.000 C 
ATOM     15  C   UNL     1       1.807   4.966  19.380  0.00  0.00    +0.000 C 
ATOM     16  C   UNL     1       2.864   6.049  19.644  0.00  0.00    +0.000 C 
ATOM     17  C   UNL     1       4.252   5.562  19.184  0.00  0.00    +0.000 C 
ATOM     18  C   UNL     1       4.261   5.029  17.746  0.00  0.00    +0.000 C 
BRANCH  13  19
ATOM     19  N   UNL     1       3.493   2.714  18.130  0.00  0.00    +0.000 NA
ATOM     20  H   UNL     1       2.998   1.954  17.663  0.00  0.00    +0.000 HD
ATOM     21  H   UNL     1       3.163   2.706  19.094  0.00  0.00    +0.000 HD
ENDBRANCH  13  19
ENDBRANCH   1  16
BRANCH   4  22
ATOM     22  N   UNL     1      -0.358  11.072  17.981  0.00  0.00    +0.000 N 
ATOM     23  H   UNL     1       0.243  11.330  17.194  0.00  0.00    +0.000 HD
BRANCH  22  24
ATOM     24  C   UNL     1      -1.741  11.040  17.660  0.00  0.00    +0.000 A 
ATOM     25  C   UNL     1      -2.708  11.663  18.477  0.00  0.00    +0.000 A 
ATOM     26  C   UNL     1      -4.031  11.793  18.075  0.00  0.00    +0.000 A 
ATOM     27  C   UNL     1      -4.428  11.288  16.853  0.00  0.00    +0.000 A 
ATOM     28  F   UNL     1      -5.698  11.470  16.464  0.00  0.00    +0.000 F 
ATOM     29  C   UNL     1      -3.510  10.635  16.038  0.00  0.00    +0.000 A 
ATOM     30 CL   UNL     1      -3.992  10.052  14.492  0.00  0.00    +0.000 Cl
ATOM     31  C   UNL     1      -2.172  10.498  16.442  0.00  0.00    +0.000 A 
ENDBRANCH  22  24
ENDBRANCH   4  22
TORSDOF 4
ENDMDL
MODEL 2
REMARK VINA RESULT:      -7.7      1.143      1.465
REMARK  Name = 
REMARK  4 active torsions:
REMARK  status: ('A' for Active; 'I' for Inactive)
REMARK    1  A    between atoms: N_1  and  C_2
REMARK    2  A    between atoms: C_5  and  N_6
REMARK    3  A    between atoms: C_9  and  N_10
REMARK    4  A    between atoms: N_10  and  C_11
REMARK                            x       y       z     vdW  Elec       q    Type
REMARK                         _______ _______ _______ _____ _____    ______ ____
ROOT
ATOM      1  N   UNL     1       2.560   7.262  18.930  0.00  0.00    +0.000 N 
ATOM      2  C   UNL     1       1.723   8.238  19.422  0.00  0.00    +0.000 A 
ATOM      3  C   UNL     1       1.044   9.104  18.411  0.00  0.00    +0.000 A 
ATOM      4  C   UNL     1       0.323  10.168  18.838  0.00  0.00    +0.000 A 
ATOM      5  N   UNL     1       0.155  10.326  20.223  0.00  0.00    +0.000 N 
ATOM      6  N   UNL     1      -0.541  11.308  20.871  0.00  0.00    +0.000 NA
ATOM      7  C   UNL     1      -0.440  10.976  22.163  0.00  0.00    +0.000 A 
ATOM      8  C   UNL     1       0.336   9.827  22.376  0.00  0.00    +0.000 A 
ATOM      9 CL   UNL     1       0.681   9.114  23.869  0.00  0.00    +0.000 Cl
ATOM     10  C   UNL     1       0.745   9.422  21.118  0.00  0.00    +0.000 A 
ATOM     11  N   UNL     1       1.542   8.390  20.708  0.00  0.00    +0.000 NA
ATOM     12  H   UNL     1       2.895   7.358  17.983  0.00  0.00    +0.000 HD
ENDROOT
BRANCH   1  16
ATOM     13  C   UNL     1       3.171   3.954  17.436  0.00  0.00    +0.000 C 
ATOM     14  C   UNL     1       1.805   4.488  17.880  0.00  0.00    +0.000 C 
ATOM     15  C   UNL     1       1.810   4.948  19.340  0.00  0.00    +0.000 C 
ATOM     16  C   UNL     1       2.883   6.013  19.618  0.00  0.00    +0.000 C 
ATOM     17  C   UNL     1       4.266   5.506  19.164  0.00  0.00    +0.000 C 
ATOM     18  C   UNL     1       4.275   4.980  17.723  0.00  0.00    +0.000 C 
BRANCH  13  19
ATOM     19  N   UNL     1       3.467   2.677  18.089  0.00  0.00    +0.000 NA
ATOM     20  H   UNL     1       4.324   2.765  18.636  0.00  0.00    +0.000 HD
ATOM     21  H   UNL     1       3.655   1.948  17.402  0.00  0.00    +0.000 HD
ENDBRANCH  13  19
ENDBRANCH   1  16
BRANCH   4  22
ATOM     22  N   UNL     1      -0.245  11.096  17.960  0.00  0.00    +0.000 N 
ATOM     23  H   UNL     1       0.331  11.289  17.137  0.00  0.00    +0.000 HD
BRANCH  22  24
ATOM     24  C   UNL     1      -1.642  11.154  17.707  0.00  0.00    +0.000 A 
ATOM     25  C   UNL     1      -2.245  10.385  16.690  0.00  0.00    +0.000 A 
ATOM     26  C   UNL     1      -3.625  10.297  16.559  0.00  0.00    +0.000 A 
ATOM     27  C   UNL     1      -4.440  10.990  17.432  0.00  0.00    +0.000 A 
ATOM     28  F   UNL     1      -5.769  10.850  17.319  0.00  0.00    +0.000 F 
ATOM     29  C   UNL     1      -3.880  11.787  18.424  0.00  0.00    +0.000 A 
ATOM     30 CL   UNL     1      -4.895  12.609  19.546  0.00  0.00    +0.000 Cl
ATOM     31  C   UNL     1      -2.486  11.881  18.558  0.00  0.00    +0.000 A 
ENDBRANCH  22  24
ENDBRANCH   4  22
TORSDOF 4
ENDMDL
MODEL 3
REMARK VINA RESULT:      -7.6      3.306      7.473
REMARK  Name = 
REMARK  4 active torsions:
REMARK  status: ('A' for Active; 'I' for Inactive)
REMARK    1  A    between atoms: N_1  and  C_2
REMARK    2  A    between atoms: C_5  and  N_6
REMARK    3  A    between atoms: C_9  and  N_10
REMARK    4  A    between atoms: N_10  and  C_11
REMARK                            x       y       z     vdW  Elec       q    Type
REMARK                         _______ _______ _______ _____ _____    ______ ____
ROOT
ATOM      1  N   UNL     1      -1.092  10.328  17.473  0.00  0.00    +0.000 N 
ATOM      2  C   UNL     1      -0.406   9.976  18.614  0.00  0.00    +0.000 A 
ATOM      3  C   UNL     1       0.765   9.065  18.432  0.00  0.00    +0.000 A 
ATOM      4  C   UNL     1       1.388   8.573  19.527  0.00  0.00    +0.000 A 
ATOM      5  N   UNL     1       0.971   9.046  20.781  0.00  0.00    +0.000 N 
ATOM      6  N   UNL     1       1.465   8.703  22.009  0.00  0.00    +0.000 NA
ATOM      7  C   UNL     1       0.771   9.466  22.861  0.00  0.00    +0.000 A 
ATOM      8  C   UNL     1      -0.188  10.267  22.226  0.00  0.00    +0.000 A 
ATOM      9 CL   UNL     1      -1.244  11.352  22.976  0.00  0.00    +0.000 Cl
ATOM     10  C   UNL     1      -0.077   9.973  20.878  0.00  0.00    +0.000 A 
ATOM     11  N   UNL     1      -0.771  10.420  19.788  0.00  0.00    +0.000 NA
ATOM     12  H   UNL     1      -0.971   9.756  16.651  0.00  0.00    +0.000 HD
ENDROOT
BRANCH   1  16
ATOM     13  C   UNL     1      -4.725  10.661  16.983  0.00  0.00    +0.000 C 
ATOM     14  C   UNL     1      -3.689  10.511  15.864  0.00  0.00    +0.000 C 
ATOM     15  C   UNL     1      -2.586  11.568  15.951  0.00  0.00    +0.000 C 
ATOM     16  C   UNL     1      -1.867  11.557  17.309  0.00  0.00    +0.000 C 
ATOM     17  C   UNL     1      -2.890  11.690  18.454  0.00  0.00    +0.000 C 
ATOM     18  C   UNL     1      -4.042  10.682  18.357  0.00  0.00    +0.000 C 
BRANCH  13  19
ATOM     19  N   UNL     1      -5.533  11.867  16.786  0.00  0.00    +0.000 NA
ATOM     20  H   UNL     1      -6.089  12.044  17.623  0.00  0.00    +0.000 HD
ATOM     21  H   UNL     1      -6.205  11.740  16.032  0.00  0.00    +0.000 HD
ENDBRANCH  13  19
ENDBRANCH   1  16
BRANCH   4  22
ATOM     22  N   UNL     1       2.413   7.624  19.451  0.00  0.00    +0.000 N 
ATOM     23  H   UNL     1       3.212   7.833  20.055  0.00  0.00    +0.000 HD
BRANCH  22  24
ATOM     24  C   UNL     1       2.159   6.235  19.297  0.00  0.00    +0.000 A 
ATOM     25  C   UNL     1       2.281   5.591  18.048  0.00  0.00    +0.000 A 
ATOM     26  C   UNL     1       2.215   4.209  17.927  0.00  0.00    +0.000 A 
ATOM     27  C   UNL     1       2.007   3.434  19.050  0.00  0.00    +0.000 A 
ATOM     28  F   UNL     1       1.997   2.099  18.918  0.00  0.00    +0.000 F 
ATOM     29  C   UNL     1       1.844   4.036  20.293  0.00  0.00    +0.000 A 
ATOM     30 CL   UNL     1       1.637   3.068  21.701  0.00  0.00    +0.000 Cl
ATOM     31  C   UNL     1       1.907   5.434  20.419  0.00  0.00    +0.000 A 
ENDBRANCH  22  24
ENDBRANCH   4  22
TORSDOF 4
ENDMDL
MODEL 4
REMARK VINA RESULT:      -7.5      3.242      7.242
REMARK  Name = 
REMARK  4 active torsions:
REMARK  status: ('A' for Active; 'I' for Inactive)
REMARK    1  A    between atoms: N_1  and  C_2
REMARK    2  A    between atoms: C_5  and  N_6
REMARK    3  A    between atoms: C_9  and  N_10
REMARK    4  A    between atoms: N_10  and  C_11
REMARK                            x       y       z     vdW  Elec       q    Type
REMARK                         _______ _______ _______ _____ _____    ______ ____
ROOT
ATOM      1  N   UNL     1      -1.078  10.347  17.512  0.00  0.00    +0.000 N 
ATOM      2  C   UNL     1      -0.400  10.008  18.662  0.00  0.00    +0.000 A 
ATOM      3  C   UNL     1       0.795   9.127  18.494  0.00  0.00    +0.000 A 
ATOM      4  C   UNL     1       1.415   8.647  19.597  0.00  0.00    +0.000 A 
ATOM      5  N   UNL     1       0.969   9.107  20.846  0.00  0.00    +0.000 N 
ATOM      6  N   UNL     1       1.454   8.772  22.080  0.00  0.00    +0.000 NA
ATOM      7  C   UNL     1       0.730   9.515  22.924  0.00  0.00    +0.000 A 
ATOM      8  C   UNL     1      -0.239  10.295  22.277  0.00  0.00    +0.000 A 
ATOM      9 CL   UNL     1      -1.332  11.352  23.015  0.00  0.00    +0.000 Cl
ATOM     10  C   UNL     1      -0.102  10.007  20.930  0.00  0.00    +0.000 A 
ATOM     11  N   UNL     1      -0.792  10.441  19.832  0.00  0.00    +0.000 NA
ATOM     12  H   UNL     1      -0.932   9.780  16.690  0.00  0.00    +0.000 HD
ENDROOT
BRANCH   1  16
ATOM     13  C   UNL     1      -4.710  10.593  16.962  0.00  0.00    +0.000 C 
ATOM     14  C   UNL     1      -3.652  10.474  15.860  0.00  0.00    +0.000 C 
ATOM     15  C   UNL     1      -2.576  11.557  15.970  0.00  0.00    +0.000 C 
ATOM     16  C   UNL     1      -1.880  11.558  17.341  0.00  0.00    +0.000 C 
ATOM     17  C   UNL     1      -2.925  11.660  18.468  0.00  0.00    +0.000 C 
ATOM     18  C   UNL     1      -4.050  10.625  18.348  0.00  0.00    +0.000 C 
BRANCH  13  19
ATOM     19  N   UNL     1      -5.543  11.780  16.757  0.00  0.00    +0.000 NA
ATOM     20  H   UNL     1      -5.490  12.379  17.581  0.00  0.00    +0.000 HD
ATOM     21  H   UNL     1      -6.526  11.527  16.665  0.00  0.00    +0.000 HD
ENDBRANCH  13  19
ENDBRANCH   1  16
BRANCH   4  22
ATOM     22  N   UNL     1       2.463   7.723  19.533  0.00  0.00    +0.000 N 
ATOM     23  H   UNL     1       3.302   8.018  20.039  0.00  0.00    +0.000 HD
BRANCH  22  24
ATOM     24  C   UNL     1       2.248   6.319  19.551  0.00  0.00    +0.000 A 
ATOM     25  C   UNL     1       1.573   5.686  20.616  0.00  0.00    +0.000 A 
ATOM     26  C   UNL     1       1.199   4.350  20.553  0.00  0.00    +0.000 A 
ATOM     27  C   UNL     1       1.505   3.605  19.432  0.00  0.00    +0.000 A 
ATOM     28  F   UNL     1       1.090   2.332  19.372  0.00  0.00    +0.000 F 
ATOM     29  C   UNL     1       2.203   4.187  18.379  0.00  0.00    +0.000 A 
ATOM     30 CL   UNL     1       2.540   3.275  16.959  0.00  0.00    +0.000 Cl
ATOM     31  C   UNL     1       2.586   5.537  18.440  0.00  0.00    +0.000 A 
ENDBRANCH  22  24
ENDBRANCH   4  22
TORSDOF 4
ENDMDL
MODEL 5
REMARK VINA RESULT:      -7.2      3.377      3.830
REMARK  Name = 
REMARK  4 active torsions:
REMARK  status: ('A' for Active; 'I' for Inactive)
REMARK    1  A    between atoms: N_1  and  C_2
REMARK    2  A    between atoms: C_5  and  N_6
REMARK    3  A    between atoms: C_9  and  N_10
REMARK    4  A    between atoms: N_10  and  C_11
REMARK                            x       y       z     vdW  Elec       q    Type
REMARK                         _______ _______ _______ _____ _____    ______ ____
ROOT
ATOM      1  N   UNL     1       2.584   7.358  19.134  0.00  0.00    +0.000 N 
ATOM      2  C   UNL     1       1.765   8.369  19.584  0.00  0.00    +0.000 A 
ATOM      3  C   UNL     1       1.288   9.345  18.558  0.00  0.00    +0.000 A 
ATOM      4  C   UNL     1       0.600  10.438  18.964  0.00  0.00    +0.000 A 
ATOM      5  N   UNL     1       0.267  10.529  20.325  0.00  0.00    +0.000 N 
ATOM      6  N   UNL     1      -0.431  11.526  20.947  0.00  0.00    +0.000 NA
ATOM      7  C   UNL     1      -0.522  11.113  22.216  0.00  0.00    +0.000 A 
ATOM      8  C   UNL     1       0.132   9.893  22.445  0.00  0.00    +0.000 A 
ATOM      9 CL   UNL     1       0.229   9.069  23.917  0.00  0.00    +0.000 Cl
ATOM     10  C   UNL     1       0.668   9.530  21.223  0.00  0.00    +0.000 A 
ATOM     11  N   UNL     1       1.432   8.460  20.845  0.00  0.00    +0.000 NA
ATOM     12  H   UNL     1       3.044   7.480  18.244  0.00  0.00    +0.000 HD
ENDROOT
BRANCH   1  16
ATOM     13  C   UNL     1       3.202   4.112  17.511  0.00  0.00    +0.000 C 
ATOM     14  C   UNL     1       1.822   4.715  17.790  0.00  0.00    +0.000 C 
ATOM     15  C   UNL     1       1.637   5.083  19.264  0.00  0.00    +0.000 C 
ATOM     16  C   UNL     1       2.722   6.048  19.770  0.00  0.00    +0.000 C 
ATOM     17  C   UNL     1       4.122   5.471  19.486  0.00  0.00    +0.000 C 
ATOM     18  C   UNL     1       4.314   5.036  18.028  0.00  0.00    +0.000 C 
BRANCH  13  19
ATOM     19  N   UNL     1       3.317   2.779  18.106  0.00  0.00    +0.000 NA
ATOM     20  H   UNL     1       2.976   2.805  19.068  0.00  0.00    +0.000 HD
ATOM     21  H   UNL     1       4.291   2.487  18.169  0.00  0.00    +0.000 HD
ENDBRANCH  13  19
ENDBRANCH   1  16
BRANCH   4  22
ATOM     22  N   UNL     1       0.220  11.460  18.088  0.00  0.00    +0.000 N 
ATOM     23  H   UNL     1      -0.758  11.406  17.793  0.00  0.00    +0.000 HD
BRANCH  22  24
ATOM     24  C   UNL     1       0.710  12.788  18.204  0.00  0.00    +0.000 A 
ATOM     25  C   UNL     1      -0.147  13.875  18.477  0.00  0.00    +0.000 A 
ATOM     26  C   UNL     1       0.345  15.139  18.773  0.00  0.00    +0.000 A 
ATOM     27  C   UNL     1       1.708  15.356  18.787  0.00  0.00    +0.000 A 
ATOM     28  F   UNL     1       2.163  16.571  19.125  0.00  0.00    +0.000 F 
ATOM     29  C   UNL     1       2.583  14.317  18.486  0.00  0.00    +0.000 A 
ATOM     30 CL   UNL     1       4.283  14.574  18.555  0.00  0.00    +0.000 Cl
ATOM     31  C   UNL     1       2.089  13.038  18.183  0.00  0.00    +0.000 A 
ENDBRANCH  22  24
ENDBRANCH   4  22
TORSDOF 4
ENDMDL
MODEL 6
REMARK VINA RESULT:      -7.1      3.710      8.273
REMARK  Name = 
REMARK  4 active torsions:
REMARK  status: ('A' for Active; 'I' for Inactive)
REMARK    1  A    between atoms: N_1  and  C_2
REMARK    2  A    between atoms: C_5  and  N_6
REMARK    3  A    between atoms: C_9  and  N_10
REMARK    4  A    between atoms: N_10  and  C_11
REMARK                            x       y       z     vdW  Elec       q    Type
REMARK                         _______ _______ _______ _____ _____    ______ ____
ROOT
ATOM      1  N   UNL     1      -1.473  13.910  20.575  0.00  0.00    +0.000 N 
ATOM      2  C   UNL     1      -1.566  12.817  19.743  0.00  0.00    +0.000 A 
ATOM      3  C   UNL     1      -0.287  12.116  19.420  0.00  0.00    +0.000 A 
ATOM      4  C   UNL     1      -0.297  11.125  18.498  0.00  0.00    +0.000 A 
ATOM      5  N   UNL     1      -1.542  10.729  17.982  0.00  0.00    +0.000 N 
ATOM      6  N   UNL     1      -1.789   9.749  17.062  0.00  0.00    +0.000 NA
ATOM      7  C   UNL     1      -3.122   9.735  16.956  0.00  0.00    +0.000 A 
ATOM      8  C   UNL     1      -3.747  10.705  17.753  0.00  0.00    +0.000 A 
ATOM      9 CL   UNL     1      -5.410  10.982  17.876  0.00  0.00    +0.000 Cl
ATOM     10  C   UNL     1      -2.718  11.369  18.397  0.00  0.00    +0.000 A 
ATOM     11  N   UNL     1      -2.719  12.424  19.266  0.00  0.00    +0.000 NA
ATOM     12  H   UNL     1      -0.571  14.348  20.684  0.00  0.00    +0.000 HD
ENDROOT
BRANCH   1  16
ATOM     13  C   UNL     1      -1.327  14.625  24.183  0.00  0.00    +0.000 C 
ATOM     14  C   UNL     1      -1.693  13.273  23.560  0.00  0.00    +0.000 C 
ATOM     15  C   UNL     1      -2.844  13.389  22.558  0.00  0.00    +0.000 C 
ATOM     16  C   UNL     1      -2.549  14.398  21.437  0.00  0.00    +0.000 C 
ATOM     17  C   UNL     1      -2.161  15.763  22.038  0.00  0.00    +0.000 C 
ATOM     18  C   UNL     1      -1.051  15.668  23.092  0.00  0.00    +0.000 C 
BRANCH  13  19
ATOM     19  N   UNL     1      -2.384  15.085  25.086  0.00  0.00    +0.000 NA
ATOM     20  H   UNL     1      -2.967  14.293  25.358  0.00  0.00    +0.000 HD
ATOM     21  H   UNL     1      -3.010  15.738  24.616  0.00  0.00    +0.000 HD
ENDBRANCH  13  19
ENDBRANCH   1  16
BRANCH   4  22
ATOM     22  N   UNL     1       0.870  10.498  18.050  0.00  0.00    +0.000 N 
ATOM     23  H   UNL     1       1.571  11.148  17.685  0.00  0.00    +0.000 HD
BRANCH  22  24
ATOM     24  C   UNL     1       1.424   9.362  18.697  0.00  0.00    +0.000 A 
ATOM     25  C   UNL     1       1.146   9.067  20.048  0.00  0.00    +0.000 A 
ATOM     26  C   UNL     1       1.532   7.867  20.631  0.00  0.00    +0.000 A 
ATOM     27  C   UNL     1       2.224   6.936  19.883  0.00  0.00    +0.000 A 
ATOM     28  F   UNL     1       2.543   5.763  20.450  0.00  0.00    +0.000 F 
ATOM     29  C   UNL     1       2.549   7.207  18.558  0.00  0.00    +0.000 A 
ATOM     30 CL   UNL     1       3.364   6.025  17.610  0.00  0.00    +0.000 Cl
ATOM     31  C   UNL     1       2.162   8.421  17.967  0.00  0.00    +0.000 A 
ENDBRANCH  22  24
ENDBRANCH   4  22
TORSDOF 4
ENDMDL
MODEL 7
REMARK VINA RESULT:      -7.0      3.273      3.813
REMARK  Name = 
REMARK  4 active torsions:
REMARK  status: ('A' for Active; 'I' for Inactive)
REMARK    1  A    between atoms: N_1  and  C_2
REMARK    2  A    between atoms: C_5  and  N_6
REMARK    3  A    between atoms: C_9  and  N_10
REMARK    4  A    between atoms: N_10  and  C_11
REMARK                            x       y       z     vdW  Elec       q    Type
REMARK                         _______ _______ _______ _____ _____    ______ ____
ROOT
ATOM      1  N   UNL     1       2.594   7.215  19.188  0.00  0.00    +0.000 N 
ATOM      2  C   UNL     1       1.830   8.277  19.616  0.00  0.00    +0.000 A 
ATOM      3  C   UNL     1       1.479   9.303  18.587  0.00  0.00    +0.000 A 
ATOM      4  C   UNL     1       0.854  10.437  18.979  0.00  0.00    +0.000 A 
ATOM      5  N   UNL     1       0.459  10.531  20.324  0.00  0.00    +0.000 N 
ATOM      6  N   UNL     1      -0.195  11.567  20.930  0.00  0.00    +0.000 NA
ATOM      7  C   UNL     1      -0.380  11.142  22.184  0.00  0.00    +0.000 A 
ATOM      8  C   UNL     1       0.169   9.873  22.422  0.00  0.00    +0.000 A 
ATOM      9 CL   UNL     1       0.130   9.021  23.880  0.00  0.00    +0.000 Cl
ATOM     10  C   UNL     1       0.739   9.490  21.220  0.00  0.00    +0.000 A 
ATOM     11  N   UNL     1       1.440   8.373  20.861  0.00  0.00    +0.000 NA
ATOM     12  H   UNL     1       3.106   7.317  18.324  0.00  0.00    +0.000 HD
ENDROOT
BRANCH   1  16
ATOM     13  C   UNL     1       3.161   3.967  17.550  0.00  0.00    +0.000 C 
ATOM     14  C   UNL     1       1.798   4.646  17.726  0.00  0.00    +0.000 C 
ATOM     15  C   UNL     1       1.511   4.998  19.187  0.00  0.00    +0.000 C 
ATOM     16  C   UNL     1       2.602   5.889  19.803  0.00  0.00    +0.000 C 
ATOM     17  C   UNL     1       3.986   5.235  19.625  0.00  0.00    +0.000 C 
ATOM     18  C   UNL     1       4.275   4.815  18.179  0.00  0.00    +0.000 C 
BRANCH  13  19
ATOM     19  N   UNL     1       3.148   2.619  18.124  0.00  0.00    +0.000 NA
ATOM     20  H   UNL     1       4.097   2.244  18.131  0.00  0.00    +0.000 HD
ATOM     21  H   UNL     1       2.605   1.979  17.547  0.00  0.00    +0.000 HD
ENDBRANCH  13  19
ENDBRANCH   1  16
BRANCH   4  22
ATOM     22  N   UNL     1       0.595  11.498  18.106  0.00  0.00    +0.000 N 
ATOM     23  H   UNL     1      -0.330  11.456  17.671  0.00  0.00    +0.000 HD
BRANCH  22  24
ATOM     24  C   UNL     1       1.053  12.820  18.352  0.00  0.00    +0.000 A 
ATOM     25  C   UNL     1       2.418  13.163  18.261  0.00  0.00    +0.000 A 
ATOM     26  C   UNL     1       2.848  14.482  18.319  0.00  0.00    +0.000 A 
ATOM     27  C   UNL     1       1.924  15.495  18.488  0.00  0.00    +0.000 A 
ATOM     28  F   UNL     1       2.355  16.764  18.490  0.00  0.00    +0.000 F 
ATOM     29  C   UNL     1       0.574  15.191  18.620  0.00  0.00    +0.000 A 
ATOM     30 CL   UNL     1      -0.583  16.456  18.777  0.00  0.00    +0.000 Cl
ATOM     31  C   UNL     1       0.136  13.858  18.565  0.00  0.00    +0.000 A 
ENDBRANCH  22  24
ENDBRANCH   4  22
TORSDOF 4
ENDMDL
MODEL 8
REMARK VINA RESULT:      -7.0      7.994      8.738
REMARK  Name = 
REMARK  4 active torsions:
REMARK  status: ('A' for Active; 'I' for Inactive)
REMARK    1  A    between atoms: N_1  and  C_2
REMARK    2  A    between atoms: C_5  and  N_6
REMARK    3  A    between atoms: C_9  and  N_10
REMARK    4  A    between atoms: N_10  and  C_11
REMARK                            x       y       z     vdW  Elec       q    Type
REMARK                         _______ _______ _______ _____ _____    ______ ____
ROOT
ATOM      1  N   UNL     1       8.447  14.406  17.869  0.00  0.00    +0.000 N 
ATOM      2  C   UNL     1       7.313  15.052  18.307  0.00  0.00    +0.000 A 
ATOM      3  C   UNL     1       6.011  14.551  17.769  0.00  0.00    +0.000 A 
ATOM      4  C   UNL     1       4.878  15.235  18.052  0.00  0.00    +0.000 A 
ATOM      5  N   UNL     1       4.977  16.317  18.942  0.00  0.00    +0.000 N 
ATOM      6  N   UNL     1       3.969  17.132  19.378  0.00  0.00    +0.000 NA
ATOM      7  C   UNL     1       4.572  17.956  20.242  0.00  0.00    +0.000 A 
ATOM      8  C   UNL     1       5.951  17.726  20.350  0.00  0.00    +0.000 A 
ATOM      9 CL   UNL     1       7.033  18.568  21.339  0.00  0.00    +0.000 Cl
ATOM     10  C   UNL     1       6.217  16.680  19.484  0.00  0.00    +0.000 A 
ATOM     11  N   UNL     1       7.384  16.051  19.148  0.00  0.00    +0.000 NA
ATOM     12  H   UNL     1       8.383  13.854  17.027  0.00  0.00    +0.000 HD
ENDROOT
BRANCH   1  16
ATOM     13  C   UNL     1      11.030  11.792  17.671  0.00  0.00    +0.000 C 
ATOM     14  C   UNL     1       9.829  11.781  18.622  0.00  0.00    +0.000 C 
ATOM     15  C   UNL     1       9.750  13.054  19.469  0.00  0.00    +0.000 C 
ATOM     16  C   UNL     1       9.704  14.329  18.611  0.00  0.00    +0.000 C 
ATOM     17  C   UNL     1      10.894  14.355  17.633  0.00  0.00    +0.000 C 
ATOM     18  C   UNL     1      11.034  13.065  16.815  0.00  0.00    +0.000 C 
BRANCH  13  19
ATOM     19  N   UNL     1      12.285  11.662  18.415  0.00  0.00    +0.000 NA
ATOM     20  H   UNL     1      12.690  10.742  18.242  0.00  0.00    +0.000 HD
ATOM     21  H   UNL     1      12.122  11.706  19.420  0.00  0.00    +0.000 HD
ENDBRANCH  13  19
ENDBRANCH   1  16
BRANCH   4  22
ATOM     22  N   UNL     1       3.639  14.907  17.495  0.00  0.00    +0.000 N 
ATOM     23  H   UNL     1       3.664  14.786  16.479  0.00  0.00    +0.000 HD
BRANCH  22  24
ATOM     24  C   UNL     1       2.707  14.057  18.149  0.00  0.00    +0.000 A 
ATOM     25  C   UNL     1       1.608  14.572  18.867  0.00  0.00    +0.000 A 
ATOM     26  C   UNL     1       0.598  13.751  19.350  0.00  0.00    +0.000 A 
ATOM     27  C   UNL     1       0.669  12.387  19.144  0.00  0.00    +0.000 A 
ATOM     28  F   UNL     1      -0.341  11.618  19.575  0.00  0.00    +0.000 F 
ATOM     29  C   UNL     1       1.758  11.839  18.474  0.00  0.00    +0.000 A 
ATOM     30 CL   UNL     1       1.822  10.146  18.171  0.00  0.00    +0.000 Cl
ATOM     31  C   UNL     1       2.782  12.667  17.987  0.00  0.00    +0.000 A 
ENDBRANCH  22  24
ENDBRANCH   4  22
TORSDOF 4
ENDMDL
MODEL 9
REMARK VINA RESULT:      -7.0      3.739      4.501
REMARK  Name = 
REMARK  4 active torsions:
REMARK  status: ('A' for Active; 'I' for Inactive)
REMARK    1  A    between atoms: N_1  and  C_2
REMARK    2  A    between atoms: C_5  and  N_6
REMARK    3  A    between atoms: C_9  and  N_10
REMARK    4  A    between atoms: N_10  and  C_11
REMARK                            x       y       z     vdW  Elec       q    Type
REMARK                         _______ _______ _______ _____ _____    ______ ____
ROOT
ATOM      1  N   UNL     1       2.468   7.442  18.704  0.00  0.00    +0.000 N 
ATOM      2  C   UNL     1       1.796   8.538  19.198  0.00  0.00    +0.000 A 
ATOM      3  C   UNL     1       1.660   9.706  18.275  0.00  0.00    +0.000 A 
ATOM      4  C   UNL     1       1.136  10.859  18.751  0.00  0.00    +0.000 A 
ATOM      5  N   UNL     1       0.637  10.854  20.063  0.00  0.00    +0.000 N 
ATOM      6  N   UNL     1       0.055  11.891  20.738  0.00  0.00    +0.000 NA
ATOM      7  C   UNL     1      -0.289  11.358  21.915  0.00  0.00    +0.000 A 
ATOM      8  C   UNL     1       0.087  10.012  22.040  0.00  0.00    +0.000 A 
ATOM      9 CL   UNL     1      -0.181   9.017  23.380  0.00  0.00    +0.000 Cl
ATOM     10  C   UNL     1       0.713   9.695  20.848  0.00  0.00    +0.000 A 
ATOM     11  N   UNL     1       1.311   8.545  20.411  0.00  0.00    +0.000 NA
ATOM     12  H   UNL     1       3.064   7.573  17.900  0.00  0.00    +0.000 HD
ENDROOT
BRANCH   1  16
ATOM     13  C   UNL     1       4.653   4.536  18.130  0.00  0.00    +0.000 C 
ATOM     14  C   UNL     1       3.511   4.983  17.210  0.00  0.00    +0.000 C 
ATOM     15  C   UNL     1       2.181   5.109  17.957  0.00  0.00    +0.000 C 
ATOM     16  C   UNL     1       2.268   6.066  19.156  0.00  0.00    +0.000 C 
ATOM     17  C   UNL     1       3.420   5.647  20.089  0.00  0.00    +0.000 C 
ATOM     18  C   UNL     1       4.754   5.453  19.356  0.00  0.00    +0.000 C 
BRANCH  13  19
ATOM     19  N   UNL     1       4.475   3.140  18.539  0.00  0.00    +0.000 NA
ATOM     20  H   UNL     1       3.701   2.729  18.017  0.00  0.00    +0.000 HD
ATOM     21  H   UNL     1       4.209   3.076  19.520  0.00  0.00    +0.000 HD
ENDBRANCH  13  19
ENDBRANCH   1  16
BRANCH   4  22
ATOM     22  N   UNL     1       1.081  12.033  17.993  0.00  0.00    +0.000 N 
ATOM     23  H   UNL     1       0.151  12.238  17.620  0.00  0.00    +0.000 HD
BRANCH  22  24
ATOM     24  C   UNL     1       1.832  13.193  18.324  0.00  0.00    +0.000 A 
ATOM     25  C   UNL     1       3.233  13.241  18.162  0.00  0.00    +0.000 A 
ATOM     26  C   UNL     1       3.946  14.424  18.308  0.00  0.00    +0.000 A 
ATOM     27  C   UNL     1       3.280  15.588  18.637  0.00  0.00    +0.000 A 
ATOM     28  F   UNL     1       3.981  16.728  18.722  0.00  0.00    +0.000 F 
ATOM     29  C   UNL     1       1.905  15.570  18.841  0.00  0.00    +0.000 A 
ATOM     30 CL   UNL     1       1.066  17.030  19.199  0.00  0.00    +0.000 Cl
ATOM     31  C   UNL     1       1.181  14.375  18.698  0.00  0.00    +0.000 A 
ENDBRANCH  22  24
ENDBRANCH   4  22
TORSDOF 4
ENDMDL
