MODEL 1
REMARK VINA RESULT:      -7.9      0.000      0.000
REMARK  Name = 
REMARK  5 active torsions:
REMARK  status: ('A' for Active; 'I' for Inactive)
REMARK    1  A    between atoms: N_1  and  C_2
REMARK    2  A    between atoms: C_6  and  C_7
REMARK    3  A    between atoms: C_7  and  O_8
REMARK    4  A    between atoms: O_8  and  C_9
REMARK    5  A    between atoms: C_12  and  C_13
REMARK                            x       y       z     vdW  Elec       q    Type
REMARK                         _______ _______ _______ _____ _____    ______ ____
ROOT
ATOM      1  O   UNL     1       4.840   4.705  15.976  0.00  0.00    +0.000 OA
ENDROOT
BRANCH   1   2
ATOM      2  C   UNL     1       4.054   4.587  17.092  0.00  0.00    +0.000 A 
ATOM      3  C   UNL     1       3.764   3.254  17.417  0.00  0.00    +0.000 A 
ATOM      4  C   UNL     1       2.960   2.929  18.515  0.00  0.00    +0.000 A 
ATOM      5  C   UNL     1       2.416   3.940  19.312  0.00  0.00    +0.000 A 
ATOM      6  C   UNL     1       2.690   5.277  18.979  0.00  0.00    +0.000 A 
ATOM      7  C   UNL     1       3.485   5.604  17.871  0.00  0.00    +0.000 A 
ATOM      8 CL   UNL     1       3.617   7.292  17.527  0.00  0.00    +0.000 Cl
BRANCH   5   9
ATOM      9  C   UNL     1       1.538   3.634  20.499  0.00  0.00    +0.000 C 
ATOM     10  F   UNL     1       0.282   4.150  20.398  0.00  0.00    +0.000 F 
ATOM     11  F   UNL     1       1.379   2.296  20.693  0.00  0.00    +0.000 F 
ATOM     12  F   UNL     1       2.052   4.121  21.662  0.00  0.00    +0.000 F 
ENDBRANCH   5   9
ENDBRANCH   1   2
BRANCH   1  13
ATOM     13  C   UNL     1       6.207   4.311  16.090  0.00  0.00    +0.000 C 
BRANCH  13  18
ATOM     14  C   UNL     1       8.084   5.708  19.115  0.00  0.00    +0.000 A 
ATOM     15  C   UNL     1       8.154   7.060  18.775  0.00  0.00    +0.000 A 
ATOM     16  C   UNL     1       7.674   7.512  17.544  0.00  0.00    +0.000 A 
ATOM     17  C   UNL     1       7.077   6.617  16.657  0.00  0.00    +0.000 A 
ATOM     18  C   UNL     1       6.936   5.268  17.003  0.00  0.00    +0.000 A 
ATOM     19  C   UNL     1       7.426   4.832  18.246  0.00  0.00    +0.000 A 
BRANCH  14  20
ATOM     20  N   UNL     1       8.447   5.282  20.399  0.00  0.00    +0.000 N 
ATOM     21  H   UNL     1       8.282   5.980  21.118  0.00  0.00    +0.000 HD
ATOM     22  H   UNL     1       9.384   4.894  20.450  0.00  0.00    +0.000 HD
ENDBRANCH  14  20
ENDBRANCH  13  18
ENDBRANCH   1  13
TORSDOF 5
ENDMDL
MODEL 2
REMARK VINA RESULT:      -7.9      0.535      1.049
REMARK  Name = 
REMARK  5 active torsions:
REMARK  status: ('A' for Active; 'I' for Inactive)
REMARK    1  A    between atoms: N_1  and  C_2
REMARK    2  A    between atoms: C_6  and  C_7
REMARK    3  A    between atoms: C_7  and  O_8
REMARK    4  A    between atoms: O_8  and  C_9
REMARK    5  A    between atoms: C_12  and  C_13
REMARK                            x       y       z     vdW  Elec       q    Type
REMARK                         _______ _______ _______ _____ _____    ______ ____
ROOT
ATOM      1  O   UNL     1       4.835   4.454  15.920  0.00  0.00    +0.000 OA
ENDROOT
BRANCH   1   2
ATOM      2  C   UNL     1       3.989   4.274  16.982  0.00  0.00    +0.000 A 
ATOM      3  C   UNL     1       3.677   2.925  17.209  0.00  0.00    +0.000 A 
ATOM      4  C   UNL     1       2.812   2.539  18.239  0.00  0.00    +0.000 A 
ATOM      5  C   UNL     1       2.227   3.504  19.064  0.00  0.00    +0.000 A 
ATOM      6  C   UNL     1       2.523   4.856  18.829  0.00  0.00    +0.000 A 
ATOM      7  C   UNL     1       3.380   5.245  17.789  0.00  0.00    +0.000 A 
ATOM      8 CL   UNL     1       3.535   6.950  17.556  0.00  0.00    +0.000 Cl
BRANCH   5   9
ATOM      9  C   UNL     1       1.283   3.132  20.180  0.00  0.00    +0.000 C 
ATOM     10  F   UNL     1       1.736   2.114  20.963  0.00  0.00    +0.000 F 
ATOM     11  F   UNL     1       1.042   4.174  21.022  0.00  0.00    +0.000 F 
ATOM     12  F   UNL     1       0.066   2.735  19.717  0.00  0.00    +0.000 F 
ENDBRANCH   5   9
ENDBRANCH   1   2
BRANCH   1  13
ATOM     13  C   UNL     1       6.202   4.084  16.101  0.00  0.00    +0.000 C 
BRANCH  13  18
ATOM     14  C   UNL     1       8.023   5.689  19.056  0.00  0.00    +0.000 A 
ATOM     15  C   UNL     1       8.046   7.024  18.653  0.00  0.00    +0.000 A 
ATOM     16  C   UNL     1       7.554   7.400  17.401  0.00  0.00    +0.000 A 
ATOM     17  C   UNL     1       6.990   6.444  16.557  0.00  0.00    +0.000 A 
ATOM     18  C   UNL     1       6.896   5.109  16.968  0.00  0.00    +0.000 A 
ATOM     19  C   UNL     1       7.398   4.750  18.230  0.00  0.00    +0.000 A 
BRANCH  14  20
ATOM     20  N   UNL     1       8.398   5.337  20.360  0.00  0.00    +0.000 N 
ATOM     21  H   UNL     1       8.844   6.094  20.870  0.00  0.00    +0.000 HD
ATOM     22  H   UNL     1       8.930   4.475  20.412  0.00  0.00    +0.000 HD
ENDBRANCH  14  20
ENDBRANCH  13  18
ENDBRANCH   1  13
TORSDOF 5
ENDMDL
MODEL 3
REMARK VINA RESULT:      -7.5      2.881      3.786
REMARK  Name = 
REMARK  5 active torsions:
REMARK  status: ('A' for Active; 'I' for Inactive)
REMARK    1  A    between atoms: N_1  and  C_2
REMARK    2  A    between atoms: C_6  and  C_7
REMARK    3  A    between atoms: C_7  and  O_8
REMARK    4  A    between atoms: O_8  and  C_9
REMARK    5  A    between atoms: C_12  and  C_13
REMARK                            x       y       z     vdW  Elec       q    Type
REMARK                         _______ _______ _______ _____ _____    ______ ____
ROOT
ATOM      1  O   UNL     1       5.313   5.441  16.384  0.00  0.00    +0.000 OA
ENDROOT
BRANCH   1   2
ATOM      2  C   UNL     1       4.280   4.976  17.155  0.00  0.00    +0.000 A 
ATOM      3  C   UNL     1       4.191   3.575  17.161  0.00  0.00    +0.000 A 
ATOM      4  C   UNL     1       3.189   2.911  17.877  0.00  0.00    +0.000 A 
ATOM      5  C   UNL     1       2.242   3.640  18.601  0.00  0.00    +0.000 A 
ATOM      6  C   UNL     1       2.318   5.042  18.583  0.00  0.00    +0.000 A 
ATOM      7  C   UNL     1       3.313   5.709  17.855  0.00  0.00    +0.000 A 
ATOM      8 CL   UNL     1       3.187   7.433  17.836  0.00  0.00    +0.000 Cl
BRANCH   5   9
ATOM      9  C   UNL     1       1.141   2.964  19.379  0.00  0.00    +0.000 C 
ATOM     10  F   UNL     1       0.399   3.821  20.133  0.00  0.00    +0.000 F 
ATOM     11  F   UNL     1       0.259   2.315  18.571  0.00  0.00    +0.000 F 
ATOM     12  F   UNL     1       1.619   2.024  20.241  0.00  0.00    +0.000 F 
ENDBRANCH   5   9
ENDBRANCH   1   2
BRANCH   1  13
ATOM     13  C   UNL     1       6.387   4.540  16.112  0.00  0.00    +0.000 C 
BRANCH  13  18
ATOM     14  C   UNL     1       6.213   3.378  12.473  0.00  0.00    +0.000 A 
ATOM     15  C   UNL     1       7.162   4.216  11.887  0.00  0.00    +0.000 A 
ATOM     16  C   UNL     1       7.798   5.207  12.637  0.00  0.00    +0.000 A 
ATOM     17  C   UNL     1       7.522   5.339  13.997  0.00  0.00    +0.000 A 
ATOM     18  C   UNL     1       6.622   4.467  14.622  0.00  0.00    +0.000 A 
ATOM     19  C   UNL     1       5.990   3.476  13.850  0.00  0.00    +0.000 A 
BRANCH  14  20
ATOM     20  N   UNL     1       5.675   2.305  11.750  0.00  0.00    +0.000 N 
ATOM     21  H   UNL     1       5.799   1.407  12.208  0.00  0.00    +0.000 HD
ATOM     22  H   UNL     1       5.965   2.282  10.778  0.00  0.00    +0.000 HD
ENDBRANCH  14  20
ENDBRANCH  13  18
ENDBRANCH   1  13
TORSDOF 5
ENDMDL
MODEL 4
REMARK VINA RESULT:      -7.5      1.478      1.904
REMARK  Name = 
REMARK  5 active torsions:
REMARK  status: ('A' for Active; 'I' for Inactive)
REMARK    1  A    between atoms: N_1  and  C_2
REMARK    2  A    between atoms: C_6  and  C_7
REMARK    3  A    between atoms: C_7  and  O_8
REMARK    4  A    between atoms: O_8  and  C_9
REMARK    5  A    between atoms: C_12  and  C_13
REMARK                            x       y       z     vdW  Elec       q    Type
REMARK                         _______ _______ _______ _____ _____    ______ ____
ROOT
ATOM      1  O   UNL     1       4.825   4.286  15.964  0.00  0.00    +0.000 OA
ENDROOT
BRANCH   1   2
ATOM      2  C   UNL     1       4.045   4.330  17.090  0.00  0.00    +0.000 A 
ATOM      3  C   UNL     1       3.731   5.639  17.487  0.00  0.00    +0.000 A 
ATOM      4  C   UNL     1       2.958   5.890  18.625  0.00  0.00    +0.000 A 
ATOM      5  C   UNL     1       2.488   4.829  19.404  0.00  0.00    +0.000 A 
ATOM      6  C   UNL     1       2.814   3.519  19.019  0.00  0.00    +0.000 A 
ATOM      7  C   UNL     1       3.600   3.266  17.886  0.00  0.00    +0.000 A 
ATOM      8 CL   UNL     1       4.016   1.608  17.628  0.00  0.00    +0.000 Cl
BRANCH   5   9
ATOM      9  C   UNL     1       1.658   5.057  20.643  0.00  0.00    +0.000 C 
ATOM     10  F   UNL     1       0.428   4.477  20.591  0.00  0.00    +0.000 F 
ATOM     11  F   UNL     1       2.257   4.567  21.763  0.00  0.00    +0.000 F 
ATOM     12  F   UNL     1       1.440   6.379  20.884  0.00  0.00    +0.000 F 
ENDBRANCH   5   9
ENDBRANCH   1   2
BRANCH   1  13
ATOM     13  C   UNL     1       6.202   3.951  16.132  0.00  0.00    +0.000 C 
BRANCH  13  18
ATOM     14  C   UNL     1       7.970   5.675  19.053  0.00  0.00    +0.000 A 
ATOM     15  C   UNL     1       8.012   6.990  18.590  0.00  0.00    +0.000 A 
ATOM     16  C   UNL     1       7.550   7.313  17.312  0.00  0.00    +0.000 A 
ATOM     17  C   UNL     1       6.998   6.323  16.500  0.00  0.00    +0.000 A 
ATOM     18  C   UNL     1       6.884   5.009  16.967  0.00  0.00    +0.000 A 
ATOM     19  C   UNL     1       7.356   4.703  18.256  0.00  0.00    +0.000 A 
BRANCH  14  20
ATOM     20  N   UNL     1       8.313   5.380  20.379  0.00  0.00    +0.000 N 
ATOM     21  H   UNL     1       9.295   5.531  20.585  0.00  0.00    +0.000 HD
ATOM     22  H   UNL     1       7.993   4.468  20.689  0.00  0.00    +0.000 HD
ENDBRANCH  14  20
ENDBRANCH  13  18
ENDBRANCH   1  13
TORSDOF 5
ENDMDL
MODEL 5
REMARK VINA RESULT:      -7.4      4.356      6.330
REMARK  Name = 
REMARK  5 active torsions:
REMARK  status: ('A' for Active; 'I' for Inactive)
REMARK    1  A    between atoms: N_1  and  C_2
REMARK    2  A    between atoms: C_6  and  C_7
REMARK    3  A    between atoms: C_7  and  O_8
REMARK    4  A    between atoms: O_8  and  C_9
REMARK    5  A    between atoms: C_12  and  C_13
REMARK                            x       y       z     vdW  Elec       q    Type
REMARK                         _______ _______ _______ _____ _____    ______ ____
ROOT
ATOM      1  O   UNL     1       4.024   6.332  19.191  0.00  0.00    +0.000 OA
ENDROOT
BRANCH   1   2
ATOM      2  C   UNL     1       4.555   5.755  18.068  0.00  0.00    +0.000 A 
ATOM      3  C   UNL     1       4.568   6.620  16.963  0.00  0.00    +0.000 A 
ATOM      4  C   UNL     1       5.056   6.207  15.719  0.00  0.00    +0.000 A 
ATOM      5  C   UNL     1       5.536   4.905  15.550  0.00  0.00    +0.000 A 
ATOM      6  C   UNL     1       5.509   4.032  16.648  0.00  0.00    +0.000 A 
ATOM      7  C   UNL     1       5.008   4.440  17.893  0.00  0.00    +0.000 A 
ATOM      8 CL   UNL     1       4.928   3.206  19.100  0.00  0.00    +0.000 Cl
BRANCH   5   9
ATOM      9  C   UNL     1       6.064   4.417  14.223  0.00  0.00    +0.000 C 
ATOM     10  F   UNL     1       6.614   3.173  14.278  0.00  0.00    +0.000 F 
ATOM     11  F   UNL     1       5.093   4.356  13.271  0.00  0.00    +0.000 F 
ATOM     12  F   UNL     1       7.030   5.233  13.719  0.00  0.00    +0.000 F 
ENDBRANCH   5   9
ENDBRANCH   1   2
BRANCH   1  13
ATOM     13  C   UNL     1       2.603   6.448  19.260  0.00  0.00    +0.000 C 
BRANCH  13  18
ATOM     14  C   UNL     1       1.401   3.228  20.937  0.00  0.00    +0.000 A 
ATOM     15  C   UNL     1       1.001   2.490  19.823  0.00  0.00    +0.000 A 
ATOM     16  C   UNL     1       1.040   3.049  18.544  0.00  0.00    +0.000 A 
ATOM     17  C   UNL     1       1.523   4.344  18.364  0.00  0.00    +0.000 A 
ATOM     18  C   UNL     1       1.991   5.082  19.458  0.00  0.00    +0.000 A 
ATOM     19  C   UNL     1       1.943   4.502  20.738  0.00  0.00    +0.000 A 
BRANCH  14  20
ATOM     20  N   UNL     1       1.483   2.621  22.197  0.00  0.00    +0.000 N 
ATOM     21  H   UNL     1       1.669   1.624  22.153  0.00  0.00    +0.000 HD
ATOM     22  H   UNL     1       0.700   2.837  22.805  0.00  0.00    +0.000 HD
ENDBRANCH  14  20
ENDBRANCH  13  18
ENDBRANCH   1  13
TORSDOF 5
ENDMDL
MODEL 6
REMARK VINA RESULT:      -7.3      1.082      1.669
REMARK  Name = 
REMARK  5 active torsions:
REMARK  status: ('A' for Active; 'I' for Inactive)
REMARK    1  A    between atoms: N_1  and  C_2
REMARK    2  A    between atoms: C_6  and  C_7
REMARK    3  A    between atoms: C_7  and  O_8
REMARK    4  A    between atoms: O_8  and  C_9
REMARK    5  A    between atoms: C_12  and  C_13
REMARK                            x       y       z     vdW  Elec       q    Type
REMARK                         _______ _______ _______ _____ _____    ______ ____
ROOT
ATOM      1  O   UNL     1       4.853   4.611  15.979  0.00  0.00    +0.000 OA
ENDROOT
BRANCH   1   2
ATOM      2  C   UNL     1       4.063   4.559  17.097  0.00  0.00    +0.000 A 
ATOM      3  C   UNL     1       3.755   3.246  17.488  0.00  0.00    +0.000 A 
ATOM      4  C   UNL     1       2.944   2.987  18.598  0.00  0.00    +0.000 A 
ATOM      5  C   UNL     1       2.410   4.044  19.340  0.00  0.00    +0.000 A 
ATOM      6  C   UNL     1       2.702   5.358  18.942  0.00  0.00    +0.000 A 
ATOM      7  C   UNL     1       3.504   5.620  17.822  0.00  0.00    +0.000 A 
ATOM      8 CL   UNL     1       3.658   7.287  17.394  0.00  0.00    +0.000 Cl
BRANCH   5   9
ATOM      9  C   UNL     1       1.524   3.809  20.538  0.00  0.00    +0.000 C 
ATOM     10  F   UNL     1       0.834   2.637  20.486  0.00  0.00    +0.000 F 
ATOM     11  F   UNL     1       2.228   3.778  21.704  0.00  0.00    +0.000 F 
ATOM     12  F   UNL     1       0.591   4.788  20.692  0.00  0.00    +0.000 F 
ENDBRANCH   5   9
ENDBRANCH   1   2
BRANCH   1  13
ATOM     13  C   UNL     1       6.231   4.270  16.133  0.00  0.00    +0.000 C 
BRANCH  13  18
ATOM     14  C   UNL     1       7.645   7.453  17.711  0.00  0.00    +0.000 A 
ATOM     15  C   UNL     1       8.212   6.935  18.876  0.00  0.00    +0.000 A 
ATOM     16  C   UNL     1       8.073   5.583  19.198  0.00  0.00    +0.000 A 
ATOM     17  C   UNL     1       7.399   4.725  18.329  0.00  0.00    +0.000 A 
ATOM     18  C   UNL     1       6.879   5.209  17.123  0.00  0.00    +0.000 A 
ATOM     19  C   UNL     1       7.028   6.573  16.817  0.00  0.00    +0.000 A 
BRANCH  14  20
ATOM     20  N   UNL     1       7.898   8.777  17.330  0.00  0.00    +0.000 N 
ATOM     21  H   UNL     1       7.312   9.096  16.564  0.00  0.00    +0.000 HD
ATOM     22  H   UNL     1       8.880   8.974  17.168  0.00  0.00    +0.000 HD
ENDBRANCH  14  20
ENDBRANCH  13  18
ENDBRANCH   1  13
TORSDOF 5
ENDMDL
MODEL 7
REMARK VINA RESULT:      -7.2      3.043      4.014
REMARK  Name = 
REMARK  5 active torsions:
REMARK  status: ('A' for Active; 'I' for Inactive)
REMARK    1  A    between atoms: N_1  and  C_2
REMARK    2  A    between atoms: C_6  and  C_7
REMARK    3  A    between atoms: C_7  and  O_8
REMARK    4  A    between atoms: O_8  and  C_9
REMARK    5  A    between atoms: C_12  and  C_13
REMARK                            x       y       z     vdW  Elec       q    Type
REMARK                         _______ _______ _______ _____ _____    ______ ____
ROOT
ATOM      1  O   UNL     1       5.543   3.904  16.560  0.00  0.00    +0.000 OA
ENDROOT
BRANCH   1   2
ATOM      2  C   UNL     1       4.589   3.854  17.542  0.00  0.00    +0.000 A 
ATOM      3  C   UNL     1       3.395   3.252  17.114  0.00  0.00    +0.000 A 
ATOM      4  C   UNL     1       2.295   3.124  17.969  0.00  0.00    +0.000 A 
ATOM      5  C   UNL     1       2.363   3.608  19.279  0.00  0.00    +0.000 A 
ATOM      6  C   UNL     1       3.549   4.225  19.705  0.00  0.00    +0.000 A 
ATOM      7  C   UNL     1       4.648   4.367  18.845  0.00  0.00    +0.000 A 
ATOM      8 CL   UNL     1       5.979   5.263  19.486  0.00  0.00    +0.000 Cl
BRANCH   5   9
ATOM      9  C   UNL     1       1.198   3.497  20.230  0.00  0.00    +0.000 C 
ATOM     10  F   UNL     1       1.500   2.859  21.394  0.00  0.00    +0.000 F 
ATOM     11  F   UNL     1       0.704   4.714  20.587  0.00  0.00    +0.000 F 
ATOM     12  F   UNL     1       0.151   2.814  19.689  0.00  0.00    +0.000 F 
ENDBRANCH   5   9
ENDBRANCH   1   2
BRANCH   1  13
ATOM     13  C   UNL     1       5.585   5.076  15.747  0.00  0.00    +0.000 C 
BRANCH  13  18
ATOM     14  C   UNL     1       6.104   3.327  12.386  0.00  0.00    +0.000 A 
ATOM     15  C   UNL     1       7.256   3.972  11.933  0.00  0.00    +0.000 A 
ATOM     16  C   UNL     1       7.820   5.021  12.662  0.00  0.00    +0.000 A 
ATOM     17  C   UNL     1       7.259   5.405  13.879  0.00  0.00    +0.000 A 
ATOM     18  C   UNL     1       6.143   4.730  14.386  0.00  0.00    +0.000 A 
ATOM     19  C   UNL     1       5.588   3.678  13.637  0.00  0.00    +0.000 A 
BRANCH  14  20
ATOM     20  N   UNL     1       5.619   2.194  11.719  0.00  0.00    +0.000 N 
ATOM     21  H   UNL     1       5.892   1.320  12.157  0.00  0.00    +0.000 HD
ATOM     22  H   UNL     1       5.807   2.197  10.722  0.00  0.00    +0.000 HD
ENDBRANCH  14  20
ENDBRANCH  13  18
ENDBRANCH   1  13
TORSDOF 5
ENDMDL
MODEL 8
REMARK VINA RESULT:      -7.2      3.053      3.918
REMARK  Name = 
REMARK  5 active torsions:
REMARK  status: ('A' for Active; 'I' for Inactive)
REMARK    1  A    between atoms: N_1  and  C_2
REMARK    2  A    between atoms: C_6  and  C_7
REMARK    3  A    between atoms: C_7  and  O_8
REMARK    4  A    between atoms: O_8  and  C_9
REMARK    5  A    between atoms: C_12  and  C_13
REMARK                            x       y       z     vdW  Elec       q    Type
REMARK                         _______ _______ _______ _____ _____    ______ ____
ROOT
ATOM      1  O   UNL     1       5.458   3.887  16.482  0.00  0.00    +0.000 OA
ENDROOT
BRANCH   1   2
ATOM      2  C   UNL     1       4.609   4.060  17.543  0.00  0.00    +0.000 A 
ATOM      3  C   UNL     1       3.297   3.646  17.265  0.00  0.00    +0.000 A 
ATOM      4  C   UNL     1       2.279   3.760  18.218  0.00  0.00    +0.000 A 
ATOM      5  C   UNL     1       2.552   4.303  19.477  0.00  0.00    +0.000 A 
ATOM      6  C   UNL     1       3.860   4.734  19.752  0.00  0.00    +0.000 A 
ATOM      7  C   UNL     1       4.878   4.633  18.793  0.00  0.00    +0.000 A 
ATOM      8 CL   UNL     1       6.394   5.326  19.247  0.00  0.00    +0.000 Cl
BRANCH   5   9
ATOM      9  C   UNL     1       1.483   4.451  20.530  0.00  0.00    +0.000 C 
ATOM     10  F   UNL     1       1.151   5.744  20.796  0.00  0.00    +0.000 F 
ATOM     11  F   UNL     1       0.322   3.831  20.180  0.00  0.00    +0.000 F 
ATOM     12  F   UNL     1       1.852   3.906  21.722  0.00  0.00    +0.000 F 
ENDBRANCH   5   9
ENDBRANCH   1   2
BRANCH   1  13
ATOM     13  C   UNL     1       5.987   5.062  15.867  0.00  0.00    +0.000 C 
BRANCH  13  18
ATOM     14  C   UNL     1       6.158   3.384  12.434  0.00  0.00    +0.000 A 
ATOM     15  C   UNL     1       7.240   4.060  11.869  0.00  0.00    +0.000 A 
ATOM     16  C   UNL     1       7.863   5.107  12.551  0.00  0.00    +0.000 A 
ATOM     17  C   UNL     1       7.435   5.458  13.831  0.00  0.00    +0.000 A 
ATOM     18  C   UNL     1       6.395   4.751  14.446  0.00  0.00    +0.000 A 
ATOM     19  C   UNL     1       5.779   3.701  13.742  0.00  0.00    +0.000 A 
BRANCH  14  20
ATOM     20  N   UNL     1       5.622   2.254  11.803  0.00  0.00    +0.000 N 
ATOM     21  H   UNL     1       5.632   1.423  12.387  0.00  0.00    +0.000 HD
ATOM     22  H   UNL     1       6.011   2.079  10.882  0.00  0.00    +0.000 HD
ENDBRANCH  14  20
ENDBRANCH  13  18
ENDBRANCH   1  13
TORSDOF 5
ENDMDL
MODEL 9
REMARK VINA RESULT:      -7.1      2.696      3.479
REMARK  Name = 
REMARK  5 active torsions:
REMARK  status: ('A' for Active; 'I' for Inactive)
REMARK    1  A    between atoms: N_1  and  C_2
REMARK    2  A    between atoms: C_6  and  C_7
REMARK    3  A    between atoms: C_7  and  O_8
REMARK    4  A    between atoms: O_8  and  C_9
REMARK    5  A    between atoms: C_12  and  C_13
REMARK                            x       y       z     vdW  Elec       q    Type
REMARK                         _______ _______ _______ _____ _____    ______ ____
ROOT
ATOM      1  O   UNL     1       4.862   4.878  16.197  0.00  0.00    +0.000 OA
ENDROOT
BRANCH   1   2
ATOM      2  C   UNL     1       4.039   4.762  17.287  0.00  0.00    +0.000 A 
ATOM      3  C   UNL     1       3.781   3.428  17.637  0.00  0.00    +0.000 A 
ATOM      4  C   UNL     1       2.947   3.105  18.712  0.00  0.00    +0.000 A 
ATOM      5  C   UNL     1       2.341   4.117  19.461  0.00  0.00    +0.000 A 
ATOM      6  C   UNL     1       2.583   5.453  19.103  0.00  0.00    +0.000 A 
ATOM      7  C   UNL     1       3.408   5.779  18.017  0.00  0.00    +0.000 A 
ATOM      8 CL   UNL     1       3.497   7.461  17.633  0.00  0.00    +0.000 Cl
BRANCH   5   9
ATOM      9  C   UNL     1       1.429   3.812  20.623  0.00  0.00    +0.000 C 
ATOM     10  F   UNL     1       0.264   4.516  20.604  0.00  0.00    +0.000 F 
ATOM     11  F   UNL     1       1.072   2.499  20.670  0.00  0.00    +0.000 F 
ATOM     12  F   UNL     1       2.012   4.083  21.823  0.00  0.00    +0.000 F 
ENDBRANCH   5   9
ENDBRANCH   1   2
BRANCH   1  13
ATOM     13  C   UNL     1       5.511   3.693  15.736  0.00  0.00    +0.000 C 
BRANCH  13  18
ATOM     14  C   UNL     1       7.892   5.138  13.115  0.00  0.00    +0.000 A 
ATOM     15  C   UNL     1       7.347   4.603  11.947  0.00  0.00    +0.000 A 
ATOM     16  C   UNL     1       6.270   3.716  12.003  0.00  0.00    +0.000 A 
ATOM     17  C   UNL     1       5.697   3.390  13.232  0.00  0.00    +0.000 A 
ATOM     18  C   UNL     1       6.184   3.966  14.412  0.00  0.00    +0.000 A 
ATOM     19  C   UNL     1       7.270   4.855  14.335  0.00  0.00    +0.000 A 
BRANCH  14  20
ATOM     20  N   UNL     1       8.885   6.124  13.045  0.00  0.00    +0.000 N 
ATOM     21  H   UNL     1       9.623   5.907  12.384  0.00  0.00    +0.000 HD
ATOM     22  H   UNL     1       9.250   6.398  13.952  0.00  0.00    +0.000 HD
ENDBRANCH  14  20
ENDBRANCH  13  18
ENDBRANCH   1  13
TORSDOF 5
ENDMDL
