MODEL 1
REMARK VINA RESULT:      -7.1      0.000      0.000
REMARK  Name = 
REMARK  6 active torsions:
REMARK  status: ('A' for Active; 'I' for Inactive)
REMARK    1  A    between atoms: C_1  and  O_2
REMARK    2  A    between atoms: O_2  and  C_3
REMARK    3  A    between atoms: C_8  and  C_9
REMARK    4  A    between atoms: C_10  and  C_11
REMARK    5  A    between atoms: N_12  and  N_13
REMARK    6  A    between atoms: C_14  and  C_16
REMARK                            x       y       z     vdW  Elec       q    Type
REMARK                         _______ _______ _______ _____ _____    ______ ____
ROOT
ATOM      1  C   UNL     1       7.429   8.449  17.675  0.00  0.00    +0.000 C 
ATOM      2  N   UNL     1       7.580   7.221  18.053  0.00  0.00    +0.000 NA
ENDROOT
BRANCH   2   3
ATOM      3  N   UNL     1       6.520   6.396  17.853  0.00  0.00    +0.000 N 
ATOM      4  C   UNL     1       6.200   5.403  18.775  0.00  0.00    +0.000 C 
ATOM      5  O   UNL     1       6.769   5.278  19.861  0.00  0.00    +0.000 OA
ATOM      6  H   UNL     1       6.016   6.424  16.974  0.00  0.00    +0.000 HD
BRANCH   4   7
ATOM      7  C   UNL     1       5.136   4.494  18.357  0.00  0.00    +0.000 A 
ATOM      8  C   UNL     1       4.488   4.484  17.133  0.00  0.00    +0.000 A 
ATOM      9  C   UNL     1       3.479   3.479  17.051  0.00  0.00    +0.000 A 
ATOM     10  C   UNL     1       3.383   2.753  18.215  0.00  0.00    +0.000 A 
ATOM     11  S   UNL     1       4.506   3.277  19.391  0.00  0.00    +0.000 S 
ENDBRANCH   4   7
ENDBRANCH   2   3
BRANCH   1  13
ATOM     12  C   UNL     1       8.905  10.010  18.914  0.00  0.00    +0.000 C 
ATOM     13  C   UNL     1       8.570   9.379  17.778  0.00  0.00    +0.000 C 
BRANCH  12  19
ATOM     14  C   UNL     1      10.282  11.717  20.169  0.00  0.00    +0.000 A 
ATOM     15  C   UNL     1      11.298  12.686  20.181  0.00  0.00    +0.000 A 
ATOM     16  C   UNL     1      11.987  13.012  19.014  0.00  0.00    +0.000 A 
ATOM     17  C   UNL     1      11.700  12.344  17.833  0.00  0.00    +0.000 A 
ATOM     18  C   UNL     1      10.727  11.344  17.819  0.00  0.00    +0.000 A 
ATOM     19  C   UNL     1       9.984  11.027  18.973  0.00  0.00    +0.000 A 
BRANCH  14  21
ATOM     20  C   UNL     1       9.085  12.503  22.049  0.00  0.00    +0.000 C 
ATOM     21  O   UNL     1       9.566  11.390  21.296  0.00  0.00    +0.000 OA
ENDBRANCH  14  21
ENDBRANCH  12  19
ENDBRANCH   1  13
TORSDOF 5
ENDMDL
MODEL 2
REMARK VINA RESULT:      -6.9      1.584      1.610
REMARK  Name = 
REMARK  6 active torsions:
REMARK  status: ('A' for Active; 'I' for Inactive)
REMARK    1  A    between atoms: C_1  and  O_2
REMARK    2  A    between atoms: O_2  and  C_3
REMARK    3  A    between atoms: C_8  and  C_9
REMARK    4  A    between atoms: C_10  and  C_11
REMARK    5  A    between atoms: N_12  and  N_13
REMARK    6  A    between atoms: C_14  and  C_16
REMARK                            x       y       z     vdW  Elec       q    Type
REMARK                         _______ _______ _______ _____ _____    ______ ____
ROOT
ATOM      1  C   UNL     1       7.611   7.669  17.731  0.00  0.00    +0.000 C 
ATOM      2  N   UNL     1       6.516   7.620  17.043  0.00  0.00    +0.000 NA
ENDROOT
BRANCH   2   3
ATOM      3  N   UNL     1       5.821   6.455  17.100  0.00  0.00    +0.000 N 
ATOM      4  C   UNL     1       4.452   6.448  17.356  0.00  0.00    +0.000 C 
ATOM      5  O   UNL     1       3.773   7.474  17.434  0.00  0.00    +0.000 OA
ATOM      6  H   UNL     1       6.314   5.569  17.065  0.00  0.00    +0.000 HD
BRANCH   4   7
ATOM      7  C   UNL     1       3.867   5.123  17.542  0.00  0.00    +0.000 A 
ATOM      8  C   UNL     1       4.491   3.904  17.335  0.00  0.00    +0.000 A 
ATOM      9  C   UNL     1       3.634   2.794  17.588  0.00  0.00    +0.000 A 
ATOM     10  C   UNL     1       2.377   3.196  17.978  0.00  0.00    +0.000 A 
ATOM     11  S   UNL     1       2.240   4.897  18.043  0.00  0.00    +0.000 S 
ENDBRANCH   4   7
ENDBRANCH   2   3
BRANCH   1  13
ATOM     12  C   UNL     1       8.864   9.443  18.927  0.00  0.00    +0.000 C 
ATOM     13  C   UNL     1       8.368   8.933  17.789  0.00  0.00    +0.000 C 
BRANCH  12  19
ATOM     14  C   UNL     1       9.641  11.484  20.198  0.00  0.00    +0.000 A 
ATOM     15  C   UNL     1      10.256  12.746  20.209  0.00  0.00    +0.000 A 
ATOM     16  C   UNL     1      10.713  13.328  19.028  0.00  0.00    +0.000 A 
ATOM     17  C   UNL     1      10.600  12.639  17.830  0.00  0.00    +0.000 A 
ATOM     18  C   UNL     1      10.036  11.362  17.813  0.00  0.00    +0.000 A 
ATOM     19  C   UNL     1       9.525  10.770  18.984  0.00  0.00    +0.000 A 
BRANCH  14  21
ATOM     20  C   UNL     1       8.421  11.761  22.203  0.00  0.00    +0.000 C 
ATOM     21  O   UNL     1       9.156  10.893  21.341  0.00  0.00    +0.000 OA
ENDBRANCH  14  21
ENDBRANCH  12  19
ENDBRANCH   1  13
TORSDOF 5
ENDMDL
MODEL 3
REMARK VINA RESULT:      -6.9      1.271      1.283
REMARK  Name = 
REMARK  6 active torsions:
REMARK  status: ('A' for Active; 'I' for Inactive)
REMARK    1  A    between atoms: C_1  and  O_2
REMARK    2  A    between atoms: O_2  and  C_3
REMARK    3  A    between atoms: C_8  and  C_9
REMARK    4  A    between atoms: C_10  and  C_11
REMARK    5  A    between atoms: N_12  and  N_13
REMARK    6  A    between atoms: C_14  and  C_16
REMARK                            x       y       z     vdW  Elec       q    Type
REMARK                         _______ _______ _______ _____ _____    ______ ____
ROOT
ATOM      1  C   UNL     1       7.913   8.734  18.094  0.00  0.00    +0.000 C 
ATOM      2  N   UNL     1       8.308   7.537  18.387  0.00  0.00    +0.000 NA
ENDROOT
BRANCH   2   3
ATOM      3  N   UNL     1       7.352   6.573  18.394  0.00  0.00    +0.000 N 
ATOM      4  C   UNL     1       6.956   5.947  17.214  0.00  0.00    +0.000 C 
ATOM      5  O   UNL     1       7.507   6.137  16.129  0.00  0.00    +0.000 OA
ATOM      6  H   UNL     1       6.839   6.375  19.246  0.00  0.00    +0.000 HD
BRANCH   4   7
ATOM      7  C   UNL     1       5.815   5.045  17.349  0.00  0.00    +0.000 A 
ATOM      8  C   UNL     1       5.025   4.548  16.327  0.00  0.00    +0.000 A 
ATOM      9  C   UNL     1       3.976   3.706  16.798  0.00  0.00    +0.000 A 
ATOM     10  C   UNL     1       3.993   3.585  18.168  0.00  0.00    +0.000 A 
ATOM     11  S   UNL     1       5.267   4.476  18.875  0.00  0.00    +0.000 S 
ENDBRANCH   4   7
ENDBRANCH   2   3
BRANCH   1  13
ATOM     12  C   UNL     1       9.483  10.403  19.039  0.00  0.00    +0.000 C 
ATOM     13  C   UNL     1       8.912   9.813  17.978  0.00  0.00    +0.000 C 
BRANCH  12  19
ATOM     14  C   UNL     1      10.746  12.358  20.023  0.00  0.00    +0.000 A 
ATOM     15  C   UNL     1      11.602  13.459  19.857  0.00  0.00    +0.000 A 
ATOM     16  C   UNL     1      12.079  13.807  18.595  0.00  0.00    +0.000 A 
ATOM     17  C   UNL     1      11.743  13.036  17.493  0.00  0.00    +0.000 A 
ATOM     18  C   UNL     1      10.934  11.910  17.653  0.00  0.00    +0.000 A 
ATOM     19  C   UNL     1      10.401  11.562  18.909  0.00  0.00    +0.000 A 
BRANCH  14  21
ATOM     20  C   UNL     1       9.368  12.966  21.845  0.00  0.00    +0.000 C 
ATOM     21  O   UNL     1      10.237  12.002  21.251  0.00  0.00    +0.000 OA
ENDBRANCH  14  21
ENDBRANCH  12  19
ENDBRANCH   1  13
TORSDOF 5
ENDMDL
MODEL 4
REMARK VINA RESULT:      -6.9      1.580      1.646
REMARK  Name = 
REMARK  6 active torsions:
REMARK  status: ('A' for Active; 'I' for Inactive)
REMARK    1  A    between atoms: C_1  and  O_2
REMARK    2  A    between atoms: O_2  and  C_3
REMARK    3  A    between atoms: C_8  and  C_9
REMARK    4  A    between atoms: C_10  and  C_11
REMARK    5  A    between atoms: N_12  and  N_13
REMARK    6  A    between atoms: C_14  and  C_16
REMARK                            x       y       z     vdW  Elec       q    Type
REMARK                         _______ _______ _______ _____ _____    ______ ____
ROOT
ATOM      1  C   UNL     1       7.869   8.307  18.212  0.00  0.00    +0.000 C 
ATOM      2  N   UNL     1       7.417   7.701  17.162  0.00  0.00    +0.000 NA
ENDROOT
BRANCH   2   3
ATOM      3  N   UNL     1       6.543   6.686  17.383  0.00  0.00    +0.000 N 
ATOM      4  C   UNL     1       5.464   6.470  16.530  0.00  0.00    +0.000 C 
ATOM      5  O   UNL     1       5.293   7.096  15.482  0.00  0.00    +0.000 OA
ATOM      6  H   UNL     1       6.606   6.140  18.235  0.00  0.00    +0.000 HD
BRANCH   4   7
ATOM      7  C   UNL     1       4.523   5.444  16.975  0.00  0.00    +0.000 A 
ATOM      8  C   UNL     1       3.332   5.649  17.651  0.00  0.00    +0.000 A 
ATOM      9  C   UNL     1       2.656   4.432  17.959  0.00  0.00    +0.000 A 
ATOM     10  C   UNL     1       3.352   3.333  17.512  0.00  0.00    +0.000 A 
ATOM     11  S   UNL     1       4.802   3.769  16.723  0.00  0.00    +0.000 S 
ENDBRANCH   4   7
ENDBRANCH   2   3
BRANCH   1  13
ATOM     12  C   UNL     1       9.307  10.135  19.072  0.00  0.00    +0.000 C 
ATOM     13  C   UNL     1       8.751   9.477  18.043  0.00  0.00    +0.000 C 
BRANCH  12  19
ATOM     14  C   UNL     1      10.413  12.216  19.982  0.00  0.00    +0.000 A 
ATOM     15  C   UNL     1      11.147  13.394  19.769  0.00  0.00    +0.000 A 
ATOM     16  C   UNL     1      11.531  13.772  18.484  0.00  0.00    +0.000 A 
ATOM     17  C   UNL     1      11.225  12.958  17.404  0.00  0.00    +0.000 A 
ATOM     18  C   UNL     1      10.539  11.760  17.609  0.00  0.00    +0.000 A 
ATOM     19  C   UNL     1      10.098  11.377  18.891  0.00  0.00    +0.000 A 
BRANCH  14  21
ATOM     20  C   UNL     1       9.337  12.842  21.993  0.00  0.00    +0.000 C 
ATOM     21  O   UNL     1       9.996  11.828  21.234  0.00  0.00    +0.000 OA
ENDBRANCH  14  21
ENDBRANCH  12  19
ENDBRANCH   1  13
TORSDOF 5
ENDMDL
MODEL 5
REMARK VINA RESULT:      -6.7      2.139      2.363
REMARK  Name = 
REMARK  6 active torsions:
REMARK  status: ('A' for Active; 'I' for Inactive)
REMARK    1  A    between atoms: C_1  and  O_2
REMARK    2  A    between atoms: O_2  and  C_3
REMARK    3  A    between atoms: C_8  and  C_9
REMARK    4  A    between atoms: C_10  and  C_11
REMARK    5  A    between atoms: N_12  and  N_13
REMARK    6  A    between atoms: C_14  and  C_16
REMARK                            x       y       z     vdW  Elec       q    Type
REMARK                         _______ _______ _______ _____ _____    ______ ____
ROOT
ATOM      1  C   UNL     1       7.415   8.484  17.829  0.00  0.00    +0.000 C 
ATOM      2  N   UNL     1       7.606   7.295  17.356  0.00  0.00    +0.000 NA
ENDROOT
BRANCH   2   3
ATOM      3  N   UNL     1       6.604   6.400  17.553  0.00  0.00    +0.000 N 
ATOM      4  C   UNL     1       5.643   6.171  16.571  0.00  0.00    +0.000 C 
ATOM      5  O   UNL     1       5.695   6.667  15.444  0.00  0.00    +0.000 OA
ATOM      6  H   UNL     1       6.483   5.968  18.462  0.00  0.00    +0.000 HD
BRANCH   4   7
ATOM      7  C   UNL     1       4.542   5.302  16.979  0.00  0.00    +0.000 A 
ATOM      8  C   UNL     1       4.335   3.989  16.591  0.00  0.00    +0.000 A 
ATOM      9  C   UNL     1       3.152   3.427  17.153  0.00  0.00    +0.000 A 
ATOM     10  C   UNL     1       2.485   4.329  17.950  0.00  0.00    +0.000 A 
ATOM     11  S   UNL     1       3.287   5.835  18.024  0.00  0.00    +0.000 S 
ENDBRANCH   4   7
ENDBRANCH   2   3
BRANCH   1  13
ATOM     12  C   UNL     1       8.902  10.340  18.528  0.00  0.00    +0.000 C 
ATOM     13  C   UNL     1       8.421   9.531  17.572  0.00  0.00    +0.000 C 
BRANCH  12  19
ATOM     14  C   UNL     1       9.374  12.651  17.622  0.00  0.00    +0.000 A 
ATOM     15  C   UNL     1      10.284  13.682  17.340  0.00  0.00    +0.000 A 
ATOM     16  C   UNL     1      11.642  13.530  17.614  0.00  0.00    +0.000 A 
ATOM     17  C   UNL     1      12.100  12.365  18.211  0.00  0.00    +0.000 A 
ATOM     18  C   UNL     1      11.198  11.353  18.541  0.00  0.00    +0.000 A 
ATOM     19  C   UNL     1       9.828  11.461  18.233  0.00  0.00    +0.000 A 
BRANCH  14  21
ATOM     20  C   UNL     1       7.421  13.974  17.771  0.00  0.00    +0.000 C 
ATOM     21  O   UNL     1       8.032  12.759  17.340  0.00  0.00    +0.000 OA
ENDBRANCH  14  21
ENDBRANCH  12  19
ENDBRANCH   1  13
TORSDOF 5
ENDMDL
MODEL 6
REMARK VINA RESULT:      -6.6      3.192      9.237
REMARK  Name = 
REMARK  6 active torsions:
REMARK  status: ('A' for Active; 'I' for Inactive)
REMARK    1  A    between atoms: C_1  and  O_2
REMARK    2  A    between atoms: O_2  and  C_3
REMARK    3  A    between atoms: C_8  and  C_9
REMARK    4  A    between atoms: C_10  and  C_11
REMARK    5  A    between atoms: N_12  and  N_13
REMARK    6  A    between atoms: C_14  and  C_16
REMARK                            x       y       z     vdW  Elec       q    Type
REMARK                         _______ _______ _______ _____ _____    ______ ____
ROOT
ATOM      1  C   UNL     1       7.982   8.151  17.514  0.00  0.00    +0.000 C 
ATOM      2  N   UNL     1       8.168   9.030  18.445  0.00  0.00    +0.000 NA
ENDROOT
BRANCH   2   3
ATOM      3  N   UNL     1       9.044  10.029  18.163  0.00  0.00    +0.000 N 
ATOM      4  C   UNL     1       9.576  10.824  19.174  0.00  0.00    +0.000 C 
ATOM      5  O   UNL     1       9.384  10.612  20.373  0.00  0.00    +0.000 OA
ATOM      6  H   UNL     1       9.235  10.277  17.198  0.00  0.00    +0.000 HD
BRANCH   4   7
ATOM      7  C   UNL     1      10.379  11.953  18.712  0.00  0.00    +0.000 A 
ATOM      8  C   UNL     1      11.090  12.035  17.528  0.00  0.00    +0.000 A 
ATOM      9  C   UNL     1      11.788  13.270  17.386  0.00  0.00    +0.000 A 
ATOM     10  C   UNL     1      11.593  14.095  18.469  0.00  0.00    +0.000 A 
ATOM     11  S   UNL     1      10.571  13.386  19.640  0.00  0.00    +0.000 S 
ENDBRANCH   4   7
ENDBRANCH   2   3
BRANCH   1  13
ATOM     12  C   UNL     1       5.955   6.875  16.875  0.00  0.00    +0.000 C 
ATOM     13  C   UNL     1       6.977   7.090  17.716  0.00  0.00    +0.000 C 
BRANCH  12  19
ATOM     14  C   UNL     1       5.024   4.528  16.763  0.00  0.00    +0.000 A 
ATOM     15  C   UNL     1       3.986   3.619  17.025  0.00  0.00    +0.000 A 
ATOM     16  C   UNL     1       2.801   4.043  17.624  0.00  0.00    +0.000 A 
ATOM     17  C   UNL     1       2.656   5.368  18.006  0.00  0.00    +0.000 A 
ATOM     18  C   UNL     1       3.700   6.270  17.797  0.00  0.00    +0.000 A 
ATOM     19  C   UNL     1       4.889   5.879  17.152  0.00  0.00    +0.000 A 
BRANCH  14  21
ATOM     20  C   UNL     1       6.087   3.886  14.752  0.00  0.00    +0.000 C 
ATOM     21  O   UNL     1       6.195   4.148  16.151  0.00  0.00    +0.000 OA
ENDBRANCH  14  21
ENDBRANCH  12  19
ENDBRANCH   1  13
TORSDOF 5
ENDMDL
MODEL 7
REMARK VINA RESULT:      -6.6      1.733      1.882
REMARK  Name = 
REMARK  6 active torsions:
REMARK  status: ('A' for Active; 'I' for Inactive)
REMARK    1  A    between atoms: C_1  and  O_2
REMARK    2  A    between atoms: O_2  and  C_3
REMARK    3  A    between atoms: C_8  and  C_9
REMARK    4  A    between atoms: C_10  and  C_11
REMARK    5  A    between atoms: N_12  and  N_13
REMARK    6  A    between atoms: C_14  and  C_16
REMARK                            x       y       z     vdW  Elec       q    Type
REMARK                         _______ _______ _______ _____ _____    ______ ____
ROOT
ATOM      1  C   UNL     1       8.187   8.756  18.298  0.00  0.00    +0.000 C 
ATOM      2  N   UNL     1       7.785   7.983  17.342  0.00  0.00    +0.000 NA
ENDROOT
BRANCH   2   3
ATOM      3  N   UNL     1       7.161   6.837  17.716  0.00  0.00    +0.000 N 
ATOM      4  C   UNL     1       6.013   6.398  17.061  0.00  0.00    +0.000 C 
ATOM      5  O   UNL     1       5.561   6.941  16.051  0.00  0.00    +0.000 OA
ATOM      6  H   UNL     1       7.462   6.346  18.551  0.00  0.00    +0.000 HD
BRANCH   4   7
ATOM      7  C   UNL     1       5.363   5.239  17.667  0.00  0.00    +0.000 A 
ATOM      8  C   UNL     1       5.382   4.884  19.005  0.00  0.00    +0.000 A 
ATOM      9  C   UNL     1       4.663   3.681  19.267  0.00  0.00    +0.000 A 
ATOM     10  C   UNL     1       4.118   3.150  18.121  0.00  0.00    +0.000 A 
ATOM     11  S   UNL     1       4.467   4.100  16.746  0.00  0.00    +0.000 S 
ENDBRANCH   4   7
ENDBRANCH   2   3
BRANCH   1  13
ATOM     12  C   UNL     1       9.615  10.722  18.790  0.00  0.00    +0.000 C 
ATOM     13  C   UNL     1       8.791  10.059  17.964  0.00  0.00    +0.000 C 
BRANCH  12  19
ATOM     14  C   UNL     1       9.785  13.193  19.292  0.00  0.00    +0.000 A 
ATOM     15  C   UNL     1      10.270  14.469  18.962  0.00  0.00    +0.000 A 
ATOM     16  C   UNL     1      11.045  14.664  17.819  0.00  0.00    +0.000 A 
ATOM     17  C   UNL     1      11.380  13.582  17.019  0.00  0.00    +0.000 A 
ATOM     18  C   UNL     1      10.946  12.302  17.364  0.00  0.00    +0.000 A 
ATOM     19  C   UNL     1      10.124  12.083  18.487  0.00  0.00    +0.000 A 
BRANCH  14  21
ATOM     20  C   UNL     1       9.625  13.239  21.650  0.00  0.00    +0.000 C 
ATOM     21  O   UNL     1       8.997  12.971  20.397  0.00  0.00    +0.000 OA
ENDBRANCH  14  21
ENDBRANCH  12  19
ENDBRANCH   1  13
TORSDOF 5
ENDMDL
MODEL 8
REMARK VINA RESULT:      -6.6      2.197      2.338
REMARK  Name = 
REMARK  6 active torsions:
REMARK  status: ('A' for Active; 'I' for Inactive)
REMARK    1  A    between atoms: C_1  and  O_2
REMARK    2  A    between atoms: O_2  and  C_3
REMARK    3  A    between atoms: C_8  and  C_9
REMARK    4  A    between atoms: C_10  and  C_11
REMARK    5  A    between atoms: N_12  and  N_13
REMARK    6  A    between atoms: C_14  and  C_16
REMARK                            x       y       z     vdW  Elec       q    Type
REMARK                         _______ _______ _______ _____ _____    ______ ____
ROOT
ATOM      1  C   UNL     1       8.204   8.877  18.195  0.00  0.00    +0.000 C 
ATOM      2  N   UNL     1       7.817   8.016  17.310  0.00  0.00    +0.000 NA
ENDROOT
BRANCH   2   3
ATOM      3  N   UNL     1       7.011   7.017  17.755  0.00  0.00    +0.000 N 
ATOM      4  C   UNL     1       5.980   6.521  16.962  0.00  0.00    +0.000 C 
ATOM      5  O   UNL     1       5.801   6.863  15.791  0.00  0.00    +0.000 OA
ATOM      6  H   UNL     1       7.084   6.697  18.714  0.00  0.00    +0.000 HD
BRANCH   4   7
ATOM      7  C   UNL     1       5.101   5.561  17.624  0.00  0.00    +0.000 A 
ATOM      8  C   UNL     1       3.855   5.141  17.191  0.00  0.00    +0.000 A 
ATOM      9  C   UNL     1       3.245   4.209  18.081  0.00  0.00    +0.000 A 
ATOM     10  C   UNL     1       4.042   3.946  19.171  0.00  0.00    +0.000 A 
ATOM     11  S   UNL     1       5.513   4.812  19.114  0.00  0.00    +0.000 S 
ENDBRANCH   4   7
ENDBRANCH   2   3
BRANCH   1  13
ATOM     12  C   UNL     1       9.240  11.101  18.551  0.00  0.00    +0.000 C 
ATOM     13  C   UNL     1       9.005  10.038  17.766  0.00  0.00    +0.000 C 
BRANCH  12  19
ATOM     14  C   UNL     1       9.380  13.596  18.176  0.00  0.00    +0.000 A 
ATOM     15  C   UNL     1      10.075  14.714  17.687  0.00  0.00    +0.000 A 
ATOM     16  C   UNL     1      11.306  14.566  17.051  0.00  0.00    +0.000 A 
ATOM     17  C   UNL     1      11.876  13.307  16.934  0.00  0.00    +0.000 A 
ATOM     18  C   UNL     1      11.218  12.194  17.460  0.00  0.00    +0.000 A 
ATOM     19  C   UNL     1       9.952  12.309  18.066  0.00  0.00    +0.000 A 
BRANCH  14  21
ATOM     20  C   UNL     1       7.151  14.367  18.012  0.00  0.00    +0.000 C 
ATOM     21  O   UNL     1       8.151  13.704  18.785  0.00  0.00    +0.000 OA
ENDBRANCH  14  21
ENDBRANCH  12  19
ENDBRANCH   1  13
TORSDOF 5
ENDMDL
MODEL 9
REMARK VINA RESULT:      -6.6      3.717      9.203
REMARK  Name = 
REMARK  6 active torsions:
REMARK  status: ('A' for Active; 'I' for Inactive)
REMARK    1  A    between atoms: C_1  and  O_2
REMARK    2  A    between atoms: O_2  and  C_3
REMARK    3  A    between atoms: C_8  and  C_9
REMARK    4  A    between atoms: C_10  and  C_11
REMARK    5  A    between atoms: N_12  and  N_13
REMARK    6  A    between atoms: C_14  and  C_16
REMARK                            x       y       z     vdW  Elec       q    Type
REMARK                         _______ _______ _______ _____ _____    ______ ____
ROOT
ATOM      1  C   UNL     1       8.718   8.706  18.527  0.00  0.00    +0.000 C 
ATOM      2  N   UNL     1       8.274   9.862  18.153  0.00  0.00    +0.000 NA
ENDROOT
BRANCH   2   3
ATOM      3  N   UNL     1       9.111  10.915  18.334  0.00  0.00    +0.000 N 
ATOM      4  C   UNL     1       8.853  12.147  17.739  0.00  0.00    +0.000 C 
ATOM      5  O   UNL     1       7.819  12.395  17.116  0.00  0.00    +0.000 OA
ATOM      6  H   UNL     1       9.993  10.784  18.818  0.00  0.00    +0.000 HD
BRANCH   4   7
ATOM      7  C   UNL     1       9.914  13.140  17.892  0.00  0.00    +0.000 A 
ATOM      8  C   UNL     1      10.895  13.455  16.967  0.00  0.00    +0.000 A 
ATOM      9  C   UNL     1      11.794  14.456  17.435  0.00  0.00    +0.000 A 
ATOM     10  C   UNL     1      11.478  14.875  18.707  0.00  0.00    +0.000 A 
ATOM     11  S   UNL     1      10.103  14.071  19.323  0.00  0.00    +0.000 S 
ENDBRANCH   4   7
ENDBRANCH   2   3
BRANCH   1  13
ATOM     12  C   UNL     1       7.068   7.387  17.230  0.00  0.00    +0.000 C 
ATOM     13  C   UNL     1       7.899   7.505  18.276  0.00  0.00    +0.000 C 
BRANCH  12  19
ATOM     14  C   UNL     1       6.388   5.266  16.036  0.00  0.00    +0.000 A 
ATOM     15  C   UNL     1       5.503   4.185  15.888  0.00  0.00    +0.000 A 
ATOM     16  C   UNL     1       4.379   4.067  16.705  0.00  0.00    +0.000 A 
ATOM     17  C   UNL     1       4.151   5.000  17.704  0.00  0.00    +0.000 A 
ATOM     18  C   UNL     1       5.050   6.050  17.893  0.00  0.00    +0.000 A 
ATOM     19  C   UNL     1       6.167   6.220  17.054  0.00  0.00    +0.000 A 
BRANCH  14  21
ATOM     20  C   UNL     1       7.326   4.980  13.885  0.00  0.00    +0.000 C 
ATOM     21  O   UNL     1       7.491   5.426  15.231  0.00  0.00    +0.000 OA
ENDBRANCH  14  21
ENDBRANCH  12  19
ENDBRANCH   1  13
TORSDOF 5
ENDMDL
