MODEL 1
REMARK VINA RESULT:      -7.8      0.000      0.000
REMARK  Name = 
REMARK  8 active torsions:
REMARK  status: ('A' for Active; 'I' for Inactive)
REMARK    1  A    between atoms: C_1  and  O_2
REMARK    2  A    between atoms: O_2  and  C_3
REMARK    3  A    between atoms: C_4  and  C_5
REMARK    4  A    between atoms: C_8  and  C_9
REMARK    5  A    between atoms: C_9  and  S_10
REMARK    6  A    between atoms: S_10  and  C_12
REMARK    7  A    between atoms: C_15  and  C_16
REMARK    8  A    between atoms: C_26  and  C_27
REMARK                            x       y       z     vdW  Elec       q    Type
REMARK                         _______ _______ _______ _____ _____    ______ ____
ROOT
ATOM      1  C   UNL     1       5.657   4.573  18.630  0.00  0.00    +0.000 A 
ATOM      2  N   UNL     1       4.872   5.672  18.722  0.00  0.00    +0.000 NA
ATOM      3  C   UNL     1       3.795   5.195  19.417  0.00  0.00    +0.000 A 
ATOM      4  C   UNL     1       2.626   5.747  19.846  0.00  0.00    +0.000 A 
ATOM      5  S   UNL     1       1.746   4.478  20.675  0.00  0.00    +0.000 S 
ATOM      6  C   UNL     1       2.960   3.266  20.385  0.00  0.00    +0.000 A 
ATOM      7  C   UNL     1       3.952   3.864  19.713  0.00  0.00    +0.000 A 
ATOM      8  N   UNL     1       5.138   3.399  19.233  0.00  0.00    +0.000 N 
ATOM      9  H   UNL     1       5.545   2.476  19.283  0.00  0.00    +0.000 HD
ENDROOT
BRANCH   4  10
ATOM     10  C   UNL     1       2.111   7.117  19.717  0.00  0.00    +0.000 A 
ATOM     11  C   UNL     1       1.463   7.785  20.768  0.00  0.00    +0.000 A 
ATOM     12  C   UNL     1       0.941   9.071  20.588  0.00  0.00    +0.000 A 
ATOM     13  C   UNL     1       1.060   9.711  19.357  0.00  0.00    +0.000 A 
ATOM     14  C   UNL     1       1.705   9.069  18.305  0.00  0.00    +0.000 A 
ATOM     15  C   UNL     1       2.225   7.786  18.486  0.00  0.00    +0.000 A 
ENDBRANCH   4  10
BRANCH   1  16
ATOM     16  S   UNL     1       7.197   4.545  17.788  0.00  0.00    +0.000 S 
ATOM     17  O   UNL     1       8.248   5.062  18.838  0.00  0.00    +0.000 OA
BRANCH  16  18
ATOM     18  C   UNL     1       6.873   5.786  16.498  0.00  0.00    +0.000 C 
BRANCH  18  24
ATOM     19  C   UNL     1       6.061   3.856  13.244  0.00  0.00    +0.000 A 
ATOM     20  C   UNL     1       7.126   4.298  12.453  0.00  0.00    +0.000 A 
ATOM     21  C   UNL     1       7.409   4.001  11.010  0.00  0.00    +0.000 C 
ATOM     22  C   UNL     1       8.060   5.117  13.089  0.00  0.00    +0.000 A 
ATOM     23  N   UNL     1       7.985   5.564  14.362  0.00  0.00    +0.000 NA
ATOM     24  C   UNL     1       6.927   5.174  15.112  0.00  0.00    +0.000 A 
ATOM     25  C   UNL     1       5.957   4.296  14.599  0.00  0.00    +0.000 A 
ATOM     26  C   UNL     1       4.824   3.770  15.444  0.00  0.00    +0.000 C 
BRANCH  19  28
ATOM     27  C   UNL     1       4.231   3.343  11.724  0.00  0.00    +0.000 C 
ATOM     28  O   UNL     1       5.011   3.056  12.869  0.00  0.00    +0.000 OA
ENDBRANCH  19  28
ENDBRANCH  18  24
ENDBRANCH  16  18
ENDBRANCH   1  16
TORSDOF 5
ENDMDL
MODEL 2
REMARK VINA RESULT:      -7.8      4.009      8.434
REMARK  Name = 
REMARK  8 active torsions:
REMARK  status: ('A' for Active; 'I' for Inactive)
REMARK    1  A    between atoms: C_1  and  O_2
REMARK    2  A    between atoms: O_2  and  C_3
REMARK    3  A    between atoms: C_4  and  C_5
REMARK    4  A    between atoms: C_8  and  C_9
REMARK    5  A    between atoms: C_9  and  S_10
REMARK    6  A    between atoms: S_10  and  C_12
REMARK    7  A    between atoms: C_15  and  C_16
REMARK    8  A    between atoms: C_26  and  C_27
REMARK                            x       y       z     vdW  Elec       q    Type
REMARK                         _______ _______ _______ _____ _____    ______ ____
ROOT
ATOM      1  C   UNL     1       2.227   6.870  20.120  0.00  0.00    +0.000 A 
ATOM      2  N   UNL     1       3.163   6.550  19.195  0.00  0.00    +0.000 NA
ATOM      3  C   UNL     1       3.297   5.201  19.381  0.00  0.00    +0.000 A 
ATOM      4  C   UNL     1       4.074   4.239  18.809  0.00  0.00    +0.000 A 
ATOM      5  S   UNL     1       3.667   2.729  19.600  0.00  0.00    +0.000 S 
ATOM      6  C   UNL     1       2.506   3.453  20.676  0.00  0.00    +0.000 A 
ATOM      7  C   UNL     1       2.467   4.758  20.381  0.00  0.00    +0.000 A 
ATOM      8  N   UNL     1       1.744   5.789  20.901  0.00  0.00    +0.000 N 
ATOM      9  H   UNL     1       1.056   5.795  21.640  0.00  0.00    +0.000 HD
ENDROOT
BRANCH   4  10
ATOM     10  C   UNL     1       5.066   4.329  17.729  0.00  0.00    +0.000 A 
ATOM     11  C   UNL     1       6.416   4.632  17.966  0.00  0.00    +0.000 A 
ATOM     12  C   UNL     1       7.320   4.759  16.905  0.00  0.00    +0.000 A 
ATOM     13  C   UNL     1       6.890   4.585  15.591  0.00  0.00    +0.000 A 
ATOM     14  C   UNL     1       5.557   4.277  15.337  0.00  0.00    +0.000 A 
ATOM     15  C   UNL     1       4.657   4.150  16.397  0.00  0.00    +0.000 A 
ENDBRANCH   4  10
BRANCH   1  16
ATOM     16  S   UNL     1       1.656   8.505  20.398  0.00  0.00    +0.000 S 
ATOM     17  O   UNL     1       0.279   8.339  21.141  0.00  0.00    +0.000 OA
BRANCH  16  18
ATOM     18  C   UNL     1       1.428   9.057  18.680  0.00  0.00    +0.000 C 
BRANCH  18  24
ATOM     19  C   UNL     1      -0.903  12.144  18.595  0.00  0.00    +0.000 A 
ATOM     20  C   UNL     1       0.062  13.153  18.690  0.00  0.00    +0.000 A 
ATOM     21  C   UNL     1      -0.138  14.636  18.787  0.00  0.00    +0.000 C 
ATOM     22  C   UNL     1       1.391  12.728  18.682  0.00  0.00    +0.000 A 
ATOM     23  N   UNL     1       1.813  11.444  18.659  0.00  0.00    +0.000 NA
ATOM     24  C   UNL     1       0.876  10.467  18.617  0.00  0.00    +0.000 A 
ATOM     25  C   UNL     1      -0.493  10.777  18.554  0.00  0.00    +0.000 A 
ATOM     26  C   UNL     1      -1.551   9.711  18.407  0.00  0.00    +0.000 C 
BRANCH  19  28
ATOM     27  C   UNL     1      -2.993  12.542  19.776  0.00  0.00    +0.000 C 
ATOM     28  O   UNL     1      -2.267  12.286  18.589  0.00  0.00    +0.000 OA
ENDBRANCH  19  28
ENDBRANCH  18  24
ENDBRANCH  16  18
ENDBRANCH   1  16
TORSDOF 5
ENDMDL
MODEL 3
REMARK VINA RESULT:      -7.7      4.104      8.697
REMARK  Name = 
REMARK  8 active torsions:
REMARK  status: ('A' for Active; 'I' for Inactive)
REMARK    1  A    between atoms: C_1  and  O_2
REMARK    2  A    between atoms: O_2  and  C_3
REMARK    3  A    between atoms: C_4  and  C_5
REMARK    4  A    between atoms: C_8  and  C_9
REMARK    5  A    between atoms: C_9  and  S_10
REMARK    6  A    between atoms: S_10  and  C_12
REMARK    7  A    between atoms: C_15  and  C_16
REMARK    8  A    between atoms: C_26  and  C_27
REMARK                            x       y       z     vdW  Elec       q    Type
REMARK                         _______ _______ _______ _____ _____    ______ ____
ROOT
ATOM      1  C   UNL     1       1.903   6.603  20.293  0.00  0.00    +0.000 A 
ATOM      2  N   UNL     1       2.934   6.369  19.448  0.00  0.00    +0.000 NA
ATOM      3  C   UNL     1       2.929   5.004  19.364  0.00  0.00    +0.000 A 
ATOM      4  C   UNL     1       3.699   4.093  18.706  0.00  0.00    +0.000 A 
ATOM      5  S   UNL     1       3.060   2.511  19.107  0.00  0.00    +0.000 S 
ATOM      6  C   UNL     1       1.818   3.134  20.155  0.00  0.00    +0.000 A 
ATOM      7  C   UNL     1       1.929   4.468  20.137  0.00  0.00    +0.000 A 
ATOM      8  N   UNL     1       1.225   5.450  20.765  0.00  0.00    +0.000 N 
ATOM      9  H   UNL     1       0.439   5.388  21.396  0.00  0.00    +0.000 HD
ENDROOT
BRANCH   4  10
ATOM     10  C   UNL     1       4.842   4.283  17.802  0.00  0.00    +0.000 A 
ATOM     11  C   UNL     1       4.755   4.075  16.417  0.00  0.00    +0.000 A 
ATOM     12  C   UNL     1       5.881   4.216  15.597  0.00  0.00    +0.000 A 
ATOM     13  C   UNL     1       7.111   4.567  16.149  0.00  0.00    +0.000 A 
ATOM     14  C   UNL     1       7.216   4.784  17.519  0.00  0.00    +0.000 A 
ATOM     15  C   UNL     1       6.092   4.643  18.335  0.00  0.00    +0.000 A 
ENDBRANCH   4  10
BRANCH   1  16
ATOM     16  S   UNL     1       1.433   8.206  20.833  0.00  0.00    +0.000 S 
ATOM     17  O   UNL     1       0.035   8.012  21.527  0.00  0.00    +0.000 OA
BRANCH  16  18
ATOM     18  C   UNL     1       1.272   9.044  19.226  0.00  0.00    +0.000 C 
BRANCH  18  24
ATOM     19  C   UNL     1      -1.389  11.833  18.891  0.00  0.00    +0.000 A 
ATOM     20  C   UNL     1      -0.909  12.716  19.864  0.00  0.00    +0.000 A 
ATOM     21  C   UNL     1      -1.505  14.010  20.333  0.00  0.00    +0.000 C 
ATOM     22  C   UNL     1       0.294  12.355  20.474  0.00  0.00    +0.000 A 
ATOM     23  N   UNL     1       0.982  11.213  20.257  0.00  0.00    +0.000 NA
ATOM     24  C   UNL     1       0.488  10.336  19.350  0.00  0.00    +0.000 A 
ATOM     25  C   UNL     1      -0.680  10.622  18.624  0.00  0.00    +0.000 A 
ATOM     26  C   UNL     1      -1.195   9.709  17.540  0.00  0.00    +0.000 C 
BRANCH  19  28
ATOM     27  C   UNL     1      -3.818  11.806  18.743  0.00  0.00    +0.000 C 
ATOM     28  O   UNL     1      -2.540  11.943  18.152  0.00  0.00    +0.000 OA
ENDBRANCH  19  28
ENDBRANCH  18  24
ENDBRANCH  16  18
ENDBRANCH   1  16
TORSDOF 5
ENDMDL
MODEL 4
REMARK VINA RESULT:      -7.7      4.784      9.146
REMARK  Name = 
REMARK  8 active torsions:
REMARK  status: ('A' for Active; 'I' for Inactive)
REMARK    1  A    between atoms: C_1  and  O_2
REMARK    2  A    between atoms: O_2  and  C_3
REMARK    3  A    between atoms: C_4  and  C_5
REMARK    4  A    between atoms: C_8  and  C_9
REMARK    5  A    between atoms: C_9  and  S_10
REMARK    6  A    between atoms: S_10  and  C_12
REMARK    7  A    between atoms: C_15  and  C_16
REMARK    8  A    between atoms: C_26  and  C_27
REMARK                            x       y       z     vdW  Elec       q    Type
REMARK                         _______ _______ _______ _____ _____    ______ ____
ROOT
ATOM      1  C   UNL     1       1.599   7.975  20.224  0.00  0.00    +0.000 A 
ATOM      2  N   UNL     1       2.384   7.633  19.175  0.00  0.00    +0.000 NA
ATOM      3  C   UNL     1       2.609   6.305  19.408  0.00  0.00    +0.000 A 
ATOM      4  C   UNL     1       3.324   5.338  18.766  0.00  0.00    +0.000 A 
ATOM      5  S   UNL     1       3.122   3.865  19.694  0.00  0.00    +0.000 S 
ATOM      6  C   UNL     1       2.122   4.610  20.908  0.00  0.00    +0.000 A 
ATOM      7  C   UNL     1       1.976   5.893  20.555  0.00  0.00    +0.000 A 
ATOM      8  N   UNL     1       1.302   6.927  21.132  0.00  0.00    +0.000 N 
ATOM      9  H   UNL     1       0.745   6.953  21.974  0.00  0.00    +0.000 HD
ENDROOT
BRANCH   4  10
ATOM     10  C   UNL     1       4.120   5.398  17.533  0.00  0.00    +0.000 A 
ATOM     11  C   UNL     1       4.505   6.611  16.940  0.00  0.00    +0.000 A 
ATOM     12  C   UNL     1       5.220   6.625  15.736  0.00  0.00    +0.000 A 
ATOM     13  C   UNL     1       5.562   5.429  15.108  0.00  0.00    +0.000 A 
ATOM     14  C   UNL     1       5.196   4.218  15.685  0.00  0.00    +0.000 A 
ATOM     15  C   UNL     1       4.483   4.205  16.886  0.00  0.00    +0.000 A 
ENDBRANCH   4  10
BRANCH   1  16
ATOM     16  S   UNL     1       1.008   9.602  20.506  0.00  0.00    +0.000 S 
ATOM     17  O   UNL     1      -0.090   9.453  21.623  0.00  0.00    +0.000 OA
BRANCH  16  18
ATOM     18  C   UNL     1       0.267   9.954  18.882  0.00  0.00    +0.000 C 
BRANCH  18  24
ATOM     19  C   UNL     1      -3.334  11.313  18.483  0.00  0.00    +0.000 A 
ATOM     20  C   UNL     1      -3.351  12.213  19.554  0.00  0.00    +0.000 A 
ATOM     21  C   UNL     1      -4.485  13.060  20.049  0.00  0.00    +0.000 C 
ATOM     22  C   UNL     1      -2.149  12.356  20.250  0.00  0.00    +0.000 A 
ATOM     23  N   UNL     1      -1.014  11.659  20.023  0.00  0.00    +0.000 NA
ATOM     24  C   UNL     1      -1.015  10.752  19.016  0.00  0.00    +0.000 A 
ATOM     25  C   UNL     1      -2.147  10.570  18.204  0.00  0.00    +0.000 A 
ATOM     26  C   UNL     1      -2.141   9.639  17.017  0.00  0.00    +0.000 C 
BRANCH  19  28
ATOM     27  C   UNL     1      -4.983  11.943  16.807  0.00  0.00    +0.000 C 
ATOM     28  O   UNL     1      -4.370  10.983  17.647  0.00  0.00    +0.000 OA
ENDBRANCH  19  28
ENDBRANCH  18  24
ENDBRANCH  16  18
ENDBRANCH   1  16
TORSDOF 5
ENDMDL
MODEL 5
REMARK VINA RESULT:      -7.7      4.469      8.836
REMARK  Name = 
REMARK  8 active torsions:
REMARK  status: ('A' for Active; 'I' for Inactive)
REMARK    1  A    between atoms: C_1  and  O_2
REMARK    2  A    between atoms: O_2  and  C_3
REMARK    3  A    between atoms: C_4  and  C_5
REMARK    4  A    between atoms: C_8  and  C_9
REMARK    5  A    between atoms: C_9  and  S_10
REMARK    6  A    between atoms: S_10  and  C_12
REMARK    7  A    between atoms: C_15  and  C_16
REMARK    8  A    between atoms: C_26  and  C_27
REMARK                            x       y       z     vdW  Elec       q    Type
REMARK                         _______ _______ _______ _____ _____    ______ ____
ROOT
ATOM      1  C   UNL     1       1.700   7.433  20.390  0.00  0.00    +0.000 A 
ATOM      2  N   UNL     1       2.473   7.201  19.303  0.00  0.00    +0.000 NA
ATOM      3  C   UNL     1       2.747   5.867  19.427  0.00  0.00    +0.000 A 
ATOM      4  C   UNL     1       3.479   4.979  18.698  0.00  0.00    +0.000 A 
ATOM      5  S   UNL     1       3.347   3.432  19.511  0.00  0.00    +0.000 S 
ATOM      6  C   UNL     1       2.350   4.045  20.799  0.00  0.00    +0.000 A 
ATOM      7  C   UNL     1       2.153   5.346  20.550  0.00  0.00    +0.000 A 
ATOM      8  N   UNL     1       1.458   6.308  21.219  0.00  0.00    +0.000 N 
ATOM      9  H   UNL     1       0.919   6.249  22.070  0.00  0.00    +0.000 HD
ENDROOT
BRANCH   4  10
ATOM     10  C   UNL     1       4.246   5.162  17.458  0.00  0.00    +0.000 A 
ATOM     11  C   UNL     1       4.571   6.430  16.950  0.00  0.00    +0.000 A 
ATOM     12  C   UNL     1       5.258   6.562  15.737  0.00  0.00    +0.000 A 
ATOM     13  C   UNL     1       5.633   5.431  15.016  0.00  0.00    +0.000 A 
ATOM     14  C   UNL     1       5.327   4.166  15.507  0.00  0.00    +0.000 A 
ATOM     15  C   UNL     1       4.641   4.036  16.716  0.00  0.00    +0.000 A 
ENDBRANCH   4  10
BRANCH   1  16
ATOM     16  S   UNL     1       1.061   9.012  20.810  0.00  0.00    +0.000 S 
ATOM     17  O   UNL     1      -0.394   8.738  21.342  0.00  0.00    +0.000 OA
BRANCH  16  18
ATOM     18  C   UNL     1       1.038   9.790  19.165  0.00  0.00    +0.000 C 
BRANCH  18  24
ATOM     19  C   UNL     1      -2.244  11.830  18.971  0.00  0.00    +0.000 A 
ATOM     20  C   UNL     1      -2.836  11.195  17.875  0.00  0.00    +0.000 A 
ATOM     21  C   UNL     1      -4.125  11.524  17.183  0.00  0.00    +0.000 C 
ATOM     22  C   UNL     1      -2.144  10.098  17.360  0.00  0.00    +0.000 A 
ATOM     23  N   UNL     1      -0.940   9.650  17.780  0.00  0.00    +0.000 NA
ATOM     24  C   UNL     1      -0.346  10.299  18.810  0.00  0.00    +0.000 A 
ATOM     25  C   UNL     1      -0.978  11.376  19.453  0.00  0.00    +0.000 A 
ATOM     26  C   UNL     1      -0.383  12.050  20.664  0.00  0.00    +0.000 C 
BRANCH  19  28
ATOM     27  C   UNL     1      -3.852  12.857  20.483  0.00  0.00    +0.000 C 
ATOM     28  O   UNL     1      -2.705  12.926  19.657  0.00  0.00    +0.000 OA
ENDBRANCH  19  28
ENDBRANCH  18  24
ENDBRANCH  16  18
ENDBRANCH   1  16
TORSDOF 5
ENDMDL
MODEL 6
REMARK VINA RESULT:      -7.7      2.407      4.531
REMARK  Name = 
REMARK  8 active torsions:
REMARK  status: ('A' for Active; 'I' for Inactive)
REMARK    1  A    between atoms: C_1  and  O_2
REMARK    2  A    between atoms: O_2  and  C_3
REMARK    3  A    between atoms: C_4  and  C_5
REMARK    4  A    between atoms: C_8  and  C_9
REMARK    5  A    between atoms: C_9  and  S_10
REMARK    6  A    between atoms: S_10  and  C_12
REMARK    7  A    between atoms: C_15  and  C_16
REMARK    8  A    between atoms: C_26  and  C_27
REMARK                            x       y       z     vdW  Elec       q    Type
REMARK                         _______ _______ _______ _____ _____    ______ ____
ROOT
ATOM      1  C   UNL     1       2.306   5.453  19.562  0.00  0.00    +0.000 A 
ATOM      2  N   UNL     1       1.692   6.354  20.366  0.00  0.00    +0.000 NA
ATOM      3  C   UNL     1       1.789   7.503  19.631  0.00  0.00    +0.000 A 
ATOM      4  C   UNL     1       1.401   8.793  19.836  0.00  0.00    +0.000 A 
ATOM      5  S   UNL     1       1.888   9.696  18.414  0.00  0.00    +0.000 S 
ATOM      6  C   UNL     1       2.612   8.322  17.628  0.00  0.00    +0.000 A 
ATOM      7  C   UNL     1       2.438   7.274  18.443  0.00  0.00    +0.000 A 
ATOM      8  N   UNL     1       2.799   5.965  18.335  0.00  0.00    +0.000 N 
ATOM      9  H   UNL     1       3.285   5.482  17.594  0.00  0.00    +0.000 HD
ENDROOT
BRANCH   4  10
ATOM     10  C   UNL     1       0.695   9.411  20.966  0.00  0.00    +0.000 A 
ATOM     11  C   UNL     1       0.773   8.906  22.274  0.00  0.00    +0.000 A 
ATOM     12  C   UNL     1       0.043   9.494  23.314  0.00  0.00    +0.000 A 
ATOM     13  C   UNL     1      -0.774  10.595  23.065  0.00  0.00    +0.000 A 
ATOM     14  C   UNL     1      -0.858  11.113  21.777  0.00  0.00    +0.000 A 
ATOM     15  C   UNL     1      -0.129  10.527  20.740  0.00  0.00    +0.000 A 
ENDBRANCH   4  10
BRANCH   1  16
ATOM     16  S   UNL     1       2.539   3.768  19.992  0.00  0.00    +0.000 S 
ATOM     17  O   UNL     1       1.986   3.637  21.458  0.00  0.00    +0.000 OA
BRANCH  16  18
ATOM     18  C   UNL     1       4.356   3.681  19.950  0.00  0.00    +0.000 C 
BRANCH  18  24
ATOM     19  C   UNL     1       6.496   5.036  17.026  0.00  0.00    +0.000 A 
ATOM     20  C   UNL     1       5.842   4.406  15.962  0.00  0.00    +0.000 A 
ATOM     21  C   UNL     1       6.190   4.426  14.503  0.00  0.00    +0.000 C 
ATOM     22  C   UNL     1       4.705   3.669  16.295  0.00  0.00    +0.000 A 
ATOM     23  N   UNL     1       4.233   3.461  17.544  0.00  0.00    +0.000 NA
ATOM     24  C   UNL     1       4.898   4.032  18.578  0.00  0.00    +0.000 A 
ATOM     25  C   UNL     1       6.018   4.850  18.358  0.00  0.00    +0.000 A 
ATOM     26  C   UNL     1       6.714   5.576  19.483  0.00  0.00    +0.000 C 
BRANCH  19  28
ATOM     27  C   UNL     1       7.568   7.220  16.964  0.00  0.00    +0.000 C 
ATOM     28  O   UNL     1       7.630   5.807  16.976  0.00  0.00    +0.000 OA
ENDBRANCH  19  28
ENDBRANCH  18  24
ENDBRANCH  16  18
ENDBRANCH   1  16
TORSDOF 5
ENDMDL
MODEL 7
REMARK VINA RESULT:      -7.6      4.399      8.586
REMARK  Name = 
REMARK  8 active torsions:
REMARK  status: ('A' for Active; 'I' for Inactive)
REMARK    1  A    between atoms: C_1  and  O_2
REMARK    2  A    between atoms: O_2  and  C_3
REMARK    3  A    between atoms: C_4  and  C_5
REMARK    4  A    between atoms: C_8  and  C_9
REMARK    5  A    between atoms: C_9  and  S_10
REMARK    6  A    between atoms: S_10  and  C_12
REMARK    7  A    between atoms: C_15  and  C_16
REMARK    8  A    between atoms: C_26  and  C_27
REMARK                            x       y       z     vdW  Elec       q    Type
REMARK                         _______ _______ _______ _____ _____    ______ ____
ROOT
ATOM      1  C   UNL     1       1.636   7.678  20.260  0.00  0.00    +0.000 A 
ATOM      2  N   UNL     1       2.390   7.362  19.180  0.00  0.00    +0.000 NA
ATOM      3  C   UNL     1       2.667   6.041  19.403  0.00  0.00    +0.000 A 
ATOM      4  C   UNL     1       3.387   5.099  18.732  0.00  0.00    +0.000 A 
ATOM      5  S   UNL     1       3.271   3.620  19.666  0.00  0.00    +0.000 S 
ATOM      6  C   UNL     1       2.296   4.332  20.919  0.00  0.00    +0.000 A 
ATOM      7  C   UNL     1       2.094   5.610  20.573  0.00  0.00    +0.000 A 
ATOM      8  N   UNL     1       1.410   6.621  21.178  0.00  0.00    +0.000 N 
ATOM      9  H   UNL     1       0.886   6.629  22.041  0.00  0.00    +0.000 HD
ENDROOT
BRANCH   4  10
ATOM     10  C   UNL     1       4.131   5.184  17.469  0.00  0.00    +0.000 A 
ATOM     11  C   UNL     1       4.500   4.050  16.729  0.00  0.00    +0.000 A 
ATOM     12  C   UNL     1       5.255   4.172  15.556  0.00  0.00    +0.000 A 
ATOM     13  C   UNL     1       5.651   5.428  15.103  0.00  0.00    +0.000 A 
ATOM     14  C   UNL     1       5.288   6.565  15.818  0.00  0.00    +0.000 A 
ATOM     15  C   UNL     1       4.536   6.442  16.988  0.00  0.00    +0.000 A 
ENDBRANCH   4  10
BRANCH   1  16
ATOM     16  S   UNL     1       1.003   9.285  20.566  0.00  0.00    +0.000 S 
ATOM     17  O   UNL     1      -0.319   9.056  21.386  0.00  0.00    +0.000 OA
BRANCH  16  18
ATOM     18  C   UNL     1       0.652   9.816  18.862  0.00  0.00    +0.000 C 
BRANCH  18  24
ATOM     19  C   UNL     1       0.545  13.678  18.668  0.00  0.00    +0.000 A 
ATOM     20  C   UNL     1       1.894  13.924  18.393  0.00  0.00    +0.000 A 
ATOM     21  C   UNL     1       2.599  15.241  18.255  0.00  0.00    +0.000 C 
ATOM     22  C   UNL     1       2.694  12.795  18.206  0.00  0.00    +0.000 A 
ATOM     23  N   UNL     1       2.295  11.511  18.336  0.00  0.00    +0.000 NA
ATOM     24  C   UNL     1       0.998  11.277  18.652  0.00  0.00    +0.000 A 
ATOM     25  C   UNL     1       0.084  12.333  18.798  0.00  0.00    +0.000 A 
ATOM     26  C   UNL     1      -1.384  12.095  19.052  0.00  0.00    +0.000 C 
BRANCH  19  28
ATOM     27  C   UNL     1      -0.471  15.384  20.076  0.00  0.00    +0.000 C 
ATOM     28  O   UNL     1      -0.445  14.599  18.899  0.00  0.00    +0.000 OA
ENDBRANCH  19  28
ENDBRANCH  18  24
ENDBRANCH  16  18
ENDBRANCH   1  16
TORSDOF 5
ENDMDL
MODEL 8
REMARK VINA RESULT:      -7.6      4.312      8.482
REMARK  Name = 
REMARK  8 active torsions:
REMARK  status: ('A' for Active; 'I' for Inactive)
REMARK    1  A    between atoms: C_1  and  O_2
REMARK    2  A    between atoms: O_2  and  C_3
REMARK    3  A    between atoms: C_4  and  C_5
REMARK    4  A    between atoms: C_8  and  C_9
REMARK    5  A    between atoms: C_9  and  S_10
REMARK    6  A    between atoms: S_10  and  C_12
REMARK    7  A    between atoms: C_15  and  C_16
REMARK    8  A    between atoms: C_26  and  C_27
REMARK                            x       y       z     vdW  Elec       q    Type
REMARK                         _______ _______ _______ _____ _____    ______ ____
ROOT
ATOM      1  C   UNL     1       1.669   7.581  20.337  0.00  0.00    +0.000 A 
ATOM      2  N   UNL     1       2.449   7.310  19.264  0.00  0.00    +0.000 NA
ATOM      3  C   UNL     1       2.705   5.977  19.427  0.00  0.00    +0.000 A 
ATOM      4  C   UNL     1       3.434   5.061  18.729  0.00  0.00    +0.000 A 
ATOM      5  S   UNL     1       3.275   3.538  19.583  0.00  0.00    +0.000 S 
ATOM      6  C   UNL     1       2.273   4.198  20.843  0.00  0.00    +0.000 A 
ATOM      7  C   UNL     1       2.095   5.494  20.557  0.00  0.00    +0.000 A 
ATOM      8  N   UNL     1       1.405   6.481  21.193  0.00  0.00    +0.000 N 
ATOM      9  H   UNL     1       0.857   6.452  22.041  0.00  0.00    +0.000 HD
ENDROOT
BRANCH   4  10
ATOM     10  C   UNL     1       4.215   5.201  17.493  0.00  0.00    +0.000 A 
ATOM     11  C   UNL     1       4.544   6.451  16.944  0.00  0.00    +0.000 A 
ATOM     12  C   UNL     1       5.245   6.541  15.735  0.00  0.00    +0.000 A 
ATOM     13  C   UNL     1       5.630   5.386  15.059  0.00  0.00    +0.000 A 
ATOM     14  C   UNL     1       5.319   4.139  15.591  0.00  0.00    +0.000 A 
ATOM     15  C   UNL     1       4.620   4.050  16.796  0.00  0.00    +0.000 A 
ENDBRANCH   4  10
BRANCH   1  16
ATOM     16  S   UNL     1       1.045   9.178  20.708  0.00  0.00    +0.000 S 
ATOM     17  O   UNL     1      -0.246   8.925  21.570  0.00  0.00    +0.000 OA
BRANCH  16  18
ATOM     18  C   UNL     1       0.630   9.751  19.032  0.00  0.00    +0.000 C 
BRANCH  18  24
ATOM     19  C   UNL     1       0.985  13.603  19.035  0.00  0.00    +0.000 A 
ATOM     20  C   UNL     1       2.237  13.711  18.420  0.00  0.00    +0.000 A 
ATOM     21  C   UNL     1       3.049  14.944  18.155  0.00  0.00    +0.000 C 
ATOM     22  C   UNL     1       2.805  12.515  17.979  0.00  0.00    +0.000 A 
ATOM     23  N   UNL     1       2.288  11.279  18.157  0.00  0.00    +0.000 NA
ATOM     24  C   UNL     1       1.099  11.174  18.798  0.00  0.00    +0.000 A 
ATOM     25  C   UNL     1       0.401  12.314  19.227  0.00  0.00    +0.000 A 
ATOM     26  C   UNL     1      -0.969  12.229  19.853  0.00  0.00    +0.000 C 
BRANCH  19  28
ATOM     27  C   UNL     1      -0.303  15.649  18.750  0.00  0.00    +0.000 C 
ATOM     28  O   UNL     1       0.218  14.612  19.560  0.00  0.00    +0.000 OA
ENDBRANCH  19  28
ENDBRANCH  18  24
ENDBRANCH  16  18
ENDBRANCH   1  16
TORSDOF 5
ENDMDL
MODEL 9
REMARK VINA RESULT:      -7.5      4.736      9.324
REMARK  Name = 
REMARK  8 active torsions:
REMARK  status: ('A' for Active; 'I' for Inactive)
REMARK    1  A    between atoms: C_1  and  O_2
REMARK    2  A    between atoms: O_2  and  C_3
REMARK    3  A    between atoms: C_4  and  C_5
REMARK    4  A    between atoms: C_8  and  C_9
REMARK    5  A    between atoms: C_9  and  S_10
REMARK    6  A    between atoms: S_10  and  C_12
REMARK    7  A    between atoms: C_15  and  C_16
REMARK    8  A    between atoms: C_26  and  C_27
REMARK                            x       y       z     vdW  Elec       q    Type
REMARK                         _______ _______ _______ _____ _____    ______ ____
ROOT
ATOM      1  C   UNL     1       2.101   8.406  18.369  0.00  0.00    +0.000 A 
ATOM      2  N   UNL     1       3.032   7.782  17.609  0.00  0.00    +0.000 NA
ATOM      3  C   UNL     1       3.274   6.646  18.331  0.00  0.00    +0.000 A 
ATOM      4  C   UNL     1       4.104   5.579  18.166  0.00  0.00    +0.000 A 
ATOM      5  S   UNL     1       3.837   4.518  19.536  0.00  0.00    +0.000 S 
ATOM      6  C   UNL     1       2.656   5.559  20.279  0.00  0.00    +0.000 A 
ATOM      7  C   UNL     1       2.509   6.616  19.471  0.00  0.00    +0.000 A 
ATOM      8  N   UNL     1       1.725   7.727  19.556  0.00  0.00    +0.000 N 
ATOM      9  H   UNL     1       1.060   8.002  20.264  0.00  0.00    +0.000 HD
ENDROOT
BRANCH   4  10
ATOM     10  C   UNL     1       5.056   5.265  17.091  0.00  0.00    +0.000 A 
ATOM     11  C   UNL     1       4.785   4.312  16.096  0.00  0.00    +0.000 A 
ATOM     12  C   UNL     1       5.740   4.004  15.120  0.00  0.00    +0.000 A 
ATOM     13  C   UNL     1       6.977   4.644  15.121  0.00  0.00    +0.000 A 
ATOM     14  C   UNL     1       7.261   5.596  16.095  0.00  0.00    +0.000 A 
ATOM     15  C   UNL     1       6.308   5.902  17.068  0.00  0.00    +0.000 A 
ENDBRANCH   4  10
BRANCH   1  16
ATOM     16  S   UNL     1       1.415   9.972  17.975  0.00  0.00    +0.000 S 
ATOM     17  O   UNL     1       2.620  10.980  18.052  0.00  0.00    +0.000 OA
BRANCH  16  18
ATOM     18  C   UNL     1       0.277  10.180  19.379  0.00  0.00    +0.000 C 
BRANCH  18  24
ATOM     19  C   UNL     1      -3.165  11.911  19.029  0.00  0.00    +0.000 A 
ATOM     20  C   UNL     1      -3.555  11.383  17.794  0.00  0.00    +0.000 A 
ATOM     21  C   UNL     1      -4.785  11.684  16.990  0.00  0.00    +0.000 C 
ATOM     22  C   UNL     1      -2.692  10.438  17.235  0.00  0.00    +0.000 A 
ATOM     23  N   UNL     1      -1.502  10.052  17.746  0.00  0.00    +0.000 NA
ATOM     24  C   UNL     1      -1.104  10.602  18.918  0.00  0.00    +0.000 A 
ATOM     25  C   UNL     1      -1.921  11.514  19.606  0.00  0.00    +0.000 A 
ATOM     26  C   UNL     1      -1.546  12.065  20.960  0.00  0.00    +0.000 C 
BRANCH  19  28
ATOM     27  C   UNL     1      -5.050  12.566  20.423  0.00  0.00    +0.000 C 
ATOM     28  O   UNL     1      -3.820  12.851  19.783  0.00  0.00    +0.000 OA
ENDBRANCH  19  28
ENDBRANCH  18  24
ENDBRANCH  16  18
ENDBRANCH   1  16
TORSDOF 5
ENDMDL
