MODEL 1
REMARK VINA RESULT:      -7.2      0.000      0.000
REMARK  Name = 
REMARK  10 active torsions:
REMARK  status: ('A' for Active; 'I' for Inactive)
REMARK    1  A    between atoms: C_1  and  C_2
REMARK    2  A    between atoms: C_2  and  C_4
REMARK    3  A    between atoms: C_4  and  C_5
REMARK    4  A    between atoms: C_7  and  O_8
REMARK    5  A    between atoms: C_7  and  C_9
REMARK    6  A    between atoms: C_9  and  S_10
REMARK    7  A    between atoms: S_10  and  C_11
REMARK    8  A    between atoms: C_14  and  C_15
REMARK    9  A    between atoms: C_18  and  O_19
REMARK   10  A    between atoms: O_19  and  C_20
REMARK                            x       y       z     vdW  Elec       q    Type
REMARK                         _______ _______ _______ _____ _____    ______ ____
ROOT
ATOM      1  C   UNL     1       2.636   7.447  18.124  0.00  0.00    +0.000 A 
ATOM      2  N   UNL     1       2.592   8.488  17.318  0.00  0.00    +0.000 NA
ATOM      3  N   UNL     1       1.904   9.486  17.989  0.00  0.00    +0.000 NA
ATOM      4  C   UNL     1       1.578   8.992  19.169  0.00  0.00    +0.000 A 
ATOM      5  O   UNL     1       2.012   7.701  19.325  0.00  0.00    +0.000 OA
ENDROOT
BRANCH   4   6
ATOM      6  C   UNL     1       0.868   9.613  20.289  0.00  0.00    +0.000 A 
ATOM      7  C   UNL     1       0.276   8.814  21.278  0.00  0.00    +0.000 A 
ATOM      8  C   UNL     1      -0.454   9.387  22.326  0.00  0.00    +0.000 A 
ATOM      9  C   UNL     1      -0.598  10.772  22.424  0.00  0.00    +0.000 A 
ATOM     10  C   UNL     1      -0.014  11.583  21.454  0.00  0.00    +0.000 A 
ATOM     11  C   UNL     1       0.719  11.006  20.401  0.00  0.00    +0.000 A 
BRANCH   9  12
ATOM     12  O   UNL     1      -1.367  11.201  23.468  0.00  0.00    +0.000 OA
BRANCH  12  13
ATOM     13  C   UNL     1      -2.276  12.249  23.186  0.00  0.00    +0.000 C 
ATOM     14  F   UNL     1      -2.951  11.950  22.049  0.00  0.00    +0.000 F 
ATOM     15  F   UNL     1      -3.189  12.269  24.188  0.00  0.00    +0.000 F 
ENDBRANCH  12  13
ENDBRANCH   9  12
ENDBRANCH   4   6
BRANCH   1  16
ATOM     16  S   UNL     1       3.368   5.907  17.773  0.00  0.00    +0.000 S 
BRANCH  16  17
ATOM     17  C   UNL     1       4.132   5.447  19.375  0.00  0.00    +0.000 C 
BRANCH  17  19
ATOM     18  C   UNL     1       3.050   3.360  20.436  0.00  0.00    +0.000 C 
ATOM     19  C   UNL     1       3.171   4.716  20.338  0.00  0.00    +0.000 C 
BRANCH  18  21
ATOM     20  C   UNL     1       3.267   1.918  18.285  0.00  0.00    +0.000 C 
ATOM     21  C   UNL     1       3.859   2.410  19.588  0.00  0.00    +0.000 C 
ATOM     22  N   UNL     1       5.034   2.000  19.935  0.00  0.00    +0.000 NA
ATOM     23  H   UNL     1       5.445   1.358  19.247  0.00  0.00    +0.000 HD
ENDBRANCH  18  21
BRANCH  18  24
ATOM     24  C   UNL     1       2.071   2.769  21.436  0.00  0.00    +0.000 C 
ATOM     25  N   UNL     1       1.258   2.277  22.266  0.00  0.00    +0.000 NA
ENDBRANCH  18  24
BRANCH  19  26
ATOM     26  O   UNL     1       2.410   5.579  21.134  0.00  0.00    +0.000 OA
ATOM     27  H   UNL     1       2.682   6.510  21.065  0.00  0.00    +0.000 HD
ENDBRANCH  19  26
ENDBRANCH  17  19
ENDBRANCH  16  17
ENDBRANCH   1  16
TORSDOF 9
ENDMDL
MODEL 2
REMARK VINA RESULT:      -7.1      6.948      8.161
REMARK  Name = 
REMARK  10 active torsions:
REMARK  status: ('A' for Active; 'I' for Inactive)
REMARK    1  A    between atoms: C_1  and  C_2
REMARK    2  A    between atoms: C_2  and  C_4
REMARK    3  A    between atoms: C_4  and  C_5
REMARK    4  A    between atoms: C_7  and  O_8
REMARK    5  A    between atoms: C_7  and  C_9
REMARK    6  A    between atoms: C_9  and  S_10
REMARK    7  A    between atoms: S_10  and  C_11
REMARK    8  A    between atoms: C_14  and  C_15
REMARK    9  A    between atoms: C_18  and  O_19
REMARK   10  A    between atoms: O_19  and  C_20
REMARK                            x       y       z     vdW  Elec       q    Type
REMARK                         _______ _______ _______ _____ _____    ______ ____
ROOT
ATOM      1  C   UNL     1       7.650   7.022  18.029  0.00  0.00    +0.000 A 
ATOM      2  N   UNL     1       6.983   7.734  17.144  0.00  0.00    +0.000 NA
ATOM      3  N   UNL     1       7.447   9.036  17.245  0.00  0.00    +0.000 NA
ATOM      4  C   UNL     1       8.376   9.034  18.182  0.00  0.00    +0.000 A 
ATOM      5  O   UNL     1       8.560   7.787  18.724  0.00  0.00    +0.000 OA
ENDROOT
BRANCH   4   6
ATOM      6  C   UNL     1       9.213  10.125  18.685  0.00  0.00    +0.000 A 
ATOM      7  C   UNL     1       9.281  10.385  20.061  0.00  0.00    +0.000 A 
ATOM      8  C   UNL     1      10.031  11.459  20.556  0.00  0.00    +0.000 A 
ATOM      9  C   UNL     1      10.747  12.289  19.692  0.00  0.00    +0.000 A 
ATOM     10  C   UNL     1      10.696  12.045  18.321  0.00  0.00    +0.000 A 
ATOM     11  C   UNL     1       9.941  10.967  17.826  0.00  0.00    +0.000 A 
BRANCH   9  12
ATOM     12  O   UNL     1      11.405  13.323  20.296  0.00  0.00    +0.000 OA
BRANCH  12  13
ATOM     13  C   UNL     1      10.637  14.483  20.561  0.00  0.00    +0.000 C 
ATOM     14  F   UNL     1       9.542  14.477  19.764  0.00  0.00    +0.000 F 
ATOM     15  F   UNL     1      10.191  14.384  21.838  0.00  0.00    +0.000 F 
ENDBRANCH  12  13
ENDBRANCH   9  12
ENDBRANCH   4   6
BRANCH   1  16
ATOM     16  S   UNL     1       7.450   5.321  18.339  0.00  0.00    +0.000 S 
BRANCH  16  17
ATOM     17  C   UNL     1       5.989   5.279  19.447  0.00  0.00    +0.000 C 
BRANCH  17  19
ATOM     18  C   UNL     1       3.564   4.802  18.711  0.00  0.00    +0.000 C 
ATOM     19  C   UNL     1       4.842   4.379  18.936  0.00  0.00    +0.000 C 
BRANCH  18  21
ATOM     20  C   UNL     1       3.326   7.239  17.842  0.00  0.00    +0.000 C 
ATOM     21  C   UNL     1       3.127   6.226  18.948  0.00  0.00    +0.000 C 
ATOM     22  N   UNL     1       2.593   6.611  20.060  0.00  0.00    +0.000 NA
ATOM     23  H   UNL     1       2.355   7.610  20.056  0.00  0.00    +0.000 HD
ENDBRANCH  18  21
BRANCH  18  24
ATOM     24  C   UNL     1       2.532   3.813  18.195  0.00  0.00    +0.000 C 
ATOM     25  N   UNL     1       1.676   2.992  17.768  0.00  0.00    +0.000 NA
ENDBRANCH  18  24
BRANCH  19  26
ATOM     26  O   UNL     1       5.227   3.053  18.709  0.00  0.00    +0.000 OA
ATOM     27  H   UNL     1       5.618   2.625  19.490  0.00  0.00    +0.000 HD
ENDBRANCH  19  26
ENDBRANCH  17  19
ENDBRANCH  16  17
ENDBRANCH   1  16
TORSDOF 9
ENDMDL
MODEL 3
REMARK VINA RESULT:      -7.0      7.049      8.132
REMARK  Name = 
REMARK  10 active torsions:
REMARK  status: ('A' for Active; 'I' for Inactive)
REMARK    1  A    between atoms: C_1  and  C_2
REMARK    2  A    between atoms: C_2  and  C_4
REMARK    3  A    between atoms: C_4  and  C_5
REMARK    4  A    between atoms: C_7  and  O_8
REMARK    5  A    between atoms: C_7  and  C_9
REMARK    6  A    between atoms: C_9  and  S_10
REMARK    7  A    between atoms: S_10  and  C_11
REMARK    8  A    between atoms: C_14  and  C_15
REMARK    9  A    between atoms: C_18  and  O_19
REMARK   10  A    between atoms: O_19  and  C_20
REMARK                            x       y       z     vdW  Elec       q    Type
REMARK                         _______ _______ _______ _____ _____    ______ ____
ROOT
ATOM      1  C   UNL     1       7.778   7.026  18.165  0.00  0.00    +0.000 A 
ATOM      2  N   UNL     1       7.120   7.676  17.226  0.00  0.00    +0.000 NA
ATOM      3  N   UNL     1       7.527   8.999  17.294  0.00  0.00    +0.000 NA
ATOM      4  C   UNL     1       8.416   9.071  18.267  0.00  0.00    +0.000 A 
ATOM      5  O   UNL     1       8.627   7.855  18.864  0.00  0.00    +0.000 OA
ENDROOT
BRANCH   4   6
ATOM      6  C   UNL     1       9.186  10.214  18.759  0.00  0.00    +0.000 A 
ATOM      7  C   UNL     1       9.326  10.430  20.138  0.00  0.00    +0.000 A 
ATOM      8  C   UNL     1      10.012  11.548  20.627  0.00  0.00    +0.000 A 
ATOM      9  C   UNL     1      10.592  12.470  19.754  0.00  0.00    +0.000 A 
ATOM     10  C   UNL     1      10.467  12.272  18.380  0.00  0.00    +0.000 A 
ATOM     11  C   UNL     1       9.777  11.148  17.891  0.00  0.00    +0.000 A 
BRANCH   9  12
ATOM     12  O   UNL     1      11.197  13.536  20.356  0.00  0.00    +0.000 OA
BRANCH  12  13
ATOM     13  C   UNL     1      10.346  14.598  20.750  0.00  0.00    +0.000 C 
ATOM     14  F   UNL     1      10.453  14.770  22.090  0.00  0.00    +0.000 F 
ATOM     15  F   UNL     1      10.822  15.728  20.172  0.00  0.00    +0.000 F 
ENDBRANCH  12  13
ENDBRANCH   9  12
ENDBRANCH   4   6
BRANCH   1  16
ATOM     16  S   UNL     1       7.633   5.331  18.533  0.00  0.00    +0.000 S 
BRANCH  16  17
ATOM     17  C   UNL     1       6.012   5.238  19.386  0.00  0.00    +0.000 C 
BRANCH  17  19
ATOM     18  C   UNL     1       3.999   3.801  18.658  0.00  0.00    +0.000 C 
ATOM     19  C   UNL     1       4.837   4.859  18.458  0.00  0.00    +0.000 C 
BRANCH  18  21
ATOM     20  C   UNL     1       3.120   2.946  20.949  0.00  0.00    +0.000 C 
ATOM     21  C   UNL     1       4.139   2.866  19.833  0.00  0.00    +0.000 C 
ATOM     22  N   UNL     1       5.098   2.003  19.923  0.00  0.00    +0.000 NA
ATOM     23  H   UNL     1       5.046   1.448  20.785  0.00  0.00    +0.000 HD
ENDBRANCH  18  21
BRANCH  18  24
ATOM     24  C   UNL     1       2.873   3.545  17.670  0.00  0.00    +0.000 C 
ATOM     25  N   UNL     1       1.938   3.332  16.851  0.00  0.00    +0.000 NA
ENDBRANCH  18  24
BRANCH  19  26
ATOM     26  O   UNL     1       4.690   5.715  17.360  0.00  0.00    +0.000 OA
ATOM     27  H   UNL     1       5.405   5.630  16.706  0.00  0.00    +0.000 HD
ENDBRANCH  19  26
ENDBRANCH  17  19
ENDBRANCH  16  17
ENDBRANCH   1  16
TORSDOF 9
ENDMDL
MODEL 4
REMARK VINA RESULT:      -7.0      6.934      8.023
REMARK  Name = 
REMARK  10 active torsions:
REMARK  status: ('A' for Active; 'I' for Inactive)
REMARK    1  A    between atoms: C_1  and  C_2
REMARK    2  A    between atoms: C_2  and  C_4
REMARK    3  A    between atoms: C_4  and  C_5
REMARK    4  A    between atoms: C_7  and  O_8
REMARK    5  A    between atoms: C_7  and  C_9
REMARK    6  A    between atoms: C_9  and  S_10
REMARK    7  A    between atoms: S_10  and  C_11
REMARK    8  A    between atoms: C_14  and  C_15
REMARK    9  A    between atoms: C_18  and  O_19
REMARK   10  A    between atoms: O_19  and  C_20
REMARK                            x       y       z     vdW  Elec       q    Type
REMARK                         _______ _______ _______ _____ _____    ______ ____
ROOT
ATOM      1  C   UNL     1       7.614   6.861  18.005  0.00  0.00    +0.000 A 
ATOM      2  N   UNL     1       6.956   7.555  17.098  0.00  0.00    +0.000 NA
ATOM      3  N   UNL     1       7.392   8.866  17.202  0.00  0.00    +0.000 NA
ATOM      4  C   UNL     1       8.297   8.888  18.162  0.00  0.00    +0.000 A 
ATOM      5  O   UNL     1       8.491   7.648  18.717  0.00  0.00    +0.000 OA
ENDROOT
BRANCH   4   6
ATOM      6  C   UNL     1       9.099   9.998  18.679  0.00  0.00    +0.000 A 
ATOM      7  C   UNL     1       9.170  10.235  20.060  0.00  0.00    +0.000 A 
ATOM      8  C   UNL     1       9.886  11.325  20.569  0.00  0.00    +0.000 A 
ATOM      9  C   UNL     1      10.566  12.195  19.715  0.00  0.00    +0.000 A 
ATOM     10  C   UNL     1      10.513  11.975  18.340  0.00  0.00    +0.000 A 
ATOM     11  C   UNL     1       9.791  10.880  17.831  0.00  0.00    +0.000 A 
BRANCH   9  12
ATOM     12  O   UNL     1      11.193  13.240  20.333  0.00  0.00    +0.000 OA
BRANCH  12  13
ATOM     13  C   UNL     1      10.429  14.422  20.491  0.00  0.00    +0.000 C 
ATOM     14  F   UNL     1      10.918  15.122  21.544  0.00  0.00    +0.000 F 
ATOM     15  F   UNL     1      10.636  15.183  19.388  0.00  0.00    +0.000 F 
ENDBRANCH  12  13
ENDBRANCH   9  12
ENDBRANCH   4   6
BRANCH   1  16
ATOM     16  S   UNL     1       7.438   5.158  18.320  0.00  0.00    +0.000 S 
BRANCH  16  17
ATOM     17  C   UNL     1       5.835   4.762  17.524  0.00  0.00    +0.000 C 
BRANCH  17  19
ATOM     18  C   UNL     1       3.883   4.236  19.126  0.00  0.00    +0.000 C 
ATOM     19  C   UNL     1       4.603   5.126  18.383  0.00  0.00    +0.000 C 
BRANCH  18  21
ATOM     20  C   UNL     1       3.546   1.831  18.202  0.00  0.00    +0.000 C 
ATOM     21  C   UNL     1       4.219   2.767  19.182  0.00  0.00    +0.000 C 
ATOM     22  N   UNL     1       5.057   2.279  20.038  0.00  0.00    +0.000 NA
ATOM     23  H   UNL     1       5.170   1.264  19.941  0.00  0.00    +0.000 HD
ENDBRANCH  18  21
BRANCH  18  24
ATOM     24  C   UNL     1       2.697   4.730  19.937  0.00  0.00    +0.000 C 
ATOM     25  N   UNL     1       1.712   5.139  20.610  0.00  0.00    +0.000 NA
ENDBRANCH  18  24
BRANCH  19  26
ATOM     26  O   UNL     1       4.274   6.485  18.344  0.00  0.00    +0.000 OA
ATOM     27  H   UNL     1       3.488   6.708  18.872  0.00  0.00    +0.000 HD
ENDBRANCH  19  26
ENDBRANCH  17  19
ENDBRANCH  16  17
ENDBRANCH   1  16
TORSDOF 9
ENDMDL
MODEL 5
REMARK VINA RESULT:      -6.9      2.351      3.130
REMARK  Name = 
REMARK  10 active torsions:
REMARK  status: ('A' for Active; 'I' for Inactive)
REMARK    1  A    between atoms: C_1  and  C_2
REMARK    2  A    between atoms: C_2  and  C_4
REMARK    3  A    between atoms: C_4  and  C_5
REMARK    4  A    between atoms: C_7  and  O_8
REMARK    5  A    between atoms: C_7  and  C_9
REMARK    6  A    between atoms: C_9  and  S_10
REMARK    7  A    between atoms: S_10  and  C_11
REMARK    8  A    between atoms: C_14  and  C_15
REMARK    9  A    between atoms: C_18  and  O_19
REMARK   10  A    between atoms: O_19  and  C_20
REMARK                            x       y       z     vdW  Elec       q    Type
REMARK                         _______ _______ _______ _____ _____    ______ ____
ROOT
ATOM      1  C   UNL     1       4.695   5.794  17.017  0.00  0.00    +0.000 A 
ATOM      2  N   UNL     1       4.718   6.808  16.176  0.00  0.00    +0.000 NA
ATOM      3  N   UNL     1       3.847   7.763  16.675  0.00  0.00    +0.000 NA
ATOM      4  C   UNL     1       3.353   7.274  17.797  0.00  0.00    +0.000 A 
ATOM      5  O   UNL     1       3.848   6.026  18.078  0.00  0.00    +0.000 OA
ENDROOT
BRANCH   4   6
ATOM      6  C   UNL     1       2.407   7.861  18.748  0.00  0.00    +0.000 A 
ATOM      7  C   UNL     1       1.761   9.069  18.445  0.00  0.00    +0.000 A 
ATOM      8  C   UNL     1       0.897   9.675  19.365  0.00  0.00    +0.000 A 
ATOM      9  C   UNL     1       0.640   9.082  20.603  0.00  0.00    +0.000 A 
ATOM     10  C   UNL     1       1.269   7.879  20.921  0.00  0.00    +0.000 A 
ATOM     11  C   UNL     1       2.138   7.273  19.995  0.00  0.00    +0.000 A 
BRANCH   9  12
ATOM     12  O   UNL     1      -0.188   9.792  21.424  0.00  0.00    +0.000 OA
BRANCH  12  13
ATOM     13  C   UNL     1      -0.318   9.310  22.750  0.00  0.00    +0.000 C 
ATOM     14  F   UNL     1       0.829   9.566  23.424  0.00  0.00    +0.000 F 
ATOM     15  F   UNL     1      -1.293  10.039  23.347  0.00  0.00    +0.000 F 
ENDBRANCH  12  13
ENDBRANCH   9  12
ENDBRANCH   4   6
BRANCH   1  16
ATOM     16  S   UNL     1       5.594   4.312  16.862  0.00  0.00    +0.000 S 
BRANCH  16  17
ATOM     17  C   UNL     1       4.357   3.037  17.317  0.00  0.00    +0.000 C 
BRANCH  17  19
ATOM     18  C   UNL     1       2.795   3.063  19.369  0.00  0.00    +0.000 C 
ATOM     19  C   UNL     1       4.046   2.980  18.829  0.00  0.00    +0.000 C 
BRANCH  18  21
ATOM     20  C   UNL     1       0.443   2.211  18.663  0.00  0.00    +0.000 C 
ATOM     21  C   UNL     1       1.556   3.228  18.524  0.00  0.00    +0.000 C 
ATOM     22  N   UNL     1       1.413   4.201  17.686  0.00  0.00    +0.000 NA
ATOM     23  H   UNL     1       0.514   4.165  17.192  0.00  0.00    +0.000 HD
ENDBRANCH  18  21
BRANCH  18  24
ATOM     24  C   UNL     1       2.627   2.981  20.877  0.00  0.00    +0.000 C 
ATOM     25  N   UNL     1       2.487   2.914  22.128  0.00  0.00    +0.000 NA
ENDBRANCH  18  24
BRANCH  19  26
ATOM     26  O   UNL     1       5.182   2.827  19.631  0.00  0.00    +0.000 OA
ATOM     27  H   UNL     1       6.012   2.801  19.124  0.00  0.00    +0.000 HD
ENDBRANCH  19  26
ENDBRANCH  17  19
ENDBRANCH  16  17
ENDBRANCH   1  16
TORSDOF 9
ENDMDL
MODEL 6
REMARK VINA RESULT:      -6.9      0.543      1.095
REMARK  Name = 
REMARK  10 active torsions:
REMARK  status: ('A' for Active; 'I' for Inactive)
REMARK    1  A    between atoms: C_1  and  C_2
REMARK    2  A    between atoms: C_2  and  C_4
REMARK    3  A    between atoms: C_4  and  C_5
REMARK    4  A    between atoms: C_7  and  O_8
REMARK    5  A    between atoms: C_7  and  C_9
REMARK    6  A    between atoms: C_9  and  S_10
REMARK    7  A    between atoms: S_10  and  C_11
REMARK    8  A    between atoms: C_14  and  C_15
REMARK    9  A    between atoms: C_18  and  O_19
REMARK   10  A    between atoms: O_19  and  C_20
REMARK                            x       y       z     vdW  Elec       q    Type
REMARK                         _______ _______ _______ _____ _____    ______ ____
ROOT
ATOM      1  C   UNL     1       2.724   7.376  17.960  0.00  0.00    +0.000 A 
ATOM      2  N   UNL     1       2.722   8.356  17.079  0.00  0.00    +0.000 NA
ATOM      3  N   UNL     1       2.086   9.431  17.678  0.00  0.00    +0.000 NA
ATOM      4  C   UNL     1       1.746   9.041  18.892  0.00  0.00    +0.000 A 
ATOM      5  O   UNL     1       2.122   7.746  19.141  0.00  0.00    +0.000 OA
ENDROOT
BRANCH   4   6
ATOM      6  C   UNL     1       1.072   9.774  19.965  0.00  0.00    +0.000 A 
ATOM      7  C   UNL     1       0.872  11.158  19.857  0.00  0.00    +0.000 A 
ATOM      8  C   UNL     1       0.280  11.885  20.897  0.00  0.00    +0.000 A 
ATOM      9  C   UNL     1      -0.144  11.247  22.064  0.00  0.00    +0.000 A 
ATOM     10  C   UNL     1       0.042   9.872  22.189  0.00  0.00    +0.000 A 
ATOM     11  C   UNL     1       0.638   9.143  21.144  0.00  0.00    +0.000 A 
BRANCH   9  12
ATOM     12  O   UNL     1      -0.668  12.072  23.017  0.00  0.00    +0.000 OA
BRANCH  12  13
ATOM     13  C   UNL     1      -2.078  12.055  23.154  0.00  0.00    +0.000 C 
ATOM     14  F   UNL     1      -2.639  12.127  21.922  0.00  0.00    +0.000 F 
ATOM     15  F   UNL     1      -2.415  10.845  23.665  0.00  0.00    +0.000 F 
ENDBRANCH  12  13
ENDBRANCH   9  12
ENDBRANCH   4   6
BRANCH   1  16
ATOM     16  S   UNL     1       3.384   5.783  17.720  0.00  0.00    +0.000 S 
BRANCH  16  17
ATOM     17  C   UNL     1       4.122   5.399  19.355  0.00  0.00    +0.000 C 
BRANCH  17  19
ATOM     18  C   UNL     1       3.013   3.350  20.461  0.00  0.00    +0.000 C 
ATOM     19  C   UNL     1       3.149   4.702  20.332  0.00  0.00    +0.000 C 
BRANCH  18  21
ATOM     20  C   UNL     1       3.218   1.848  18.351  0.00  0.00    +0.000 C 
ATOM     21  C   UNL     1       3.815   2.372  19.639  0.00  0.00    +0.000 C 
ATOM     22  N   UNL     1       4.988   1.964  19.997  0.00  0.00    +0.000 NA
ATOM     23  H   UNL     1       5.393   1.300  19.327  0.00  0.00    +0.000 HD
ENDBRANCH  18  21
BRANCH  18  24
ATOM     24  C   UNL     1       2.024   2.794  21.471  0.00  0.00    +0.000 C 
ATOM     25  N   UNL     1       1.203   2.331  22.310  0.00  0.00    +0.000 NA
ENDBRANCH  18  24
BRANCH  19  26
ATOM     26  O   UNL     1       2.395   5.593  21.104  0.00  0.00    +0.000 OA
ATOM     27  H   UNL     1       1.499   5.743  20.757  0.00  0.00    +0.000 HD
ENDBRANCH  19  26
ENDBRANCH  17  19
ENDBRANCH  16  17
ENDBRANCH   1  16
TORSDOF 9
ENDMDL
MODEL 7
REMARK VINA RESULT:      -6.8      3.416      5.109
REMARK  Name = 
REMARK  10 active torsions:
REMARK  status: ('A' for Active; 'I' for Inactive)
REMARK    1  A    between atoms: C_1  and  C_2
REMARK    2  A    between atoms: C_2  and  C_4
REMARK    3  A    between atoms: C_4  and  C_5
REMARK    4  A    between atoms: C_7  and  O_8
REMARK    5  A    between atoms: C_7  and  C_9
REMARK    6  A    between atoms: C_9  and  S_10
REMARK    7  A    between atoms: S_10  and  C_11
REMARK    8  A    between atoms: C_14  and  C_15
REMARK    9  A    between atoms: C_18  and  O_19
REMARK   10  A    between atoms: O_19  and  C_20
REMARK                            x       y       z     vdW  Elec       q    Type
REMARK                         _______ _______ _______ _____ _____    ______ ____
ROOT
ATOM      1  C   UNL     1       4.174   4.398  16.792  0.00  0.00    +0.000 A 
ATOM      2  N   UNL     1       3.334   3.572  17.383  0.00  0.00    +0.000 NA
ATOM      3  N   UNL     1       2.491   4.347  18.163  0.00  0.00    +0.000 NA
ATOM      4  C   UNL     1       2.865   5.601  17.991  0.00  0.00    +0.000 A 
ATOM      5  O   UNL     1       3.928   5.710  17.132  0.00  0.00    +0.000 OA
ENDROOT
BRANCH   4   6
ATOM      6  C   UNL     1       2.314   6.837  18.552  0.00  0.00    +0.000 A 
ATOM      7  C   UNL     1       2.086   7.946  17.724  0.00  0.00    +0.000 A 
ATOM      8  C   UNL     1       1.612   9.153  18.252  0.00  0.00    +0.000 A 
ATOM      9  C   UNL     1       1.335   9.279  19.614  0.00  0.00    +0.000 A 
ATOM     10  C   UNL     1       1.550   8.187  20.452  0.00  0.00    +0.000 A 
ATOM     11  C   UNL     1       2.028   6.975  19.921  0.00  0.00    +0.000 A 
BRANCH   9  12
ATOM     12  O   UNL     1       0.917  10.518  20.008  0.00  0.00    +0.000 OA
BRANCH  12  13
ATOM     13  C   UNL     1      -0.456  10.640  20.335  0.00  0.00    +0.000 C 
ATOM     14  F   UNL     1      -1.181   9.887  19.474  0.00  0.00    +0.000 F 
ATOM     15  F   UNL     1      -0.624  10.097  21.566  0.00  0.00    +0.000 F 
ENDBRANCH  12  13
ENDBRANCH   9  12
ENDBRANCH   4   6
BRANCH   1  16
ATOM     16  S   UNL     1       5.462   3.950  15.711  0.00  0.00    +0.000 S 
BRANCH  16  17
ATOM     17  C   UNL     1       6.959   4.189  16.742  0.00  0.00    +0.000 C 
BRANCH  17  19
ATOM     18  C   UNL     1       7.536   6.317  18.080  0.00  0.00    +0.000 C 
ATOM     19  C   UNL     1       7.388   5.666  16.890  0.00  0.00    +0.000 C 
BRANCH  18  21
ATOM     20  C   UNL     1       5.896   5.127  19.707  0.00  0.00    +0.000 C 
ATOM     21  C   UNL     1       7.286   5.646  19.408  0.00  0.00    +0.000 C 
ATOM     22  N   UNL     1       8.212   5.504  20.298  0.00  0.00    +0.000 NA
ATOM     23  H   UNL     1       7.874   5.029  21.143  0.00  0.00    +0.000 HD
ENDBRANCH  18  21
BRANCH  18  24
ATOM     24  C   UNL     1       7.976   7.771  18.084  0.00  0.00    +0.000 C 
ATOM     25  N   UNL     1       8.340   8.979  18.088  0.00  0.00    +0.000 NA
ENDBRANCH  18  24
BRANCH  19  26
ATOM     26  O   UNL     1       7.625   6.306  15.668  0.00  0.00    +0.000 OA
ATOM     27  H   UNL     1       6.829   6.394  15.117  0.00  0.00    +0.000 HD
ENDBRANCH  19  26
ENDBRANCH  17  19
ENDBRANCH  16  17
ENDBRANCH   1  16
TORSDOF 9
ENDMDL
MODEL 8
REMARK VINA RESULT:      -6.7      5.060      8.733
REMARK  Name = 
REMARK  10 active torsions:
REMARK  status: ('A' for Active; 'I' for Inactive)
REMARK    1  A    between atoms: C_1  and  C_2
REMARK    2  A    between atoms: C_2  and  C_4
REMARK    3  A    between atoms: C_4  and  C_5
REMARK    4  A    between atoms: C_7  and  O_8
REMARK    5  A    between atoms: C_7  and  C_9
REMARK    6  A    between atoms: C_9  and  S_10
REMARK    7  A    between atoms: S_10  and  C_11
REMARK    8  A    between atoms: C_14  and  C_15
REMARK    9  A    between atoms: C_18  and  O_19
REMARK   10  A    between atoms: O_19  and  C_20
REMARK                            x       y       z     vdW  Elec       q    Type
REMARK                         _______ _______ _______ _____ _____    ______ ____
ROOT
ATOM      1  C   UNL     1       0.127  11.144  20.423  0.00  0.00    +0.000 A 
ATOM      2  N   UNL     1       0.491  10.998  21.680  0.00  0.00    +0.000 NA
ATOM      3  N   UNL     1       1.120   9.767  21.777  0.00  0.00    +0.000 NA
ATOM      4  C   UNL     1       1.106   9.241  20.566  0.00  0.00    +0.000 A 
ATOM      5  O   UNL     1       0.493  10.061  19.654  0.00  0.00    +0.000 OA
ENDROOT
BRANCH   4   6
ATOM      6  C   UNL     1       1.650   7.971  20.083  0.00  0.00    +0.000 A 
ATOM      7  C   UNL     1       2.283   7.904  18.833  0.00  0.00    +0.000 A 
ATOM      8  C   UNL     1       2.759   6.687  18.330  0.00  0.00    +0.000 A 
ATOM      9  C   UNL     1       2.633   5.509  19.068  0.00  0.00    +0.000 A 
ATOM     10  C   UNL     1       2.011   5.555  20.314  0.00  0.00    +0.000 A 
ATOM     11  C   UNL     1       1.532   6.778  20.818  0.00  0.00    +0.000 A 
BRANCH   9  12
ATOM     12  O   UNL     1       3.101   4.385  18.450  0.00  0.00    +0.000 OA
BRANCH  12  13
ATOM     13  C   UNL     1       2.136   3.588  17.787  0.00  0.00    +0.000 C 
ATOM     14  F   UNL     1       1.598   2.720  18.678  0.00  0.00    +0.000 F 
ATOM     15  F   UNL     1       1.135   4.414  17.395  0.00  0.00    +0.000 F 
ENDBRANCH  12  13
ENDBRANCH   9  12
ENDBRANCH   4   6
BRANCH   1  16
ATOM     16  S   UNL     1      -0.721  12.507  19.751  0.00  0.00    +0.000 S 
BRANCH  16  17
ATOM     17  C   UNL     1      -2.311  11.770  19.211  0.00  0.00    +0.000 C 
BRANCH  17  19
ATOM     18  C   UNL     1      -3.377  11.165  16.942  0.00  0.00    +0.000 C 
ATOM     19  C   UNL     1      -2.290  11.229  17.764  0.00  0.00    +0.000 C 
BRANCH  18  21
ATOM     20  C   UNL     1      -5.574  10.706  18.252  0.00  0.00    +0.000 C 
ATOM     21  C   UNL     1      -4.749  11.622  17.374  0.00  0.00    +0.000 C 
ATOM     22  N   UNL     1      -5.244  12.762  17.019  0.00  0.00    +0.000 NA
ATOM     23  H   UNL     1      -6.185  12.915  17.398  0.00  0.00    +0.000 HD
ENDBRANCH  18  21
BRANCH  18  24
ATOM     24  C   UNL     1      -3.216  10.620  15.533  0.00  0.00    +0.000 C 
ATOM     25  N   UNL     1      -3.083  10.167  14.363  0.00  0.00    +0.000 NA
ENDBRANCH  18  24
BRANCH  19  26
ATOM     26  O   UNL     1      -1.026  10.800  17.343  0.00  0.00    +0.000 OA
ATOM     27  H   UNL     1      -0.874   9.850  17.483  0.00  0.00    +0.000 HD
ENDBRANCH  19  26
ENDBRANCH  17  19
ENDBRANCH  16  17
ENDBRANCH   1  16
TORSDOF 9
ENDMDL
MODEL 9
REMARK VINA RESULT:      -6.7      2.728      4.101
REMARK  Name = 
REMARK  10 active torsions:
REMARK  status: ('A' for Active; 'I' for Inactive)
REMARK    1  A    between atoms: C_1  and  C_2
REMARK    2  A    between atoms: C_2  and  C_4
REMARK    3  A    between atoms: C_4  and  C_5
REMARK    4  A    between atoms: C_7  and  O_8
REMARK    5  A    between atoms: C_7  and  C_9
REMARK    6  A    between atoms: C_9  and  S_10
REMARK    7  A    between atoms: S_10  and  C_11
REMARK    8  A    between atoms: C_14  and  C_15
REMARK    9  A    between atoms: C_18  and  O_19
REMARK   10  A    between atoms: O_19  and  C_20
REMARK                            x       y       z     vdW  Elec       q    Type
REMARK                         _______ _______ _______ _____ _____    ______ ____
ROOT
ATOM      1  C   UNL     1       3.251   5.467  19.064  0.00  0.00    +0.000 A 
ATOM      2  N   UNL     1       3.055   5.986  17.869  0.00  0.00    +0.000 NA
ATOM      3  N   UNL     1       2.368   7.175  18.056  0.00  0.00    +0.000 NA
ATOM      4  C   UNL     1       2.194   7.310  19.357  0.00  0.00    +0.000 A 
ATOM      5  O   UNL     1       2.731   6.262  20.061  0.00  0.00    +0.000 OA
ENDROOT
BRANCH   4   6
ATOM      6  C   UNL     1       1.554   8.385  20.118  0.00  0.00    +0.000 A 
ATOM      7  C   UNL     1       1.253   9.606  19.498  0.00  0.00    +0.000 A 
ATOM      8  C   UNL     1       0.692  10.664  20.223  0.00  0.00    +0.000 A 
ATOM      9  C   UNL     1       0.401  10.526  21.581  0.00  0.00    +0.000 A 
ATOM     10  C   UNL     1       0.689   9.319  22.215  0.00  0.00    +0.000 A 
ATOM     11  C   UNL     1       1.253   8.256  21.485  0.00  0.00    +0.000 A 
BRANCH   9  12
ATOM     12  O   UNL     1      -0.105  11.643  22.181  0.00  0.00    +0.000 OA
BRANCH  12  13
ATOM     13  C   UNL     1      -1.517  11.724  22.263  0.00  0.00    +0.000 C 
ATOM     14  F   UNL     1      -1.905  11.365  23.511  0.00  0.00    +0.000 F 
ATOM     15  F   UNL     1      -1.853  13.028  22.109  0.00  0.00    +0.000 F 
ENDBRANCH  12  13
ENDBRANCH   9  12
ENDBRANCH   4   6
BRANCH   1  16
ATOM     16  S   UNL     1       4.052   3.961  19.409  0.00  0.00    +0.000 S 
BRANCH  16  17
ATOM     17  C   UNL     1       5.510   4.014  18.298  0.00  0.00    +0.000 C 
BRANCH  17  19
ATOM     18  C   UNL     1       6.708   6.145  17.476  0.00  0.00    +0.000 C 
ATOM     19  C   UNL     1       6.387   5.273  18.477  0.00  0.00    +0.000 C 
BRANCH  18  21
ATOM     20  C   UNL     1       6.959   4.971  15.171  0.00  0.00    +0.000 C 
ATOM     21  C   UNL     1       6.233   5.961  16.057  0.00  0.00    +0.000 C 
ATOM     22  N   UNL     1       5.233   6.619  15.569  0.00  0.00    +0.000 NA
ATOM     23  H   UNL     1       5.043   6.376  14.590  0.00  0.00    +0.000 HD
ENDBRANCH  18  21
BRANCH  18  24
ATOM     24  C   UNL     1       7.572   7.354  17.791  0.00  0.00    +0.000 C 
ATOM     25  N   UNL     1       8.289   8.359  18.051  0.00  0.00    +0.000 NA
ENDBRANCH  18  24
BRANCH  19  26
ATOM     26  O   UNL     1       6.839   5.462  19.787  0.00  0.00    +0.000 OA
ATOM     27  H   UNL     1       7.317   4.695  20.146  0.00  0.00    +0.000 HD
ENDBRANCH  19  26
ENDBRANCH  17  19
ENDBRANCH  16  17
ENDBRANCH   1  16
TORSDOF 9
ENDMDL
