MODEL 1
REMARK VINA RESULT:      -6.6      0.000      0.000
REMARK  Name = 
REMARK  8 active torsions:
REMARK  status: ('A' for Active; 'I' for Inactive)
REMARK    1  A    between atoms: C_1  and  C_2
REMARK    2  A    between atoms: C_2  and  C_3
REMARK    3  A    between atoms: C_3  and  C_4
REMARK    4  A    between atoms: C_4  and  C_5
REMARK    5  A    between atoms: C_5  and  C_7
REMARK    6  A    between atoms: C_9  and  C_10
REMARK    7  A    between atoms: C_11  and  O_12
REMARK    8  A    between atoms: C_14  and  O_15
REMARK                            x       y       z     vdW  Elec       q    Type
REMARK                         _______ _______ _______ _____ _____    ______ ____
ROOT
ATOM      1  C   UNL     1       6.220   4.926  16.280  0.00  0.00    +0.000 A 
ATOM      2  C   UNL     1       4.922   5.472  16.379  0.00  0.00    +0.000 A 
ATOM      3  C   UNL     1       4.316   5.722  17.624  0.00  0.00    +0.000 A 
ATOM      4  C   UNL     1       2.937   6.317  17.677  0.00  0.00    +0.000 C 
ATOM      5  C   UNL     1       5.031   5.405  18.781  0.00  0.00    +0.000 A 
ATOM      6  C   UNL     1       6.315   4.874  18.706  0.00  0.00    +0.000 A 
ATOM      7  C   UNL     1       6.909   4.639  17.465  0.00  0.00    +0.000 A 
ENDROOT
BRANCH   1   8
ATOM      8  C   UNL     1       6.768   4.697  14.899  0.00  0.00    +0.000 C 
ATOM      9  O   UNL     1       7.670   5.430  14.489  0.00  0.00    +0.000 OA
BRANCH   8  10
ATOM     10  C   UNL     1       6.197   3.581  14.040  0.00  0.00    +0.000 C 
BRANCH  10  11
ATOM     11  C   UNL     1       6.290   3.862  12.542  0.00  0.00    +0.000 C 
BRANCH  11  13
ATOM     12  C   UNL     1       4.191   3.250  11.287  0.00  0.00    +0.000 C 
ATOM     13  C   UNL     1       5.563   2.780  11.741  0.00  0.00    +0.000 C 
ENDBRANCH  11  13
ENDBRANCH  10  11
ENDBRANCH   8  10
ENDBRANCH   1   8
BRANCH   5  14
ATOM     14  O   UNL     1       4.539   5.591  20.040  0.00  0.00    +0.000 OA
ATOM     15  H   UNL     1       3.570   5.565  20.017  0.00  0.00    +0.000 HD
ENDBRANCH   5  14
BRANCH   7  16
ATOM     16  O   UNL     1       8.177   4.130  17.453  0.00  0.00    +0.000 OA
ATOM     17  H   UNL     1       8.272   3.513  16.707  0.00  0.00    +0.000 HD
ENDBRANCH   7  16
TORSDOF 6
ENDMDL
MODEL 2
REMARK VINA RESULT:      -6.6      2.698      5.526
REMARK  Name = 
REMARK  8 active torsions:
REMARK  status: ('A' for Active; 'I' for Inactive)
REMARK    1  A    between atoms: C_1  and  C_2
REMARK    2  A    between atoms: C_2  and  C_3
REMARK    3  A    between atoms: C_3  and  C_4
REMARK    4  A    between atoms: C_4  and  C_5
REMARK    5  A    between atoms: C_5  and  C_7
REMARK    6  A    between atoms: C_9  and  C_10
REMARK    7  A    between atoms: C_11  and  O_12
REMARK    8  A    between atoms: C_14  and  O_15
REMARK                            x       y       z     vdW  Elec       q    Type
REMARK                         _______ _______ _______ _____ _____    ______ ____
ROOT
ATOM      1  C   UNL     1       4.477   3.922  18.112  0.00  0.00    +0.000 A 
ATOM      2  C   UNL     1       4.858   3.639  16.783  0.00  0.00    +0.000 A 
ATOM      3  C   UNL     1       5.152   4.662  15.863  0.00  0.00    +0.000 A 
ATOM      4  C   UNL     1       5.567   4.309  14.462  0.00  0.00    +0.000 C 
ATOM      5  C   UNL     1       5.050   5.986  16.294  0.00  0.00    +0.000 A 
ATOM      6  C   UNL     1       4.684   6.287  17.602  0.00  0.00    +0.000 A 
ATOM      7  C   UNL     1       4.403   5.264  18.509  0.00  0.00    +0.000 A 
ENDROOT
BRANCH   1   8
ATOM      8  C   UNL     1       4.183   2.752  19.009  0.00  0.00    +0.000 C 
ATOM      9  O   UNL     1       4.852   2.605  20.034  0.00  0.00    +0.000 OA
BRANCH   8  10
ATOM     10  C   UNL     1       3.080   1.776  18.632  0.00  0.00    +0.000 C 
BRANCH  10  11
ATOM     11  C   UNL     1       1.679   2.376  18.734  0.00  0.00    +0.000 C 
BRANCH  11  13
ATOM     12  C   UNL     1       0.975   4.162  20.366  0.00  0.00    +0.000 C 
ATOM     13  C   UNL     1       1.331   2.696  20.189  0.00  0.00    +0.000 C 
ENDBRANCH  11  13
ENDBRANCH  10  11
ENDBRANCH   8  10
ENDBRANCH   1   8
BRANCH   5  14
ATOM     14  O   UNL     1       5.296   7.059  15.486  0.00  0.00    +0.000 OA
ATOM     15  H   UNL     1       4.773   6.980  14.674  0.00  0.00    +0.000 HD
ENDBRANCH   5  14
BRANCH   7  16
ATOM     16  O   UNL     1       4.064   5.618  19.783  0.00  0.00    +0.000 OA
ATOM     17  H   UNL     1       4.245   6.565  19.917  0.00  0.00    +0.000 HD
ENDBRANCH   7  16
TORSDOF 6
ENDMDL
MODEL 3
REMARK VINA RESULT:      -6.6      2.521      5.643
REMARK  Name = 
REMARK  8 active torsions:
REMARK  status: ('A' for Active; 'I' for Inactive)
REMARK    1  A    between atoms: C_1  and  C_2
REMARK    2  A    between atoms: C_2  and  C_3
REMARK    3  A    between atoms: C_3  and  C_4
REMARK    4  A    between atoms: C_4  and  C_5
REMARK    5  A    between atoms: C_5  and  C_7
REMARK    6  A    between atoms: C_9  and  C_10
REMARK    7  A    between atoms: C_11  and  O_12
REMARK    8  A    between atoms: C_14  and  O_15
REMARK                            x       y       z     vdW  Elec       q    Type
REMARK                         _______ _______ _______ _____ _____    ______ ____
ROOT
ATOM      1  C   UNL     1       4.973   4.022  17.596  0.00  0.00    +0.000 A 
ATOM      2  C   UNL     1       4.762   3.840  16.212  0.00  0.00    +0.000 A 
ATOM      3  C   UNL     1       5.694   4.284  15.256  0.00  0.00    +0.000 A 
ATOM      4  C   UNL     1       5.430   4.055  13.795  0.00  0.00    +0.000 C 
ATOM      5  C   UNL     1       6.848   4.927  15.709  0.00  0.00    +0.000 A 
ATOM      6  C   UNL     1       7.079   5.109  17.069  0.00  0.00    +0.000 A 
ATOM      7  C   UNL     1       6.152   4.656  18.009  0.00  0.00    +0.000 A 
ENDROOT
BRANCH   1   8
ATOM      8  C   UNL     1       3.909   3.511  18.528  0.00  0.00    +0.000 C 
ATOM      9  O   UNL     1       4.233   2.739  19.433  0.00  0.00    +0.000 OA
BRANCH   8  10
ATOM     10  C   UNL     1       2.467   3.948  18.333  0.00  0.00    +0.000 C 
BRANCH  10  11
ATOM     11  C   UNL     1       1.457   3.029  19.019  0.00  0.00    +0.000 C 
BRANCH  11  13
ATOM     12  C   UNL     1       1.388   2.767  21.524  0.00  0.00    +0.000 C 
ATOM     13  C   UNL     1       0.987   3.633  20.343  0.00  0.00    +0.000 C 
ENDBRANCH  11  13
ENDBRANCH  10  11
ENDBRANCH   8  10
ENDBRANCH   1   8
BRANCH   5  14
ATOM     14  O   UNL     1       7.812   5.411  14.874  0.00  0.00    +0.000 OA
ATOM     15  H   UNL     1       8.044   4.734  14.219  0.00  0.00    +0.000 HD
ENDBRANCH   5  14
BRANCH   7  16
ATOM     16  O   UNL     1       6.439   4.849  19.330  0.00  0.00    +0.000 OA
ATOM     17  H   UNL     1       6.210   4.048  19.833  0.00  0.00    +0.000 HD
ENDBRANCH   7  16
TORSDOF 6
ENDMDL
MODEL 4
REMARK VINA RESULT:      -6.6      1.178      1.240
REMARK  Name = 
REMARK  8 active torsions:
REMARK  status: ('A' for Active; 'I' for Inactive)
REMARK    1  A    between atoms: C_1  and  C_2
REMARK    2  A    between atoms: C_2  and  C_3
REMARK    3  A    between atoms: C_3  and  C_4
REMARK    4  A    between atoms: C_4  and  C_5
REMARK    5  A    between atoms: C_5  and  C_7
REMARK    6  A    between atoms: C_9  and  C_10
REMARK    7  A    between atoms: C_11  and  O_12
REMARK    8  A    between atoms: C_14  and  O_15
REMARK                            x       y       z     vdW  Elec       q    Type
REMARK                         _______ _______ _______ _____ _____    ______ ____
ROOT
ATOM      1  C   UNL     1       5.935   5.074  15.960  0.00  0.00    +0.000 A 
ATOM      2  C   UNL     1       4.774   4.362  16.330  0.00  0.00    +0.000 A 
ATOM      3  C   UNL     1       4.192   4.505  17.603  0.00  0.00    +0.000 A 
ATOM      4  C   UNL     1       2.947   3.735  17.944  0.00  0.00    +0.000 C 
ATOM      5  C   UNL     1       4.799   5.373  18.512  0.00  0.00    +0.000 A 
ATOM      6  C   UNL     1       5.940   6.090  18.165  0.00  0.00    +0.000 A 
ATOM      7  C   UNL     1       6.503   5.948  16.896  0.00  0.00    +0.000 A 
ENDROOT
BRANCH   1   8
ATOM      8  C   UNL     1       6.474   4.842  14.575  0.00  0.00    +0.000 C 
ATOM      9  O   UNL     1       7.600   5.260  14.298  0.00  0.00    +0.000 OA
BRANCH   8  10
ATOM     10  C   UNL     1       5.622   4.111  13.551  0.00  0.00    +0.000 C 
BRANCH  10  11
ATOM     11  C   UNL     1       6.441   3.448  12.445  0.00  0.00    +0.000 C 
BRANCH  11  13
ATOM     12  C   UNL     1       4.190   3.185  11.341  0.00  0.00    +0.000 C 
ATOM     13  C   UNL     1       5.554   2.557  11.573  0.00  0.00    +0.000 C 
ENDBRANCH  11  13
ENDBRANCH  10  11
ENDBRANCH   8  10
ENDBRANCH   1   8
BRANCH   5  14
ATOM     14  O   UNL     1       4.332   5.579  19.778  0.00  0.00    +0.000 OA
ATOM     15  H   UNL     1       5.033   5.383  20.419  0.00  0.00    +0.000 HD
ENDBRANCH   5  14
BRANCH   7  16
ATOM     16  O   UNL     1       7.614   6.688  16.606  0.00  0.00    +0.000 OA
ATOM     17  H   UNL     1       7.479   7.162  15.767  0.00  0.00    +0.000 HD
ENDBRANCH   7  16
TORSDOF 6
ENDMDL
MODEL 5
REMARK VINA RESULT:      -6.5      2.392      5.486
REMARK  Name = 
REMARK  8 active torsions:
REMARK  status: ('A' for Active; 'I' for Inactive)
REMARK    1  A    between atoms: C_1  and  C_2
REMARK    2  A    between atoms: C_2  and  C_3
REMARK    3  A    between atoms: C_3  and  C_4
REMARK    4  A    between atoms: C_4  and  C_5
REMARK    5  A    between atoms: C_5  and  C_7
REMARK    6  A    between atoms: C_9  and  C_10
REMARK    7  A    between atoms: C_11  and  O_12
REMARK    8  A    between atoms: C_14  and  O_15
REMARK                            x       y       z     vdW  Elec       q    Type
REMARK                         _______ _______ _______ _____ _____    ______ ____
ROOT
ATOM      1  C   UNL     1       5.348   4.260  18.264  0.00  0.00    +0.000 A 
ATOM      2  C   UNL     1       5.011   4.016  16.915  0.00  0.00    +0.000 A 
ATOM      3  C   UNL     1       5.790   4.515  15.855  0.00  0.00    +0.000 A 
ATOM      4  C   UNL     1       5.397   4.217  14.436  0.00  0.00    +0.000 C 
ATOM      5  C   UNL     1       6.917   5.277  16.167  0.00  0.00    +0.000 A 
ATOM      6  C   UNL     1       7.273   5.522  17.490  0.00  0.00    +0.000 A 
ATOM      7  C   UNL     1       6.497   5.014  18.534  0.00  0.00    +0.000 A 
ENDROOT
BRANCH   1   8
ATOM      8  C   UNL     1       4.443   3.681  19.316  0.00  0.00    +0.000 C 
ATOM      9  O   UNL     1       4.834   2.711  19.968  0.00  0.00    +0.000 OA
BRANCH   8  10
ATOM     10  C   UNL     1       3.072   4.295  19.547  0.00  0.00    +0.000 C 
BRANCH  10  11
ATOM     11  C   UNL     1       2.317   3.668  20.717  0.00  0.00    +0.000 C 
BRANCH  11  13
ATOM     12  C   UNL     1       0.929   2.533  18.946  0.00  0.00    +0.000 C 
ATOM     13  C   UNL     1       0.912   3.241  20.290  0.00  0.00    +0.000 C 
ENDBRANCH  11  13
ENDBRANCH  10  11
ENDBRANCH   8  10
ENDBRANCH   1   8
BRANCH   5  14
ATOM     14  O   UNL     1       7.738   5.823  15.223  0.00  0.00    +0.000 OA
ATOM     15  H   UNL     1       8.504   6.231  15.655  0.00  0.00    +0.000 HD
ENDBRANCH   5  14
BRANCH   7  16
ATOM     16  O   UNL     1       6.902   5.275  19.812  0.00  0.00    +0.000 OA
ATOM     17  H   UNL     1       6.971   6.237  19.942  0.00  0.00    +0.000 HD
ENDBRANCH   7  16
TORSDOF 6
ENDMDL
MODEL 6
REMARK VINA RESULT:      -6.5      2.082      4.901
REMARK  Name = 
REMARK  8 active torsions:
REMARK  status: ('A' for Active; 'I' for Inactive)
REMARK    1  A    between atoms: C_1  and  C_2
REMARK    2  A    between atoms: C_2  and  C_3
REMARK    3  A    between atoms: C_3  and  C_4
REMARK    4  A    between atoms: C_4  and  C_5
REMARK    5  A    between atoms: C_5  and  C_7
REMARK    6  A    between atoms: C_9  and  C_10
REMARK    7  A    between atoms: C_11  and  O_12
REMARK    8  A    between atoms: C_14  and  O_15
REMARK                            x       y       z     vdW  Elec       q    Type
REMARK                         _______ _______ _______ _____ _____    ______ ____
ROOT
ATOM      1  C   UNL     1       4.064   5.143  17.712  0.00  0.00    +0.000 A 
ATOM      2  C   UNL     1       4.496   4.743  16.429  0.00  0.00    +0.000 A 
ATOM      3  C   UNL     1       5.835   4.394  16.173  0.00  0.00    +0.000 A 
ATOM      4  C   UNL     1       6.243   3.961  14.793  0.00  0.00    +0.000 C 
ATOM      5  C   UNL     1       6.747   4.460  17.229  0.00  0.00    +0.000 A 
ATOM      6  C   UNL     1       6.340   4.844  18.503  0.00  0.00    +0.000 A 
ATOM      7  C   UNL     1       5.008   5.179  18.747  0.00  0.00    +0.000 A 
ENDROOT
BRANCH   1   8
ATOM      8  C   UNL     1       2.612   5.498  17.870  0.00  0.00    +0.000 C 
ATOM      9  O   UNL     1       2.312   6.658  18.163  0.00  0.00    +0.000 OA
BRANCH   8  10
ATOM     10  C   UNL     1       1.552   4.427  17.676  0.00  0.00    +0.000 C 
BRANCH  10  11
ATOM     11  C   UNL     1       1.747   3.211  18.579  0.00  0.00    +0.000 C 
BRANCH  11  13
ATOM     12  C   UNL     1       3.612   1.519  18.477  0.00  0.00    +0.000 C 
ATOM     13  C   UNL     1       2.360   2.047  17.798  0.00  0.00    +0.000 C 
ENDBRANCH  11  13
ENDBRANCH  10  11
ENDBRANCH   8  10
ENDBRANCH   1   8
BRANCH   5  14
ATOM     14  O   UNL     1       8.071   4.158  17.095  0.00  0.00    +0.000 OA
ATOM     15  H   UNL     1       8.607   4.910  17.392  0.00  0.00    +0.000 HD
ENDBRANCH   5  14
BRANCH   7  16
ATOM     16  O   UNL     1       4.664   5.535  20.020  0.00  0.00    +0.000 OA
ATOM     17  H   UNL     1       5.282   5.127  20.650  0.00  0.00    +0.000 HD
ENDBRANCH   7  16
TORSDOF 6
ENDMDL
MODEL 7
REMARK VINA RESULT:      -6.5      2.641      5.603
REMARK  Name = 
REMARK  8 active torsions:
REMARK  status: ('A' for Active; 'I' for Inactive)
REMARK    1  A    between atoms: C_1  and  C_2
REMARK    2  A    between atoms: C_2  and  C_3
REMARK    3  A    between atoms: C_3  and  C_4
REMARK    4  A    between atoms: C_4  and  C_5
REMARK    5  A    between atoms: C_5  and  C_7
REMARK    6  A    between atoms: C_9  and  C_10
REMARK    7  A    between atoms: C_11  and  O_12
REMARK    8  A    between atoms: C_14  and  O_15
REMARK                            x       y       z     vdW  Elec       q    Type
REMARK                         _______ _______ _______ _____ _____    ______ ____
ROOT
ATOM      1  C   UNL     1       4.384   4.056  17.508  0.00  0.00    +0.000 A 
ATOM      2  C   UNL     1       4.980   3.910  16.237  0.00  0.00    +0.000 A 
ATOM      3  C   UNL     1       6.047   4.726  15.820  0.00  0.00    +0.000 A 
ATOM      4  C   UNL     1       6.656   4.521  14.462  0.00  0.00    +0.000 C 
ATOM      5  C   UNL     1       6.508   5.709  16.699  0.00  0.00    +0.000 A 
ATOM      6  C   UNL     1       5.940   5.865  17.960  0.00  0.00    +0.000 A 
ATOM      7  C   UNL     1       4.888   5.042  18.366  0.00  0.00    +0.000 A 
ENDROOT
BRANCH   1   8
ATOM      8  C   UNL     1       3.248   3.132  17.847  0.00  0.00    +0.000 C 
ATOM      9  O   UNL     1       3.497   1.950  18.097  0.00  0.00    +0.000 OA
BRANCH   8  10
ATOM     10  C   UNL     1       1.825   3.666  17.868  0.00  0.00    +0.000 C 
BRANCH  10  11
ATOM     11  C   UNL     1       0.947   3.012  18.933  0.00  0.00    +0.000 C 
BRANCH  11  13
ATOM     12  C   UNL     1       1.705   3.021  21.336  0.00  0.00    +0.000 C 
ATOM     13  C   UNL     1       1.000   3.803  20.241  0.00  0.00    +0.000 C 
ENDBRANCH  11  13
ENDBRANCH  10  11
ENDBRANCH   8  10
ENDBRANCH   1   8
BRANCH   5  14
ATOM     14  O   UNL     1       7.526   6.566  16.397  0.00  0.00    +0.000 OA
ATOM     15  H   UNL     1       7.164   7.447  16.212  0.00  0.00    +0.000 HD
ENDBRANCH   5  14
BRANCH   7  16
ATOM     16  O   UNL     1       4.380   5.232  19.619  0.00  0.00    +0.000 OA
ATOM     17  H   UNL     1       3.432   5.443  19.558  0.00  0.00    +0.000 HD
ENDBRANCH   7  16
TORSDOF 6
ENDMDL
MODEL 8
REMARK VINA RESULT:      -6.5      1.359      1.826
REMARK  Name = 
REMARK  8 active torsions:
REMARK  status: ('A' for Active; 'I' for Inactive)
REMARK    1  A    between atoms: C_1  and  C_2
REMARK    2  A    between atoms: C_2  and  C_3
REMARK    3  A    between atoms: C_3  and  C_4
REMARK    4  A    between atoms: C_4  and  C_5
REMARK    5  A    between atoms: C_5  and  C_7
REMARK    6  A    between atoms: C_9  and  C_10
REMARK    7  A    between atoms: C_11  and  O_12
REMARK    8  A    between atoms: C_14  and  O_15
REMARK                            x       y       z     vdW  Elec       q    Type
REMARK                         _______ _______ _______ _____ _____    ______ ____
ROOT
ATOM      1  C   UNL     1       5.394   5.577  17.344  0.00  0.00    +0.000 A 
ATOM      2  C   UNL     1       4.498   6.639  17.097  0.00  0.00    +0.000 A 
ATOM      3  C   UNL     1       3.501   6.997  18.022  0.00  0.00    +0.000 A 
ATOM      4  C   UNL     1       2.579   8.145  17.719  0.00  0.00    +0.000 C 
ATOM      5  C   UNL     1       3.407   6.264  19.207  0.00  0.00    +0.000 A 
ATOM      6  C   UNL     1       4.286   5.219  19.474  0.00  0.00    +0.000 A 
ATOM      7  C   UNL     1       5.277   4.878  18.552  0.00  0.00    +0.000 A 
ENDROOT
BRANCH   1   8
ATOM      8  C   UNL     1       6.418   5.279  16.284  0.00  0.00    +0.000 C 
ATOM      9  O   UNL     1       7.359   6.060  16.130  0.00  0.00    +0.000 OA
BRANCH   8  10
ATOM     10  C   UNL     1       6.268   4.034  15.424  0.00  0.00    +0.000 C 
BRANCH  10  11
ATOM     11  C   UNL     1       5.536   4.291  14.109  0.00  0.00    +0.000 C 
BRANCH  11  13
ATOM     12  C   UNL     1       5.484   3.019  11.934  0.00  0.00    +0.000 C 
ATOM     13  C   UNL     1       6.353   3.776  12.923  0.00  0.00    +0.000 C 
ENDBRANCH  11  13
ENDBRANCH  10  11
ENDBRANCH   8  10
ENDBRANCH   1   8
BRANCH   5  14
ATOM     14  O   UNL     1       2.471   6.512  20.170  0.00  0.00    +0.000 OA
ATOM     15  H   UNL     1       2.319   5.707  20.689  0.00  0.00    +0.000 HD
ENDBRANCH   5  14
BRANCH   7  16
ATOM     16  O   UNL     1       6.120   3.853  18.874  0.00  0.00    +0.000 OA
ATOM     17  H   UNL     1       6.092   3.698  19.835  0.00  0.00    +0.000 HD
ENDBRANCH   7  16
TORSDOF 6
ENDMDL
MODEL 9
REMARK VINA RESULT:      -6.4      2.934      4.867
REMARK  Name = 
REMARK  8 active torsions:
REMARK  status: ('A' for Active; 'I' for Inactive)
REMARK    1  A    between atoms: C_1  and  C_2
REMARK    2  A    between atoms: C_2  and  C_3
REMARK    3  A    between atoms: C_3  and  C_4
REMARK    4  A    between atoms: C_4  and  C_5
REMARK    5  A    between atoms: C_5  and  C_7
REMARK    6  A    between atoms: C_9  and  C_10
REMARK    7  A    between atoms: C_11  and  O_12
REMARK    8  A    between atoms: C_14  and  O_15
REMARK                            x       y       z     vdW  Elec       q    Type
REMARK                         _______ _______ _______ _____ _____    ______ ____
ROOT
ATOM      1  C   UNL     1       5.573   5.572  17.120  0.00  0.00    +0.000 A 
ATOM      2  C   UNL     1       4.655   6.448  17.738  0.00  0.00    +0.000 A 
ATOM      3  C   UNL     1       3.329   6.062  18.007  0.00  0.00    +0.000 A 
ATOM      4  C   UNL     1       2.393   7.026  18.679  0.00  0.00    +0.000 C 
ATOM      5  C   UNL     1       2.928   4.776  17.635  0.00  0.00    +0.000 A 
ATOM      6  C   UNL     1       3.820   3.894  17.033  0.00  0.00    +0.000 A 
ATOM      7  C   UNL     1       5.136   4.286  16.780  0.00  0.00    +0.000 A 
ENDROOT
BRANCH   1   8
ATOM      8  C   UNL     1       6.964   6.091  16.878  0.00  0.00    +0.000 C 
ATOM      9  O   UNL     1       7.509   5.848  15.799  0.00  0.00    +0.000 OA
BRANCH   8  10
ATOM     10  C   UNL     1       7.667   6.890  17.963  0.00  0.00    +0.000 C 
BRANCH  10  11
ATOM     11  C   UNL     1       7.832   8.368  17.615  0.00  0.00    +0.000 C 
BRANCH  11  13
ATOM     12  C   UNL     1       8.946  10.529  18.278  0.00  0.00    +0.000 C 
ATOM     13  C   UNL     1       8.757   9.061  18.617  0.00  0.00    +0.000 C 
ENDBRANCH  11  13
ENDBRANCH  10  11
ENDBRANCH   8  10
ENDBRANCH   1   8
BRANCH   5  14
ATOM     14  O   UNL     1       1.665   4.299  17.833  0.00  0.00    +0.000 OA
ATOM     15  H   UNL     1       1.702   3.500  18.382  0.00  0.00    +0.000 HD
ENDBRANCH   5  14
BRANCH   7  16
ATOM     16  O   UNL     1       5.970   3.373  16.199  0.00  0.00    +0.000 OA
ATOM     17  H   UNL     1       6.812   3.803  15.968  0.00  0.00    +0.000 HD
ENDBRANCH   7  16
TORSDOF 6
ENDMDL
