MODEL 1
REMARK VINA RESULT:      -9.2      0.000      0.000
REMARK  Name = 
REMARK  7 active torsions:
REMARK  status: ('A' for Active; 'I' for Inactive)
REMARK    1  A    between atoms: C_1  and  C_2
REMARK    2  A    between atoms: C_2  and  C_8
REMARK    3  A    between atoms: N_3  and  N_4
REMARK    4  A    between atoms: C_10  and  C_11
REMARK    5  A    between atoms: C_14  and  C_15
REMARK    6  A    between atoms: C_16  and  C_17
REMARK    7  A    between atoms: C_26  and  C_27
REMARK                            x       y       z     vdW  Elec       q    Type
REMARK                         _______ _______ _______ _____ _____    ______ ____
ROOT
ATOM      1  C   UNL     1       4.699   5.134  17.085  0.00  0.00    +0.000 A 
ATOM      2  S   UNL     1       4.406   6.780  17.495  0.00  0.00    +0.000 S 
ATOM      3  C   UNL     1       3.024   6.338  18.403  0.00  0.00    +0.000 A 
ATOM      4  N   UNL     1       2.716   5.063  18.339  0.00  0.00    +0.000 NA
ATOM      5  C   UNL     1       3.669   4.360  17.615  0.00  0.00    +0.000 A 
ATOM      6  C   UNL     1       3.463   2.892  17.534  0.00  0.00    +0.000 C 
ENDROOT
BRANCH   3   7
ATOM      7  C   UNL     1       2.242   7.338  19.147  0.00  0.00    +0.000 A 
ATOM      8  C   UNL     1       1.868   8.536  18.521  0.00  0.00    +0.000 A 
ATOM      9  C   UNL     1       1.120   9.499  19.208  0.00  0.00    +0.000 A 
ATOM     10  C   UNL     1       0.737   9.273  20.531  0.00  0.00    +0.000 A 
ATOM     11  C   UNL     1       1.092   8.088  21.163  0.00  0.00    +0.000 A 
ATOM     12  C   UNL     1       1.838   7.120  20.473  0.00  0.00    +0.000 A 
BRANCH  10  13
ATOM     13  C   UNL     1       0.001  10.278  21.237  0.00  0.00    +0.000 C 
ATOM     14  C   UNL     1      -0.584  11.151  21.822  0.00  0.00    +0.000 C 
BRANCH  14  15
ATOM     15  C   UNL     1      -1.247  12.210  22.514  0.00  0.00    +0.000 A 
ATOM     16  C   UNL     1      -0.615  13.448  22.669  0.00  0.00    +0.000 A 
ATOM     17  C   UNL     1      -1.253  14.480  23.361  0.00  0.00    +0.000 A 
ATOM     18  C   UNL     1      -2.522  14.277  23.899  0.00  0.00    +0.000 A 
ATOM     19  C   UNL     1      -3.158  13.045  23.743  0.00  0.00    +0.000 A 
ATOM     20  C   UNL     1      -2.522  12.013  23.051  0.00  0.00    +0.000 A 
ENDBRANCH  14  15
ENDBRANCH  10  13
ENDBRANCH   3   7
BRANCH   1  22
ATOM     21  C   UNL     1       5.783   4.680  14.806  0.00  0.00    +0.000 C 
ATOM     22  C   UNL     1       5.892   4.781  16.320  0.00  0.00    +0.000 C 
ATOM     23  N   UNL     1       7.092   4.551  16.774  0.00  0.00    +0.000 NA
BRANCH  23  24
ATOM     24  N   UNL     1       7.304   4.477  18.109  0.00  0.00    +0.000 N 
ATOM     25  C   UNL     1       7.728   5.507  18.909  0.00  0.00    +0.000 C 
ATOM     26  N   UNL     1       7.839   5.447  20.176  0.00  0.00    +0.000 NA
ATOM     27  N   UNL     1       8.008   6.670  18.256  0.00  0.00    +0.000 N 
ATOM     28  H   UNL     1       7.081   3.615  18.585  0.00  0.00    +0.000 HD
ATOM     29  H   UNL     1       7.526   4.536  20.515  0.00  0.00    +0.000 HD
ATOM     30  H   UNL     1       8.329   6.514  17.311  0.00  0.00    +0.000 HD
ATOM     31  H   UNL     1       8.579   7.293  18.826  0.00  0.00    +0.000 HD
ENDBRANCH  23  24
ENDBRANCH   1  22
TORSDOF 5
ENDMDL
MODEL 2
REMARK VINA RESULT:      -9.2      0.904      1.387
REMARK  Name = 
REMARK  7 active torsions:
REMARK  status: ('A' for Active; 'I' for Inactive)
REMARK    1  A    between atoms: C_1  and  C_2
REMARK    2  A    between atoms: C_2  and  C_8
REMARK    3  A    between atoms: N_3  and  N_4
REMARK    4  A    between atoms: C_10  and  C_11
REMARK    5  A    between atoms: C_14  and  C_15
REMARK    6  A    between atoms: C_16  and  C_17
REMARK    7  A    between atoms: C_26  and  C_27
REMARK                            x       y       z     vdW  Elec       q    Type
REMARK                         _______ _______ _______ _____ _____    ______ ____
ROOT
ATOM      1  C   UNL     1       5.099   5.177  16.948  0.00  0.00    +0.000 A 
ATOM      2  S   UNL     1       4.719   6.842  17.172  0.00  0.00    +0.000 S 
ATOM      3  C   UNL     1       3.298   6.430  18.035  0.00  0.00    +0.000 A 
ATOM      4  N   UNL     1       3.043   5.143  18.080  0.00  0.00    +0.000 NA
ATOM      5  C   UNL     1       4.066   4.415  17.489  0.00  0.00    +0.000 A 
ATOM      6  C   UNL     1       3.921   2.938  17.544  0.00  0.00    +0.000 C 
ENDROOT
BRANCH   3   7
ATOM      7  C   UNL     1       2.433   7.463  18.626  0.00  0.00    +0.000 A 
ATOM      8  C   UNL     1       2.082   7.385  19.981  0.00  0.00    +0.000 A 
ATOM      9  C   UNL     1       1.264   8.360  20.565  0.00  0.00    +0.000 A 
ATOM     10  C   UNL     1       0.790   9.425  19.798  0.00  0.00    +0.000 A 
ATOM     11  C   UNL     1       1.136   9.522  18.456  0.00  0.00    +0.000 A 
ATOM     12  C   UNL     1       1.960   8.548  17.871  0.00  0.00    +0.000 A 
BRANCH  10  13
ATOM     13  C   UNL     1      -0.073  10.399  20.395  0.00  0.00    +0.000 C 
ATOM     14  C   UNL     1      -0.763  11.244  20.903  0.00  0.00    +0.000 C 
BRANCH  14  15
ATOM     15  C   UNL     1      -1.549  12.269  21.514  0.00  0.00    +0.000 A 
ATOM     16  C   UNL     1      -1.686  12.309  22.905  0.00  0.00    +0.000 A 
ATOM     17  C   UNL     1      -2.470  13.298  23.504  0.00  0.00    +0.000 A 
ATOM     18  C   UNL     1      -3.118  14.247  22.715  0.00  0.00    +0.000 A 
ATOM     19  C   UNL     1      -2.980  14.211  21.327  0.00  0.00    +0.000 A 
ATOM     20  C   UNL     1      -2.197  13.224  20.727  0.00  0.00    +0.000 A 
ENDBRANCH  14  15
ENDBRANCH  10  13
ENDBRANCH   3   7
BRANCH   1  22
ATOM     21  C   UNL     1       6.377   4.691  14.779  0.00  0.00    +0.000 C 
ATOM     22  C   UNL     1       6.351   4.804  16.296  0.00  0.00    +0.000 C 
ATOM     23  N   UNL     1       7.502   4.563  16.858  0.00  0.00    +0.000 NA
BRANCH  23  24
ATOM     24  N   UNL     1       7.592   4.497  18.207  0.00  0.00    +0.000 N 
ATOM     25  C   UNL     1       7.851   5.553  19.042  0.00  0.00    +0.000 C 
ATOM     26  N   UNL     1       7.846   5.493  20.314  0.00  0.00    +0.000 NA
ATOM     27  N   UNL     1       8.094   6.740  18.418  0.00  0.00    +0.000 N 
ATOM     28  H   UNL     1       7.398   3.616  18.659  0.00  0.00    +0.000 HD
ATOM     29  H   UNL     1       7.580   4.556  20.623  0.00  0.00    +0.000 HD
ATOM     30  H   UNL     1       8.514   6.618  17.508  0.00  0.00    +0.000 HD
ATOM     31  H   UNL     1       8.554   7.404  19.040  0.00  0.00    +0.000 HD
ENDBRANCH  23  24
ENDBRANCH   1  22
TORSDOF 5
ENDMDL
MODEL 3
REMARK VINA RESULT:      -8.6      0.606      1.240
REMARK  Name = 
REMARK  7 active torsions:
REMARK  status: ('A' for Active; 'I' for Inactive)
REMARK    1  A    between atoms: C_1  and  C_2
REMARK    2  A    between atoms: C_2  and  C_8
REMARK    3  A    between atoms: N_3  and  N_4
REMARK    4  A    between atoms: C_10  and  C_11
REMARK    5  A    between atoms: C_14  and  C_15
REMARK    6  A    between atoms: C_16  and  C_17
REMARK    7  A    between atoms: C_26  and  C_27
REMARK                            x       y       z     vdW  Elec       q    Type
REMARK                         _______ _______ _______ _____ _____    ______ ____
ROOT
ATOM      1  C   UNL     1       4.645   5.664  16.836  0.00  0.00    +0.000 A 
ATOM      2  S   UNL     1       4.164   7.289  17.137  0.00  0.00    +0.000 S 
ATOM      3  C   UNL     1       3.028   6.766  18.307  0.00  0.00    +0.000 A 
ATOM      4  N   UNL     1       2.919   5.462  18.413  0.00  0.00    +0.000 NA
ATOM      5  C   UNL     1       3.845   4.820  17.604  0.00  0.00    +0.000 A 
ATOM      6  C   UNL     1       3.863   3.338  17.694  0.00  0.00    +0.000 C 
ENDROOT
BRANCH   3   7
ATOM      7  C   UNL     1       2.224   7.727  19.078  0.00  0.00    +0.000 A 
ATOM      8  C   UNL     1       1.911   7.455  20.418  0.00  0.00    +0.000 A 
ATOM      9  C   UNL     1       1.152   8.357  21.173  0.00  0.00    +0.000 A 
ATOM     10  C   UNL     1       0.698   9.543  20.594  0.00  0.00    +0.000 A 
ATOM     11  C   UNL     1       1.007   9.832  19.271  0.00  0.00    +0.000 A 
ATOM     12  C   UNL     1       1.772   8.930  18.515  0.00  0.00    +0.000 A 
BRANCH  10  13
ATOM     13  C   UNL     1      -0.106  10.444  21.363  0.00  0.00    +0.000 C 
ATOM     14  C   UNL     1      -0.757  11.235  21.993  0.00  0.00    +0.000 C 
BRANCH  14  15
ATOM     15  C   UNL     1      -1.506  12.203  22.730  0.00  0.00    +0.000 A 
ATOM     16  C   UNL     1      -0.983  13.484  22.935  0.00  0.00    +0.000 A 
ATOM     17  C   UNL     1      -1.704  14.427  23.671  0.00  0.00    +0.000 A 
ATOM     18  C   UNL     1      -2.948  14.092  24.203  0.00  0.00    +0.000 A 
ATOM     19  C   UNL     1      -3.474  12.817  23.997  0.00  0.00    +0.000 A 
ATOM     20  C   UNL     1      -2.755  11.874  23.262  0.00  0.00    +0.000 A 
ENDBRANCH  14  15
ENDBRANCH  10  13
ENDBRANCH   3   7
BRANCH   1  22
ATOM     21  C   UNL     1       5.444   4.656  14.618  0.00  0.00    +0.000 C 
ATOM     22  C   UNL     1       5.745   5.395  15.913  0.00  0.00    +0.000 C 
ATOM     23  N   UNL     1       6.996   5.733  16.044  0.00  0.00    +0.000 NA
BRANCH  23  24
ATOM     24  N   UNL     1       7.429   6.277  17.205  0.00  0.00    +0.000 N 
ATOM     25  C   UNL     1       7.782   5.579  18.332  0.00  0.00    +0.000 C 
ATOM     26  N   UNL     1       8.271   6.098  19.387  0.00  0.00    +0.000 NA
ATOM     27  N   UNL     1       7.609   4.229  18.255  0.00  0.00    +0.000 N 
ATOM     28  H   UNL     1       7.566   7.276  17.247  0.00  0.00    +0.000 HD
ATOM     29  H   UNL     1       8.401   7.103  19.258  0.00  0.00    +0.000 HD
ATOM     30  H   UNL     1       6.850   3.973  17.640  0.00  0.00    +0.000 HD
ATOM     31  H   UNL     1       7.605   3.798  19.179  0.00  0.00    +0.000 HD
ENDBRANCH  23  24
ENDBRANCH   1  22
TORSDOF 5
ENDMDL
MODEL 4
REMARK VINA RESULT:      -8.3      1.324      2.185
REMARK  Name = 
REMARK  7 active torsions:
REMARK  status: ('A' for Active; 'I' for Inactive)
REMARK    1  A    between atoms: C_1  and  C_2
REMARK    2  A    between atoms: C_2  and  C_8
REMARK    3  A    between atoms: N_3  and  N_4
REMARK    4  A    between atoms: C_10  and  C_11
REMARK    5  A    between atoms: C_14  and  C_15
REMARK    6  A    between atoms: C_16  and  C_17
REMARK    7  A    between atoms: C_26  and  C_27
REMARK                            x       y       z     vdW  Elec       q    Type
REMARK                         _______ _______ _______ _____ _____    ______ ____
ROOT
ATOM      1  C   UNL     1       3.657   5.336  18.081  0.00  0.00    +0.000 A 
ATOM      2  S   UNL     1       2.631   5.724  19.409  0.00  0.00    +0.000 S 
ATOM      3  C   UNL     1       2.574   7.365  18.921  0.00  0.00    +0.000 A 
ATOM      4  N   UNL     1       3.344   7.654  17.897  0.00  0.00    +0.000 NA
ATOM      5  C   UNL     1       3.948   6.511  17.393  0.00  0.00    +0.000 A 
ATOM      6  C   UNL     1       4.789   6.706  16.185  0.00  0.00    +0.000 C 
ENDROOT
BRANCH   3   7
ATOM      7  C   UNL     1       1.753   8.351  19.641  0.00  0.00    +0.000 A 
ATOM      8  C   UNL     1       1.387   8.112  20.974  0.00  0.00    +0.000 A 
ATOM      9  C   UNL     1       0.611   9.039  21.679  0.00  0.00    +0.000 A 
ATOM     10  C   UNL     1       0.194  10.216  21.058  0.00  0.00    +0.000 A 
ATOM     11  C   UNL     1       0.555  10.473  19.741  0.00  0.00    +0.000 A 
ATOM     12  C   UNL     1       1.337   9.546  19.035  0.00  0.00    +0.000 A 
BRANCH  10  13
ATOM     13  C   UNL     1      -0.628  11.143  21.777  0.00  0.00    +0.000 C 
ATOM     14  C   UNL     1      -1.300  11.908  22.418  0.00  0.00    +0.000 C 
BRANCH  14  15
ATOM     15  C   UNL     1      -2.085  12.799  23.213  0.00  0.00    +0.000 A 
ATOM     16  C   UNL     1      -1.545  14.018  23.635  0.00  0.00    +0.000 A 
ATOM     17  C   UNL     1      -2.303  14.883  24.428  0.00  0.00    +0.000 A 
ATOM     18  C   UNL     1      -3.599  14.531  24.801  0.00  0.00    +0.000 A 
ATOM     19  C   UNL     1      -4.142  13.317  24.378  0.00  0.00    +0.000 A 
ATOM     20  C   UNL     1      -3.386  12.452  23.585  0.00  0.00    +0.000 A 
ENDBRANCH  14  15
ENDBRANCH  10  13
ENDBRANCH   3   7
BRANCH   1  22
ATOM     21  C   UNL     1       3.044   3.012  17.187  0.00  0.00    +0.000 C 
ATOM     22  C   UNL     1       4.045   3.947  17.851  0.00  0.00    +0.000 C 
ATOM     23  N   UNL     1       5.184   3.380  18.129  0.00  0.00    +0.000 NA
BRANCH  23  24
ATOM     24  N   UNL     1       6.117   4.056  18.840  0.00  0.00    +0.000 N 
ATOM     25  C   UNL     1       7.267   4.603  18.331  0.00  0.00    +0.000 C 
ATOM     26  N   UNL     1       8.091   5.312  18.994  0.00  0.00    +0.000 NA
ATOM     27  N   UNL     1       7.482   4.371  17.005  0.00  0.00    +0.000 N 
ATOM     28  H   UNL     1       5.941   4.234  19.818  0.00  0.00    +0.000 HD
ATOM     29  H   UNL     1       7.752   5.450  19.947  0.00  0.00    +0.000 HD
ATOM     30  H   UNL     1       7.084   3.495  16.698  0.00  0.00    +0.000 HD
ATOM     31  H   UNL     1       8.454   4.536  16.747  0.00  0.00    +0.000 HD
ENDBRANCH  23  24
ENDBRANCH   1  22
TORSDOF 5
ENDMDL
MODEL 5
REMARK VINA RESULT:      -8.3      1.387      2.245
REMARK  Name = 
REMARK  7 active torsions:
REMARK  status: ('A' for Active; 'I' for Inactive)
REMARK    1  A    between atoms: C_1  and  C_2
REMARK    2  A    between atoms: C_2  and  C_8
REMARK    3  A    between atoms: N_3  and  N_4
REMARK    4  A    between atoms: C_10  and  C_11
REMARK    5  A    between atoms: C_14  and  C_15
REMARK    6  A    between atoms: C_16  and  C_17
REMARK    7  A    between atoms: C_26  and  C_27
REMARK                            x       y       z     vdW  Elec       q    Type
REMARK                         _______ _______ _______ _____ _____    ______ ____
ROOT
ATOM      1  C   UNL     1       3.580   5.410  18.225  0.00  0.00    +0.000 A 
ATOM      2  S   UNL     1       2.563   5.732  19.577  0.00  0.00    +0.000 S 
ATOM      3  C   UNL     1       2.462   7.385  19.143  0.00  0.00    +0.000 A 
ATOM      4  N   UNL     1       3.212   7.725  18.120  0.00  0.00    +0.000 NA
ATOM      5  C   UNL     1       3.835   6.613  17.571  0.00  0.00    +0.000 A 
ATOM      6  C   UNL     1       4.656   6.866  16.361  0.00  0.00    +0.000 C 
ENDROOT
BRANCH   3   7
ATOM      7  C   UNL     1       1.629   8.329  19.905  0.00  0.00    +0.000 A 
ATOM      8  C   UNL     1       1.212   9.527  19.308  0.00  0.00    +0.000 A 
ATOM      9  C   UNL     1       0.414  10.437  20.013  0.00  0.00    +0.000 A 
ATOM     10  C   UNL     1       0.025  10.156  21.323  0.00  0.00    +0.000 A 
ATOM     11  C   UNL     1       0.423   8.969  21.926  0.00  0.00    +0.000 A 
ATOM     12  C   UNL     1       1.218   8.054  21.218  0.00  0.00    +0.000 A 
BRANCH  10  13
ATOM     13  C   UNL     1      -0.762  11.107  22.048  0.00  0.00    +0.000 C 
ATOM     14  C   UNL     1      -1.395  11.938  22.644  0.00  0.00    +0.000 C 
BRANCH  14  15
ATOM     15  C   UNL     1      -2.119  12.952  23.344  0.00  0.00    +0.000 A 
ATOM     16  C   UNL     1      -3.495  12.810  23.554  0.00  0.00    +0.000 A 
ATOM     17  C   UNL     1      -4.209  13.809  24.222  0.00  0.00    +0.000 A 
ATOM     18  C   UNL     1      -3.550  14.948  24.680  0.00  0.00    +0.000 A 
ATOM     19  C   UNL     1      -2.177  15.090  24.476  0.00  0.00    +0.000 A 
ATOM     20  C   UNL     1      -1.463  14.093  23.810  0.00  0.00    +0.000 A 
ENDBRANCH  14  15
ENDBRANCH  10  13
ENDBRANCH   3   7
BRANCH   1  22
ATOM     21  C   UNL     1       3.009   3.104  17.259  0.00  0.00    +0.000 C 
ATOM     22  C   UNL     1       3.996   4.038  17.945  0.00  0.00    +0.000 C 
ATOM     23  N   UNL     1       5.150   3.487  18.195  0.00  0.00    +0.000 NA
BRANCH  23  24
ATOM     24  N   UNL     1       6.074   4.161  18.920  0.00  0.00    +0.000 N 
ATOM     25  C   UNL     1       7.238   4.696  18.430  0.00  0.00    +0.000 C 
ATOM     26  N   UNL     1       8.055   5.402  19.105  0.00  0.00    +0.000 NA
ATOM     27  N   UNL     1       7.477   4.455  17.111  0.00  0.00    +0.000 N 
ATOM     28  H   UNL     1       5.881   4.345  19.893  0.00  0.00    +0.000 HD
ATOM     29  H   UNL     1       7.698   5.547  20.052  0.00  0.00    +0.000 HD
ATOM     30  H   UNL     1       7.078   3.580  16.801  0.00  0.00    +0.000 HD
ATOM     31  H   UNL     1       8.455   4.612  16.871  0.00  0.00    +0.000 HD
ENDBRANCH  23  24
ENDBRANCH   1  22
TORSDOF 5
ENDMDL
MODEL 6
REMARK VINA RESULT:      -8.2      0.784      1.323
REMARK  Name = 
REMARK  7 active torsions:
REMARK  status: ('A' for Active; 'I' for Inactive)
REMARK    1  A    between atoms: C_1  and  C_2
REMARK    2  A    between atoms: C_2  and  C_8
REMARK    3  A    between atoms: N_3  and  N_4
REMARK    4  A    between atoms: C_10  and  C_11
REMARK    5  A    between atoms: C_14  and  C_15
REMARK    6  A    between atoms: C_16  and  C_17
REMARK    7  A    between atoms: C_26  and  C_27
REMARK                            x       y       z     vdW  Elec       q    Type
REMARK                         _______ _______ _______ _____ _____    ______ ____
ROOT
ATOM      1  C   UNL     1       4.351   5.886  17.056  0.00  0.00    +0.000 A 
ATOM      2  S   UNL     1       3.954   7.512  17.461  0.00  0.00    +0.000 S 
ATOM      3  C   UNL     1       2.690   6.978  18.485  0.00  0.00    +0.000 A 
ATOM      4  N   UNL     1       2.487   5.681  18.467  0.00  0.00    +0.000 NA
ATOM      5  C   UNL     1       3.435   5.042  17.680  0.00  0.00    +0.000 A 
ATOM      6  C   UNL     1       3.348   3.561  17.641  0.00  0.00    +0.000 C 
ENDROOT
BRANCH   3   7
ATOM      7  C   UNL     1       1.888   7.927  19.273  0.00  0.00    +0.000 A 
ATOM      8  C   UNL     1       1.450   9.123  18.686  0.00  0.00    +0.000 A 
ATOM      9  C   UNL     1       0.682  10.039  19.416  0.00  0.00    +0.000 A 
ATOM     10  C   UNL     1       0.343   9.765  20.741  0.00  0.00    +0.000 A 
ATOM     11  C   UNL     1       0.761   8.581  21.335  0.00  0.00    +0.000 A 
ATOM     12  C   UNL     1       1.527   7.661  20.602  0.00  0.00    +0.000 A 
BRANCH  10  13
ATOM     13  C   UNL     1      -0.415  10.722  21.490  0.00  0.00    +0.000 C 
ATOM     14  C   UNL     1      -1.026  11.517  22.155  0.00  0.00    +0.000 C 
BRANCH  14  15
ATOM     15  C   UNL     1      -1.732  12.448  22.977  0.00  0.00    +0.000 A 
ATOM     16  C   UNL     1      -3.021  12.146  23.428  0.00  0.00    +0.000 A 
ATOM     17  C   UNL     1      -3.721  13.064  24.216  0.00  0.00    +0.000 A 
ATOM     18  C   UNL     1      -3.135  14.282  24.552  0.00  0.00    +0.000 A 
ATOM     19  C   UNL     1      -1.849  14.585  24.107  0.00  0.00    +0.000 A 
ATOM     20  C   UNL     1      -1.148  13.669  23.321  0.00  0.00    +0.000 A 
ENDBRANCH  14  15
ENDBRANCH  10  13
ENDBRANCH   3   7
BRANCH   1  22
ATOM     21  C   UNL     1       5.263   5.113  14.788  0.00  0.00    +0.000 C 
ATOM     22  C   UNL     1       5.505   5.615  16.203  0.00  0.00    +0.000 C 
ATOM     23  N   UNL     1       6.766   5.770  16.494  0.00  0.00    +0.000 NA
BRANCH  23  24
ATOM     24  N   UNL     1       7.131   6.084  17.760  0.00  0.00    +0.000 N 
ATOM     25  C   UNL     1       7.920   5.315  18.577  0.00  0.00    +0.000 C 
ATOM     26  N   UNL     1       8.328   5.662  19.732  0.00  0.00    +0.000 NA
ATOM     27  N   UNL     1       8.296   4.113  18.056  0.00  0.00    +0.000 N 
ATOM     28  H   UNL     1       6.858   6.981  18.131  0.00  0.00    +0.000 HD
ATOM     29  H   UNL     1       8.018   6.612  19.945  0.00  0.00    +0.000 HD
ATOM     30  H   UNL     1       7.614   3.742  17.410  0.00  0.00    +0.000 HD
ATOM     31  H   UNL     1       8.622   3.475  18.781  0.00  0.00    +0.000 HD
ENDBRANCH  23  24
ENDBRANCH   1  22
TORSDOF 5
ENDMDL
MODEL 7
REMARK VINA RESULT:      -8.1      1.413      2.129
REMARK  Name = 
REMARK  7 active torsions:
REMARK  status: ('A' for Active; 'I' for Inactive)
REMARK    1  A    between atoms: C_1  and  C_2
REMARK    2  A    between atoms: C_2  and  C_8
REMARK    3  A    between atoms: N_3  and  N_4
REMARK    4  A    between atoms: C_10  and  C_11
REMARK    5  A    between atoms: C_14  and  C_15
REMARK    6  A    between atoms: C_16  and  C_17
REMARK    7  A    between atoms: C_26  and  C_27
REMARK                            x       y       z     vdW  Elec       q    Type
REMARK                         _______ _______ _______ _____ _____    ______ ____
ROOT
ATOM      1  C   UNL     1       3.690   5.470  18.422  0.00  0.00    +0.000 A 
ATOM      2  S   UNL     1       2.666   5.860  19.750  0.00  0.00    +0.000 S 
ATOM      3  C   UNL     1       2.448   7.450  19.152  0.00  0.00    +0.000 A 
ATOM      4  N   UNL     1       3.163   7.732  18.088  0.00  0.00    +0.000 NA
ATOM      5  C   UNL     1       3.856   6.615  17.645  0.00  0.00    +0.000 A 
ATOM      6  C   UNL     1       4.646   6.797  16.402  0.00  0.00    +0.000 C 
ENDROOT
BRANCH   3   7
ATOM      7  C   UNL     1       1.559   8.408  19.827  0.00  0.00    +0.000 A 
ATOM      8  C   UNL     1       1.104   9.541  19.137  0.00  0.00    +0.000 A 
ATOM      9  C   UNL     1       0.254  10.463  19.759  0.00  0.00    +0.000 A 
ATOM     10  C   UNL     1      -0.152  10.260  21.078  0.00  0.00    +0.000 A 
ATOM     11  C   UNL     1       0.282   9.138  21.773  0.00  0.00    +0.000 A 
ATOM     12  C   UNL     1       1.131   8.211  21.149  0.00  0.00    +0.000 A 
BRANCH  10  13
ATOM     13  C   UNL     1      -0.995  11.226  21.717  0.00  0.00    +0.000 C 
ATOM     14  C   UNL     1      -1.735  12.006  22.255  0.00  0.00    +0.000 C 
BRANCH  14  15
ATOM     15  C   UNL     1      -2.643  12.906  22.893  0.00  0.00    +0.000 A 
ATOM     16  C   UNL     1      -2.154  13.931  23.710  0.00  0.00    +0.000 A 
ATOM     17  C   UNL     1      -3.041  14.801  24.350  0.00  0.00    +0.000 A 
ATOM     18  C   UNL     1      -4.415  14.648  24.174  0.00  0.00    +0.000 A 
ATOM     19  C   UNL     1      -4.905  13.630  23.357  0.00  0.00    +0.000 A 
ATOM     20  C   UNL     1      -4.021  12.760  22.717  0.00  0.00    +0.000 A 
ENDBRANCH  14  15
ENDBRANCH  10  13
ENDBRANCH   3   7
BRANCH   1  22
ATOM     21  C   UNL     1       3.300   3.063  17.628  0.00  0.00    +0.000 C 
ATOM     22  C   UNL     1       4.197   4.108  18.276  0.00  0.00    +0.000 C 
ATOM     23  N   UNL     1       5.367   3.651  18.622  0.00  0.00    +0.000 NA
BRANCH  23  24
ATOM     24  N   UNL     1       6.214   4.435  19.328  0.00  0.00    +0.000 N 
ATOM     25  C   UNL     1       7.448   4.861  18.905  0.00  0.00    +0.000 C 
ATOM     26  N   UNL     1       8.197   5.670  19.543  0.00  0.00    +0.000 NA
ATOM     27  N   UNL     1       7.842   4.381  17.692  0.00  0.00    +0.000 N 
ATOM     28  H   UNL     1       5.907   4.795  20.219  0.00  0.00    +0.000 HD
ATOM     29  H   UNL     1       7.729   5.989  20.393  0.00  0.00    +0.000 HD
ATOM     30  H   UNL     1       7.456   3.469  17.495  0.00  0.00    +0.000 HD
ATOM     31  H   UNL     1       8.848   4.482  17.557  0.00  0.00    +0.000 HD
ENDBRANCH  23  24
ENDBRANCH   1  22
TORSDOF 5
ENDMDL
MODEL 8
REMARK VINA RESULT:      -8.1      1.983      2.713
REMARK  Name = 
REMARK  7 active torsions:
REMARK  status: ('A' for Active; 'I' for Inactive)
REMARK    1  A    between atoms: C_1  and  C_2
REMARK    2  A    between atoms: C_2  and  C_8
REMARK    3  A    between atoms: N_3  and  N_4
REMARK    4  A    between atoms: C_10  and  C_11
REMARK    5  A    between atoms: C_14  and  C_15
REMARK    6  A    between atoms: C_16  and  C_17
REMARK    7  A    between atoms: C_26  and  C_27
REMARK                            x       y       z     vdW  Elec       q    Type
REMARK                         _______ _______ _______ _____ _____    ______ ____
ROOT
ATOM      1  C   UNL     1       3.829   5.562  18.390  0.00  0.00    +0.000 A 
ATOM      2  S   UNL     1       2.637   6.144  19.488  0.00  0.00    +0.000 S 
ATOM      3  C   UNL     1       2.488   7.600  18.599  0.00  0.00    +0.000 A 
ATOM      4  N   UNL     1       3.335   7.717  17.602  0.00  0.00    +0.000 NA
ATOM      5  C   UNL     1       4.087   6.561  17.453  0.00  0.00    +0.000 A 
ATOM      6  C   UNL     1       5.032   6.550  16.308  0.00  0.00    +0.000 C 
ENDROOT
BRANCH   3   7
ATOM      7  C   UNL     1       1.512   8.633  18.978  0.00  0.00    +0.000 A 
ATOM      8  C   UNL     1       1.173   8.809  20.327  0.00  0.00    +0.000 A 
ATOM      9  C   UNL     1       0.250   9.790  20.710  0.00  0.00    +0.000 A 
ATOM     10  C   UNL     1      -0.343  10.606  19.746  0.00  0.00    +0.000 A 
ATOM     11  C   UNL     1      -0.011  10.451  18.406  0.00  0.00    +0.000 A 
ATOM     12  C   UNL     1       0.918   9.471  18.022  0.00  0.00    +0.000 A 
BRANCH  10  13
ATOM     13  C   UNL     1      -1.310  11.584  20.143  0.00  0.00    +0.000 C 
ATOM     14  C   UNL     1      -2.155  12.374  20.476  0.00  0.00    +0.000 C 
BRANCH  14  15
ATOM     15  C   UNL     1      -3.185  13.284  20.866  0.00  0.00    +0.000 A 
ATOM     16  C   UNL     1      -2.861  14.441  21.582  0.00  0.00    +0.000 A 
ATOM     17  C   UNL     1      -3.868  15.323  21.982  0.00  0.00    +0.000 A 
ATOM     18  C   UNL     1      -5.198  15.050  21.667  0.00  0.00    +0.000 A 
ATOM     19  C   UNL     1      -5.524  13.899  20.949  0.00  0.00    +0.000 A 
ATOM     20  C   UNL     1      -4.519  13.017  20.549  0.00  0.00    +0.000 A 
ENDBRANCH  14  15
ENDBRANCH  10  13
ENDBRANCH   3   7
BRANCH   1  22
ATOM     21  C   UNL     1       3.477   3.032  18.166  0.00  0.00    +0.000 C 
ATOM     22  C   UNL     1       4.360   4.211  18.549  0.00  0.00    +0.000 C 
ATOM     23  N   UNL     1       5.541   3.863  18.974  0.00  0.00    +0.000 NA
BRANCH  23  24
ATOM     24  N   UNL     1       6.380   4.800  19.474  0.00  0.00    +0.000 N 
ATOM     25  C   UNL     1       7.583   5.168  18.927  0.00  0.00    +0.000 C 
ATOM     26  N   UNL     1       8.320   6.112  19.358  0.00  0.00    +0.000 NA
ATOM     27  N   UNL     1       7.957   4.463  17.822  0.00  0.00    +0.000 N 
ATOM     28  H   UNL     1       6.087   5.325  20.285  0.00  0.00    +0.000 HD
ATOM     29  H   UNL     1       7.867   6.583  20.144  0.00  0.00    +0.000 HD
ATOM     30  H   UNL     1       7.600   3.519  17.829  0.00  0.00    +0.000 HD
ATOM     31  H   UNL     1       8.953   4.565  17.631  0.00  0.00    +0.000 HD
ENDBRANCH  23  24
ENDBRANCH   1  22
TORSDOF 5
ENDMDL
MODEL 9
REMARK VINA RESULT:      -8.1      1.882      2.455
REMARK  Name = 
REMARK  7 active torsions:
REMARK  status: ('A' for Active; 'I' for Inactive)
REMARK    1  A    between atoms: C_1  and  C_2
REMARK    2  A    between atoms: C_2  and  C_8
REMARK    3  A    between atoms: N_3  and  N_4
REMARK    4  A    between atoms: C_10  and  C_11
REMARK    5  A    between atoms: C_14  and  C_15
REMARK    6  A    between atoms: C_16  and  C_17
REMARK    7  A    between atoms: C_26  and  C_27
REMARK                            x       y       z     vdW  Elec       q    Type
REMARK                         _______ _______ _______ _____ _____    ______ ____
ROOT
ATOM      1  C   UNL     1       3.850   5.583  18.352  0.00  0.00    +0.000 A 
ATOM      2  S   UNL     1       2.693   6.126  19.506  0.00  0.00    +0.000 S 
ATOM      3  C   UNL     1       2.494   7.599  18.654  0.00  0.00    +0.000 A 
ATOM      4  N   UNL     1       3.301   7.747  17.629  0.00  0.00    +0.000 NA
ATOM      5  C   UNL     1       4.061   6.603  17.427  0.00  0.00    +0.000 A 
ATOM      6  C   UNL     1       4.962   6.628  16.248  0.00  0.00    +0.000 C 
ENDROOT
BRANCH   3   7
ATOM      7  C   UNL     1       1.521   8.612  19.091  0.00  0.00    +0.000 A 
ATOM      8  C   UNL     1       0.953   9.482  18.150  0.00  0.00    +0.000 A 
ATOM      9  C   UNL     1       0.021  10.451  18.543  0.00  0.00    +0.000 A 
ATOM     10  C   UNL     1      -0.353  10.558  19.883  0.00  0.00    +0.000 A 
ATOM     11  C   UNL     1       0.195   9.698  20.827  0.00  0.00    +0.000 A 
ATOM     12  C   UNL     1       1.125   8.723  20.433  0.00  0.00    +0.000 A 
BRANCH  10  13
ATOM     13  C   UNL     1      -1.281  11.573  20.281  0.00  0.00    +0.000 C 
ATOM     14  C   UNL     1      -2.089  12.393  20.628  0.00  0.00    +0.000 C 
BRANCH  14  15
ATOM     15  C   UNL     1      -3.075  13.339  21.047  0.00  0.00    +0.000 A 
ATOM     16  C   UNL     1      -2.828  14.710  20.918  0.00  0.00    +0.000 A 
ATOM     17  C   UNL     1      -3.782  15.637  21.344  0.00  0.00    +0.000 A 
ATOM     18  C   UNL     1      -4.982  15.197  21.900  0.00  0.00    +0.000 A 
ATOM     19  C   UNL     1      -5.232  13.830  22.027  0.00  0.00    +0.000 A 
ATOM     20  C   UNL     1      -4.280  12.903  21.600  0.00  0.00    +0.000 A 
ENDBRANCH  14  15
ENDBRANCH  10  13
ENDBRANCH   3   7
BRANCH   1  22
ATOM     21  C   UNL     1       3.528   3.055  18.060  0.00  0.00    +0.000 C 
ATOM     22  C   UNL     1       4.401   4.235  18.462  0.00  0.00    +0.000 C 
ATOM     23  N   UNL     1       5.594   3.891  18.857  0.00  0.00    +0.000 NA
BRANCH  23  24
ATOM     24  N   UNL     1       6.429   4.826  19.370  0.00  0.00    +0.000 N 
ATOM     25  C   UNL     1       7.536   5.338  18.742  0.00  0.00    +0.000 C 
ATOM     26  N   UNL     1       8.262   6.279  19.199  0.00  0.00    +0.000 NA
ATOM     27  N   UNL     1       7.820   4.788  17.528  0.00  0.00    +0.000 N 
ATOM     28  H   UNL     1       6.202   5.235  20.264  0.00  0.00    +0.000 HD
ATOM     29  H   UNL     1       7.877   6.626  20.079  0.00  0.00    +0.000 HD
ATOM     30  H   UNL     1       7.523   3.825  17.462  0.00  0.00    +0.000 HD
ATOM     31  H   UNL     1       8.780   4.982  17.243  0.00  0.00    +0.000 HD
ENDBRANCH  23  24
ENDBRANCH   1  22
TORSDOF 5
ENDMDL
