MODEL 1
REMARK VINA RESULT:      -7.7      0.000      0.000
REMARK  Name = 
REMARK  4 active torsions:
REMARK  status: ('A' for Active; 'I' for Inactive)
REMARK    1  A    between atoms: O_1  and  C_2
REMARK    2  A    between atoms: C_3  and  C_4
REMARK    3  A    between atoms: C_14  and  C_15
REMARK    4  A    between atoms: C_24  and  O_25
REMARK                            x       y       z     vdW  Elec       q    Type
REMARK                         _______ _______ _______ _____ _____    ______ ____
ROOT
ATOM      1  C   UNL     1       1.093   9.255  18.497  0.00  0.00    +0.000 C 
ATOM      2  C   UNL     1       2.052   8.546  19.492  0.00  0.00    +0.000 C 
ATOM      3  O   UNL     1       1.366   8.242  20.722  0.00  0.00    +0.000 OA
ATOM      4  C   UNL     1       0.892   9.428  21.362  0.00  0.00    +0.000 C 
ATOM      5  C   UNL     1       0.214   9.111  22.696  0.00  0.00    +0.000 C 
ATOM      6  O   UNL     1      -0.311  10.302  23.283  0.00  0.00    +0.000 OA
ATOM      7  C   UNL     1      -1.230  10.964  22.408  0.00  0.00    +0.000 C 
ATOM      8  O   UNL     1      -0.608  11.308  21.174  0.00  0.00    +0.000 OA
ATOM      9  C   UNL     1      -0.146  10.138  20.499  0.00  0.00    +0.000 C 
ATOM     10  C   UNL     1       0.470  10.502  19.146  0.00  0.00    +0.000 C 
ENDROOT
BRANCH   7  11
ATOM     11  C   UNL     1      -1.751  12.248  23.030  0.00  0.00    +0.000 A 
ATOM     12  C   UNL     1      -0.982  13.424  23.075  0.00  0.00    +0.000 A 
ATOM     13  C   UNL     1      -1.478  14.582  23.682  0.00  0.00    +0.000 A 
ATOM     14  C   UNL     1      -2.750  14.578  24.246  0.00  0.00    +0.000 A 
ATOM     15 CL   UNL     1      -3.348  15.998  25.012  0.00  0.00    +0.000 Cl
ATOM     16  C   UNL     1      -3.538  13.432  24.197  0.00  0.00    +0.000 A 
ATOM     17  C   UNL     1      -3.042  12.274  23.590  0.00  0.00    +0.000 A 
ENDBRANCH   7  11
BRANCH   2  18
ATOM     18  C   UNL     1       2.583   7.266  18.864  0.00  0.00    +0.000 A 
ATOM     19  C   UNL     1       2.208   6.023  19.406  0.00  0.00    +0.000 A 
ATOM     20  C   UNL     1       2.792   4.839  18.954  0.00  0.00    +0.000 A 
ATOM     21  C   UNL     1       3.750   4.879  17.943  0.00  0.00    +0.000 A 
ATOM     22  C   UNL     1       4.103   6.099  17.368  0.00  0.00    +0.000 A 
ATOM     23  C   UNL     1       3.524   7.285  17.825  0.00  0.00    +0.000 A 
ENDBRANCH   2  18
BRANCH   1  24
ATOM     24  O   UNL     1       1.762   9.650  17.292  0.00  0.00    +0.000 OA
ATOM     25  H   UNL     1       1.269   9.259  16.547  0.00  0.00    +0.000 HD
ENDBRANCH   1  24
BRANCH  10  26
ATOM     26  O   UNL     1      -0.543  11.067  18.293  0.00  0.00    +0.000 OA
ATOM     27  H   UNL     1      -1.410  10.935  18.708  0.00  0.00    +0.000 HD
ENDBRANCH  10  26
TORSDOF 4
ENDMDL
MODEL 2
REMARK VINA RESULT:      -7.5      2.040      3.911
REMARK  Name = 
REMARK  4 active torsions:
REMARK  status: ('A' for Active; 'I' for Inactive)
REMARK    1  A    between atoms: O_1  and  C_2
REMARK    2  A    between atoms: C_3  and  C_4
REMARK    3  A    between atoms: C_14  and  C_15
REMARK    4  A    between atoms: C_24  and  O_25
REMARK                            x       y       z     vdW  Elec       q    Type
REMARK                         _______ _______ _______ _____ _____    ______ ____
ROOT
ATOM      1  C   UNL     1       3.060   6.092  19.380  0.00  0.00    +0.000 C 
ATOM      2  C   UNL     1       3.195   6.430  17.870  0.00  0.00    +0.000 C 
ATOM      3  O   UNL     1       3.284   7.855  17.680  0.00  0.00    +0.000 OA
ATOM      4  C   UNL     1       2.115   8.520  18.160  0.00  0.00    +0.000 C 
ATOM      5  C   UNL     1       2.184  10.027  17.906  0.00  0.00    +0.000 C 
ATOM      6  O   UNL     1       1.037  10.678  18.453  0.00  0.00    +0.000 OA
ATOM      7  C   UNL     1       0.900  10.420  19.855  0.00  0.00    +0.000 C 
ATOM      8  O   UNL     1       0.790   9.023  20.112  0.00  0.00    +0.000 OA
ATOM      9  C   UNL     1       1.959   8.336  19.665  0.00  0.00    +0.000 C 
ATOM     10  C   UNL     1       1.866   6.843  19.995  0.00  0.00    +0.000 C 
ENDROOT
BRANCH   7  11
ATOM     11  C   UNL     1      -0.344  11.087  20.415  0.00  0.00    +0.000 A 
ATOM     12  C   UNL     1      -1.325  11.658  19.586  0.00  0.00    +0.000 A 
ATOM     13  C   UNL     1      -2.445  12.291  20.133  0.00  0.00    +0.000 A 
ATOM     14  C   UNL     1      -2.599  12.355  21.515  0.00  0.00    +0.000 A 
ATOM     15 CL   UNL     1      -3.967  13.155  22.185  0.00  0.00    +0.000 Cl
ATOM     16  C   UNL     1      -1.651  11.780  22.357  0.00  0.00    +0.000 A 
ATOM     17  C   UNL     1      -0.531  11.146  21.808  0.00  0.00    +0.000 A 
ENDBRANCH   7  11
BRANCH   2  18
ATOM     18  C   UNL     1       4.434   5.752  17.306  0.00  0.00    +0.000 A 
ATOM     19  C   UNL     1       5.673   6.419  17.360  0.00  0.00    +0.000 A 
ATOM     20  C   UNL     1       6.797   5.895  16.721  0.00  0.00    +0.000 A 
ATOM     21  C   UNL     1       6.703   4.690  16.028  0.00  0.00    +0.000 A 
ATOM     22  C   UNL     1       5.494   3.998  15.998  0.00  0.00    +0.000 A 
ATOM     23  C   UNL     1       4.366   4.524  16.633  0.00  0.00    +0.000 A 
ENDBRANCH   2  18
BRANCH   1  24
ATOM     24  O   UNL     1       2.883   4.687  19.605  0.00  0.00    +0.000 OA
ATOM     25  H   UNL     1       2.607   4.576  20.533  0.00  0.00    +0.000 HD
ENDBRANCH   1  24
BRANCH  10  26
ATOM     26  O   UNL     1       1.835   6.668  21.423  0.00  0.00    +0.000 OA
ATOM     27  H   UNL     1       2.744   6.555  21.744  0.00  0.00    +0.000 HD
ENDBRANCH  10  26
TORSDOF 4
ENDMDL
MODEL 3
REMARK VINA RESULT:      -7.5      1.605      2.264
REMARK  Name = 
REMARK  4 active torsions:
REMARK  status: ('A' for Active; 'I' for Inactive)
REMARK    1  A    between atoms: O_1  and  C_2
REMARK    2  A    between atoms: C_3  and  C_4
REMARK    3  A    between atoms: C_14  and  C_15
REMARK    4  A    between atoms: C_24  and  O_25
REMARK                            x       y       z     vdW  Elec       q    Type
REMARK                         _______ _______ _______ _____ _____    ______ ____
ROOT
ATOM      1  C   UNL     1       2.412   7.719  18.125  0.00  0.00    +0.000 C 
ATOM      2  C   UNL     1       2.685   6.792  19.341  0.00  0.00    +0.000 C 
ATOM      3  O   UNL     1       1.607   6.881  20.293  0.00  0.00    +0.000 OA
ATOM      4  C   UNL     1       1.463   8.209  20.797  0.00  0.00    +0.000 C 
ATOM      5  C   UNL     1       0.356   8.291  21.849  0.00  0.00    +0.000 C 
ATOM      6  O   UNL     1       0.185   9.639  22.288  0.00  0.00    +0.000 OA
ATOM      7  C   UNL     1      -0.106  10.519  21.197  0.00  0.00    +0.000 C 
ATOM      8  O   UNL     1       0.933  10.492  20.224  0.00  0.00    +0.000 OA
ATOM      9  C   UNL     1       1.082   9.179  19.683  0.00  0.00    +0.000 C 
ATOM     10  C   UNL     1       2.159   9.162  18.595  0.00  0.00    +0.000 C 
ENDROOT
BRANCH   7  11
ATOM     11  C   UNL     1      -0.247  11.954  21.674  0.00  0.00    +0.000 A 
ATOM     12  C   UNL     1       0.465  13.013  21.084  0.00  0.00    +0.000 A 
ATOM     13  C   UNL     1       0.336  14.319  21.565  0.00  0.00    +0.000 A 
ATOM     14  C   UNL     1      -0.511  14.582  22.638  0.00  0.00    +0.000 A 
ATOM     15 CL   UNL     1      -0.650  16.187  23.242  0.00  0.00    +0.000 Cl
ATOM     16  C   UNL     1      -1.241  13.554  23.227  0.00  0.00    +0.000 A 
ATOM     17  C   UNL     1      -1.112  12.247  22.745  0.00  0.00    +0.000 A 
ENDBRANCH   7  11
BRANCH   2  18
ATOM     18  C   UNL     1       2.839   5.357  18.863  0.00  0.00    +0.000 A 
ATOM     19  C   UNL     1       4.004   4.639  19.193  0.00  0.00    +0.000 A 
ATOM     20  C   UNL     1       4.247   3.378  18.648  0.00  0.00    +0.000 A 
ATOM     21  C   UNL     1       3.322   2.808  17.776  0.00  0.00    +0.000 A 
ATOM     22  C   UNL     1       2.144   3.489  17.470  0.00  0.00    +0.000 A 
ATOM     23  C   UNL     1       1.903   4.754  18.010  0.00  0.00    +0.000 A 
ENDBRANCH   2  18
BRANCH   1  24
ATOM     24  O   UNL     1       3.503   7.724  17.196  0.00  0.00    +0.000 OA
ATOM     25  H   UNL     1       3.991   8.558  17.327  0.00  0.00    +0.000 HD
ENDBRANCH   1  24
BRANCH  10  26
ATOM     26  O   UNL     1       1.741   9.990  17.493  0.00  0.00    +0.000 OA
ATOM     27  H   UNL     1       2.017   9.569  16.664  0.00  0.00    +0.000 HD
ENDBRANCH  10  26
TORSDOF 4
ENDMDL
MODEL 4
REMARK VINA RESULT:      -7.4      1.652      2.491
REMARK  Name = 
REMARK  4 active torsions:
REMARK  status: ('A' for Active; 'I' for Inactive)
REMARK    1  A    between atoms: O_1  and  C_2
REMARK    2  A    between atoms: C_3  and  C_4
REMARK    3  A    between atoms: C_14  and  C_15
REMARK    4  A    between atoms: C_24  and  O_25
REMARK                            x       y       z     vdW  Elec       q    Type
REMARK                         _______ _______ _______ _____ _____    ______ ____
ROOT
ATOM      1  C   UNL     1       2.481   7.658  18.067  0.00  0.00    +0.000 C 
ATOM      2  C   UNL     1       2.753   6.707  19.265  0.00  0.00    +0.000 C 
ATOM      3  O   UNL     1       1.668   6.768  20.211  0.00  0.00    +0.000 OA
ATOM      4  C   UNL     1       1.512   8.085  20.743  0.00  0.00    +0.000 C 
ATOM      5  C   UNL     1       0.399   8.138  21.790  0.00  0.00    +0.000 C 
ATOM      6  O   UNL     1       0.216   9.474  22.256  0.00  0.00    +0.000 OA
ATOM      7  C   UNL     1      -0.074  10.376  21.182  0.00  0.00    +0.000 C 
ATOM      8  O   UNL     1       0.971  10.376  20.215  0.00  0.00    +0.000 OA
ATOM      9  C   UNL     1       1.132   9.076  19.647  0.00  0.00    +0.000 C 
ATOM     10  C   UNL     1       2.215   9.089  18.565  0.00  0.00    +0.000 C 
ENDROOT
BRANCH   7  11
ATOM     11  C   UNL     1      -0.228  11.800  21.688  0.00  0.00    +0.000 A 
ATOM     12  C   UNL     1      -1.088  12.127  22.750  0.00  0.00    +0.000 A 
ATOM     13  C   UNL     1      -1.231  13.452  23.174  0.00  0.00    +0.000 A 
ATOM     14  C   UNL     1      -0.510  14.463  22.543  0.00  0.00    +0.000 A 
ATOM     15 CL   UNL     1      -0.705  16.095  23.052  0.00  0.00    +0.000 Cl
ATOM     16  C   UNL     1       0.362  14.161  21.502  0.00  0.00    +0.000 A 
ATOM     17  C   UNL     1       0.504  12.835  21.079  0.00  0.00    +0.000 A 
ENDBRANCH   7  11
BRANCH   2  18
ATOM     18  C   UNL     1       2.919   5.283  18.757  0.00  0.00    +0.000 A 
ATOM     19  C   UNL     1       1.858   4.665  18.071  0.00  0.00    +0.000 A 
ATOM     20  C   UNL     1       1.918   3.315  17.724  0.00  0.00    +0.000 A 
ATOM     21  C   UNL     1       3.047   2.565  18.047  0.00  0.00    +0.000 A 
ATOM     22  C   UNL     1       4.124   3.172  18.691  0.00  0.00    +0.000 A 
ATOM     23  C   UNL     1       4.062   4.522  19.044  0.00  0.00    +0.000 A 
ENDBRANCH   2  18
BRANCH   1  24
ATOM     24  O   UNL     1       3.578   7.690  17.145  0.00  0.00    +0.000 OA
ATOM     25  H   UNL     1       3.613   6.818  16.709  0.00  0.00    +0.000 HD
ENDBRANCH   1  24
BRANCH  10  26
ATOM     26  O   UNL     1       1.799   9.937  17.479  0.00  0.00    +0.000 OA
ATOM     27  H   UNL     1       2.073   9.530  16.642  0.00  0.00    +0.000 HD
ENDBRANCH  10  26
TORSDOF 4
ENDMDL
MODEL 5
REMARK VINA RESULT:      -7.4      0.405      1.413
REMARK  Name = 
REMARK  4 active torsions:
REMARK  status: ('A' for Active; 'I' for Inactive)
REMARK    1  A    between atoms: O_1  and  C_2
REMARK    2  A    between atoms: C_3  and  C_4
REMARK    3  A    between atoms: C_14  and  C_15
REMARK    4  A    between atoms: C_24  and  O_25
REMARK                            x       y       z     vdW  Elec       q    Type
REMARK                         _______ _______ _______ _____ _____    ______ ____
ROOT
ATOM      1  C   UNL     1       1.208   9.054  18.383  0.00  0.00    +0.000 C 
ATOM      2  C   UNL     1       2.159   8.354  19.393  0.00  0.00    +0.000 C 
ATOM      3  O   UNL     1       1.479   8.113  20.640  0.00  0.00    +0.000 OA
ATOM      4  C   UNL     1       1.045   9.334  21.242  0.00  0.00    +0.000 C 
ATOM      5  C   UNL     1       0.375   9.083  22.594  0.00  0.00    +0.000 C 
ATOM      6  O   UNL     1      -0.110  10.308  23.144  0.00  0.00    +0.000 OA
ATOM      7  C   UNL     1      -1.021  10.965  22.256  0.00  0.00    +0.000 C 
ATOM      8  O   UNL     1      -0.404  11.248  21.003  0.00  0.00    +0.000 OA
ATOM      9  C   UNL     1       0.017  10.042  20.366  0.00  0.00    +0.000 C 
ATOM     10  C   UNL     1       0.627  10.340  18.994  0.00  0.00    +0.000 C 
ENDROOT
BRANCH   7  11
ATOM     11  C   UNL     1      -1.498  12.285  22.838  0.00  0.00    +0.000 A 
ATOM     12  C   UNL     1      -2.762  12.426  23.434  0.00  0.00    +0.000 A 
ATOM     13  C   UNL     1      -3.185  13.661  23.934  0.00  0.00    +0.000 A 
ATOM     14  C   UNL     1      -2.345  14.768  23.848  0.00  0.00    +0.000 A 
ATOM     15 CL   UNL     1      -2.877  16.292  24.443  0.00  0.00    +0.000 Cl
ATOM     16  C   UNL     1      -1.080  14.649  23.278  0.00  0.00    +0.000 A 
ATOM     17  C   UNL     1      -0.659  13.412  22.779  0.00  0.00    +0.000 A 
ENDBRANCH   7  11
BRANCH   2  18
ATOM     18  C   UNL     1       2.647   7.038  18.805  0.00  0.00    +0.000 A 
ATOM     19  C   UNL     1       3.727   7.042  17.904  0.00  0.00    +0.000 A 
ATOM     20  C   UNL     1       4.104   5.878  17.232  0.00  0.00    +0.000 A 
ATOM     21  C   UNL     1       3.414   4.690  17.462  0.00  0.00    +0.000 A 
ATOM     22  C   UNL     1       2.367   4.661  18.381  0.00  0.00    +0.000 A 
ATOM     23  C   UNL     1       1.985   5.826  19.050  0.00  0.00    +0.000 A 
ENDBRANCH   2  18
BRANCH   1  24
ATOM     24  O   UNL     1       1.874   9.387  17.158  0.00  0.00    +0.000 OA
ATOM     25  H   UNL     1       1.726  10.337  16.999  0.00  0.00    +0.000 HD
ENDBRANCH   1  24
BRANCH  10  26
ATOM     26  O   UNL     1      -0.380  10.903  18.133  0.00  0.00    +0.000 OA
ATOM     27  H   UNL     1       0.040  11.546  17.540  0.00  0.00    +0.000 HD
ENDBRANCH  10  26
TORSDOF 4
ENDMDL
MODEL 6
REMARK VINA RESULT:      -7.4      1.194      1.469
REMARK  Name = 
REMARK  4 active torsions:
REMARK  status: ('A' for Active; 'I' for Inactive)
REMARK    1  A    between atoms: O_1  and  C_2
REMARK    2  A    between atoms: C_3  and  C_4
REMARK    3  A    between atoms: C_14  and  C_15
REMARK    4  A    between atoms: C_24  and  O_25
REMARK                            x       y       z     vdW  Elec       q    Type
REMARK                         _______ _______ _______ _____ _____    ______ ____
ROOT
ATOM      1  C   UNL     1       1.934   8.295  18.123  0.00  0.00    +0.000 C 
ATOM      2  C   UNL     1       2.540   7.407  19.245  0.00  0.00    +0.000 C 
ATOM      3  O   UNL     1       1.614   7.282  20.342  0.00  0.00    +0.000 OA
ATOM      4  C   UNL     1       1.318   8.553  20.922  0.00  0.00    +0.000 C 
ATOM      5  C   UNL     1       0.381   8.416  22.123  0.00  0.00    +0.000 C 
ATOM      6  O   UNL     1       0.046   9.702  22.643  0.00  0.00    +0.000 OA
ATOM      7  C   UNL     1      -0.551  10.538  21.645  0.00  0.00    +0.000 C 
ATOM      8  O   UNL     1       0.322  10.716  20.535  0.00  0.00    +0.000 OA
ATOM      9  C   UNL     1       0.615   9.462  19.919  0.00  0.00    +0.000 C 
ATOM     10  C   UNL     1       1.506   9.660  18.689  0.00  0.00    +0.000 C 
ENDROOT
BRANCH   7  11
ATOM     11  C   UNL     1      -0.868  11.916  22.203  0.00  0.00    +0.000 A 
ATOM     12  C   UNL     1      -0.086  13.043  21.899  0.00  0.00    +0.000 A 
ATOM     13  C   UNL     1      -0.385  14.292  22.452  0.00  0.00    +0.000 A 
ATOM     14  C   UNL     1      -1.473  14.428  23.310  0.00  0.00    +0.000 A 
ATOM     15 CL   UNL     1      -1.825  15.962  24.006  0.00  0.00    +0.000 Cl
ATOM     16  C   UNL     1      -2.274  13.330  23.610  0.00  0.00    +0.000 A 
ATOM     17  C   UNL     1      -1.974  12.081  23.056  0.00  0.00    +0.000 A 
ENDBRANCH   7  11
BRANCH   2  18
ATOM     18  C   UNL     1       2.868   6.032  18.684  0.00  0.00    +0.000 A 
ATOM     19  C   UNL     1       1.850   5.269  18.082  0.00  0.00    +0.000 A 
ATOM     20  C   UNL     1       2.079   3.948  17.694  0.00  0.00    +0.000 A 
ATOM     21  C   UNL     1       3.333   3.375  17.889  0.00  0.00    +0.000 A 
ATOM     22  C   UNL     1       4.363   4.129  18.447  0.00  0.00    +0.000 A 
ATOM     23  C   UNL     1       4.134   5.449  18.842  0.00  0.00    +0.000 A 
ENDBRANCH   2  18
BRANCH   1  24
ATOM     24  O   UNL     1       2.859   8.513  17.050  0.00  0.00    +0.000 OA
ATOM     25  H   UNL     1       3.583   9.065  17.400  0.00  0.00    +0.000 HD
ENDBRANCH   1  24
BRANCH  10  26
ATOM     26  O   UNL     1       0.794  10.422  17.697  0.00  0.00    +0.000 OA
ATOM     27  H   UNL     1      -0.151  10.410  17.913  0.00  0.00    +0.000 HD
ENDBRANCH  10  26
TORSDOF 4
ENDMDL
MODEL 7
REMARK VINA RESULT:      -7.4      1.986      3.693
REMARK  Name = 
REMARK  4 active torsions:
REMARK  status: ('A' for Active; 'I' for Inactive)
REMARK    1  A    between atoms: O_1  and  C_2
REMARK    2  A    between atoms: C_3  and  C_4
REMARK    3  A    between atoms: C_14  and  C_15
REMARK    4  A    between atoms: C_24  and  O_25
REMARK                            x       y       z     vdW  Elec       q    Type
REMARK                         _______ _______ _______ _____ _____    ______ ____
ROOT
ATOM      1  C   UNL     1       2.952   6.281  19.403  0.00  0.00    +0.000 C 
ATOM      2  C   UNL     1       3.044   6.620  17.889  0.00  0.00    +0.000 C 
ATOM      3  O   UNL     1       3.122   8.046  17.697  0.00  0.00    +0.000 OA
ATOM      4  C   UNL     1       1.964   8.706  18.210  0.00  0.00    +0.000 C 
ATOM      5  C   UNL     1       2.021  10.213  17.956  0.00  0.00    +0.000 C 
ATOM      6  O   UNL     1       0.888  10.859  18.536  0.00  0.00    +0.000 OA
ATOM      7  C   UNL     1       0.791  10.600  19.941  0.00  0.00    +0.000 C 
ATOM      8  O   UNL     1       0.694   9.203  20.200  0.00  0.00    +0.000 OA
ATOM      9  C   UNL     1       1.852   8.520  19.720  0.00  0.00    +0.000 C 
ATOM     10  C   UNL     1       1.774   7.027  20.051  0.00  0.00    +0.000 C 
ENDROOT
BRANCH   7  11
ATOM     11  C   UNL     1      -0.439  11.262  20.536  0.00  0.00    +0.000 A 
ATOM     12  C   UNL     1      -0.665  11.312  21.923  0.00  0.00    +0.000 A 
ATOM     13  C   UNL     1      -1.823  11.902  22.439  0.00  0.00    +0.000 A 
ATOM     14  C   UNL     1      -2.764  12.454  21.575  0.00  0.00    +0.000 A 
ATOM     15 CL   UNL     1      -4.198  13.159  22.213  0.00  0.00    +0.000 Cl
ATOM     16  C   UNL     1      -2.554  12.434  20.199  0.00  0.00    +0.000 A 
ATOM     17  C   UNL     1      -1.395  11.844  19.683  0.00  0.00    +0.000 A 
ENDBRANCH   7  11
BRANCH   2  18
ATOM     18  C   UNL     1       4.269   5.947  17.290  0.00  0.00    +0.000 A 
ATOM     19  C   UNL     1       4.153   4.653  16.750  0.00  0.00    +0.000 A 
ATOM     20  C   UNL     1       5.281   3.947  16.330  0.00  0.00    +0.000 A 
ATOM     21  C   UNL     1       6.542   4.532  16.429  0.00  0.00    +0.000 A 
ATOM     22  C   UNL     1       6.670   5.828  16.924  0.00  0.00    +0.000 A 
ATOM     23  C   UNL     1       5.542   6.533  17.351  0.00  0.00    +0.000 A 
ENDBRANCH   2  18
BRANCH   1  24
ATOM     24  O   UNL     1       2.787   4.876  19.631  0.00  0.00    +0.000 OA
ATOM     25  H   UNL     1       2.122   4.556  18.994  0.00  0.00    +0.000 HD
ENDBRANCH   1  24
BRANCH  10  26
ATOM     26  O   UNL     1       1.784   6.851  21.480  0.00  0.00    +0.000 OA
ATOM     27  H   UNL     1       2.510   6.252  21.716  0.00  0.00    +0.000 HD
ENDBRANCH  10  26
TORSDOF 4
ENDMDL
MODEL 8
REMARK VINA RESULT:      -7.3      3.853      8.414
REMARK  Name = 
REMARK  4 active torsions:
REMARK  status: ('A' for Active; 'I' for Inactive)
REMARK    1  A    between atoms: O_1  and  C_2
REMARK    2  A    between atoms: C_3  and  C_4
REMARK    3  A    between atoms: C_14  and  C_15
REMARK    4  A    between atoms: C_24  and  O_25
REMARK                            x       y       z     vdW  Elec       q    Type
REMARK                         _______ _______ _______ _____ _____    ______ ____
ROOT
ATOM      1  C   UNL     1       0.476  11.792  18.935  0.00  0.00    +0.000 C 
ATOM      2  C   UNL     1      -0.521  11.649  20.118  0.00  0.00    +0.000 C 
ATOM      3  O   UNL     1       0.033  10.802  21.143  0.00  0.00    +0.000 OA
ATOM      4  C   UNL     1       0.295   9.487  20.649  0.00  0.00    +0.000 C 
ATOM      5  C   UNL     1       0.828   8.571  21.751  0.00  0.00    +0.000 C 
ATOM      6  O   UNL     1       1.146   7.285  21.219  0.00  0.00    +0.000 OA
ATOM      7  C   UNL     1       2.093   7.373  20.149  0.00  0.00    +0.000 C 
ATOM      8  O   UNL     1       1.599   8.187  19.091  0.00  0.00    +0.000 OA
ATOM      9  C   UNL     1       1.352   9.516  19.551  0.00  0.00    +0.000 C 
ATOM     10  C   UNL     1       0.877  10.407  18.400  0.00  0.00    +0.000 C 
ENDROOT
BRANCH   7  11
ATOM     11  C   UNL     1       2.392   6.001  19.568  0.00  0.00    +0.000 A 
ATOM     12  C   UNL     1       2.831   5.829  18.244  0.00  0.00    +0.000 A 
ATOM     13  C   UNL     1       3.069   4.551  17.729  0.00  0.00    +0.000 A 
ATOM     14  C   UNL     1       2.877   3.432  18.535  0.00  0.00    +0.000 A 
ATOM     15 CL   UNL     1       3.149   1.860  17.891  0.00  0.00    +0.000 Cl
ATOM     16  C   UNL     1       2.461   3.578  19.856  0.00  0.00    +0.000 A 
ATOM     17  C   UNL     1       2.224   4.857  20.370  0.00  0.00    +0.000 A 
ENDBRANCH   7  11
BRANCH   2  18
ATOM     18  C   UNL     1      -0.830  13.024  20.692  0.00  0.00    +0.000 A 
ATOM     19  C   UNL     1       0.107  13.648  21.536  0.00  0.00    +0.000 A 
ATOM     20  C   UNL     1      -0.205  14.836  22.198  0.00  0.00    +0.000 A 
ATOM     21  C   UNL     1      -1.454  15.425  22.016  0.00  0.00    +0.000 A 
ATOM     22  C   UNL     1      -2.379  14.840  21.153  0.00  0.00    +0.000 A 
ATOM     23  C   UNL     1      -2.070  13.648  20.494  0.00  0.00    +0.000 A 
ENDBRANCH   2  18
BRANCH   1  24
ATOM     24  O   UNL     1      -0.074  12.559  17.857  0.00  0.00    +0.000 OA
ATOM     25  H   UNL     1      -1.043  12.553  17.963  0.00  0.00    +0.000 HD
ENDBRANCH   1  24
BRANCH  10  26
ATOM     26  O   UNL     1       1.924  10.524  17.419  0.00  0.00    +0.000 OA
ATOM     27  H   UNL     1       2.187  11.455  17.352  0.00  0.00    +0.000 HD
ENDBRANCH  10  26
TORSDOF 4
ENDMDL
MODEL 9
REMARK VINA RESULT:      -7.2      2.981      3.847
REMARK  Name = 
REMARK  4 active torsions:
REMARK  status: ('A' for Active; 'I' for Inactive)
REMARK    1  A    between atoms: O_1  and  C_2
REMARK    2  A    between atoms: C_3  and  C_4
REMARK    3  A    between atoms: C_14  and  C_15
REMARK    4  A    between atoms: C_24  and  O_25
REMARK                            x       y       z     vdW  Elec       q    Type
REMARK                         _______ _______ _______ _____ _____    ______ ____
ROOT
ATOM      1  C   UNL     1       2.290   7.018  18.651  0.00  0.00    +0.000 C 
ATOM      2  C   UNL     1       2.192   6.603  20.145  0.00  0.00    +0.000 C 
ATOM      3  O   UNL     1       1.072   7.253  20.775  0.00  0.00    +0.000 OA
ATOM      4  C   UNL     1       1.206   8.675  20.739  0.00  0.00    +0.000 C 
ATOM      5  C   UNL     1       0.046   9.365  21.458  0.00  0.00    +0.000 C 
ATOM      6  O   UNL     1       0.165  10.783  21.350  0.00  0.00    +0.000 OA
ATOM      7  C   UNL     1       0.220  11.208  19.983  0.00  0.00    +0.000 C 
ATOM      8  O   UNL     1       1.320  10.611  19.304  0.00  0.00    +0.000 OA
ATOM      9  C   UNL     1       1.199   9.189  19.302  0.00  0.00    +0.000 C 
ATOM     10  C   UNL     1       2.350   8.549  18.521  0.00  0.00    +0.000 C 
ENDROOT
BRANCH   7  11
ATOM     11  C   UNL     1       0.385  12.715  19.884  0.00  0.00    +0.000 A 
ATOM     12  C   UNL     1      -0.351  13.490  18.972  0.00  0.00    +0.000 A 
ATOM     13  C   UNL     1      -0.154  14.872  18.884  0.00  0.00    +0.000 A 
ATOM     14  C   UNL     1       0.777  15.494  19.711  0.00  0.00    +0.000 A 
ATOM     15 CL   UNL     1       1.033  17.190  19.585  0.00  0.00    +0.000 Cl
ATOM     16  C   UNL     1       1.504  14.750  20.636  0.00  0.00    +0.000 A 
ATOM     17  C   UNL     1       1.306  13.368  20.724  0.00  0.00    +0.000 A 
ENDBRANCH   7  11
BRANCH   2  18
ATOM     18  C   UNL     1       2.039   5.093  20.245  0.00  0.00    +0.000 A 
ATOM     19  C   UNL     1       1.431   4.388  19.190  0.00  0.00    +0.000 A 
ATOM     20  C   UNL     1       1.138   3.029  19.311  0.00  0.00    +0.000 A 
ATOM     21  C   UNL     1       1.463   2.351  20.484  0.00  0.00    +0.000 A 
ATOM     22  C   UNL     1       2.102   3.025  21.523  0.00  0.00    +0.000 A 
ATOM     23  C   UNL     1       2.389   4.387  21.405  0.00  0.00    +0.000 A 
ENDBRANCH   2  18
BRANCH   1  24
ATOM     24  O   UNL     1       3.443   6.457  18.010  0.00  0.00    +0.000 OA
ATOM     25  H   UNL     1       3.773   5.741  18.585  0.00  0.00    +0.000 HD
ENDBRANCH   1  24
BRANCH  10  26
ATOM     26  O   UNL     1       2.272   8.946  17.140  0.00  0.00    +0.000 OA
ATOM     27  H   UNL     1       2.385   8.161  16.582  0.00  0.00    +0.000 HD
ENDBRANCH  10  26
TORSDOF 4
ENDMDL
