MODEL 1
REMARK VINA RESULT:      -8.8      0.000      0.000
REMARK  Name = 
REMARK  6 active torsions:
REMARK  status: ('A' for Active; 'I' for Inactive)
REMARK    1  A    between atoms: C_1  and  C_2
REMARK    2  A    between atoms: C_5  and  N_6
REMARK    3  A    between atoms: C_7  and  C_8
REMARK    4  A    between atoms: C_9  and  C_10
REMARK    5  A    between atoms: C_10  and  C_12
REMARK    6  A    between atoms: C_20  and  O_21
REMARK                            x       y       z     vdW  Elec       q    Type
REMARK                         _______ _______ _______ _____ _____    ______ ____
ROOT
ATOM      1  N   UNL     1       3.630   6.125  18.012  0.00  0.00    +0.000 N 
ATOM      2  C   UNL     1       4.867   6.225  17.361  0.00  0.00    +0.000 A 
ATOM      3  C   UNL     1       5.573   7.506  17.029  0.00  0.00    +0.000 C 
ATOM      4  C   UNL     1       5.357   4.939  17.138  0.00  0.00    +0.000 A 
ATOM      5  C   UNL     1       4.439   4.024  17.741  0.00  0.00    +0.000 A 
ATOM      6  C   UNL     1       4.427   2.614  17.897  0.00  0.00    +0.000 A 
ATOM      7  C   UNL     1       3.310   1.982  18.422  0.00  0.00    +0.000 A 
ATOM      8  C   UNL     1       2.218   2.709  18.852  0.00  0.00    +0.000 A 
ATOM      9  C   UNL     1       2.223   4.103  18.755  0.00  0.00    +0.000 A 
ATOM     10  C   UNL     1       3.358   4.764  18.225  0.00  0.00    +0.000 A 
ENDROOT
BRANCH   1  15
ATOM     11  C   UNL     1       0.286  10.510  19.676  0.00  0.00    +0.000 C 
ATOM     12  C   UNL     1       1.143   9.363  19.226  0.00  0.00    +0.000 A 
ATOM     13  C   UNL     1       1.577   9.262  17.902  0.00  0.00    +0.000 A 
ATOM     14  C   UNL     1       2.368   8.182  17.492  0.00  0.00    +0.000 A 
ATOM     15  C   UNL     1       2.775   7.208  18.411  0.00  0.00    +0.000 A 
ATOM     16  C   UNL     1       2.340   7.313  19.740  0.00  0.00    +0.000 A 
ATOM     17  C   UNL     1       1.513   8.370  20.137  0.00  0.00    +0.000 A 
ENDBRANCH   1  15
BRANCH   4  18
ATOM     18  C   UNL     1       6.630   4.646  16.446  0.00  0.00    +0.000 C 
ATOM     19  O   UNL     1       7.695   4.515  17.052  0.00  0.00    +0.000 OA
BRANCH  18  20
ATOM     20  C   UNL     1       6.645   4.515  14.964  0.00  0.00    +0.000 A 
ATOM     21  C   UNL     1       7.621   5.218  14.244  0.00  0.00    +0.000 A 
ATOM     22  C   UNL     1       7.710   5.074  12.858  0.00  0.00    +0.000 A 
ATOM     23  C   UNL     1       6.826   4.228  12.186  0.00  0.00    +0.000 A 
ATOM     24  C   UNL     1       5.831   3.554  12.893  0.00  0.00    +0.000 A 
ATOM     25  C   UNL     1       5.723   3.717  14.274  0.00  0.00    +0.000 A 
ENDBRANCH  18  20
ENDBRANCH   4  18
BRANCH   7  26
ATOM     26  O   UNL     1       3.238   0.620  18.496  0.00  0.00    +0.000 OA
ATOM     27  H   UNL     1       3.547   0.342  19.373  0.00  0.00    +0.000 HD
ENDBRANCH   7  26
TORSDOF 4
ENDMDL
MODEL 2
REMARK VINA RESULT:      -8.6      0.100      1.342
REMARK  Name = 
REMARK  6 active torsions:
REMARK  status: ('A' for Active; 'I' for Inactive)
REMARK    1  A    between atoms: C_1  and  C_2
REMARK    2  A    between atoms: C_5  and  N_6
REMARK    3  A    between atoms: C_7  and  C_8
REMARK    4  A    between atoms: C_9  and  C_10
REMARK    5  A    between atoms: C_10  and  C_12
REMARK    6  A    between atoms: C_20  and  O_21
REMARK                            x       y       z     vdW  Elec       q    Type
REMARK                         _______ _______ _______ _____ _____    ______ ____
ROOT
ATOM      1  N   UNL     1       3.701   6.135  18.034  0.00  0.00    +0.000 N 
ATOM      2  C   UNL     1       4.951   6.233  17.410  0.00  0.00    +0.000 A 
ATOM      3  C   UNL     1       5.675   7.512  17.108  0.00  0.00    +0.000 C 
ATOM      4  C   UNL     1       5.436   4.946  17.179  0.00  0.00    +0.000 A 
ATOM      5  C   UNL     1       4.499   4.031  17.753  0.00  0.00    +0.000 A 
ATOM      6  C   UNL     1       4.472   2.619  17.890  0.00  0.00    +0.000 A 
ATOM      7  C   UNL     1       3.339   1.990  18.384  0.00  0.00    +0.000 A 
ATOM      8  C   UNL     1       2.245   2.720  18.802  0.00  0.00    +0.000 A 
ATOM      9  C   UNL     1       2.263   4.116  18.723  0.00  0.00    +0.000 A 
ATOM     10  C   UNL     1       3.414   4.773  18.225  0.00  0.00    +0.000 A 
ENDROOT
BRANCH   1  15
ATOM     11  C   UNL     1       0.197  10.447  19.552  0.00  0.00    +0.000 C 
ATOM     12  C   UNL     1       1.124   9.329  19.174  0.00  0.00    +0.000 A 
ATOM     13  C   UNL     1       1.487   8.348  20.100  0.00  0.00    +0.000 A 
ATOM     14  C   UNL     1       2.359   7.315  19.738  0.00  0.00    +0.000 A 
ATOM     15  C   UNL     1       2.847   7.220  18.430  0.00  0.00    +0.000 A 
ATOM     16  C   UNL     1       2.479   8.205  17.501  0.00  0.00    +0.000 A 
ATOM     17  C   UNL     1       1.642   9.260  17.878  0.00  0.00    +0.000 A 
ENDBRANCH   1  15
BRANCH   4  18
ATOM     18  C   UNL     1       6.720   4.651  16.510  0.00  0.00    +0.000 C 
ATOM     19  O   UNL     1       7.777   4.531  17.133  0.00  0.00    +0.000 OA
BRANCH  18  20
ATOM     20  C   UNL     1       6.757   4.504  15.030  0.00  0.00    +0.000 A 
ATOM     21  C   UNL     1       5.821   3.656  14.421  0.00  0.00    +0.000 A 
ATOM     22  C   UNL     1       5.781   3.538  13.031  0.00  0.00    +0.000 A 
ATOM     23  C   UNL     1       6.674   4.265  12.243  0.00  0.00    +0.000 A 
ATOM     24  C   UNL     1       7.630   5.083  12.843  0.00  0.00    +0.000 A 
ATOM     25  C   UNL     1       7.690   5.183  14.234  0.00  0.00    +0.000 A 
ENDBRANCH  18  20
ENDBRANCH   4  18
BRANCH   7  26
ATOM     26  O   UNL     1       3.255   0.628  18.440  0.00  0.00    +0.000 OA
ATOM     27  H   UNL     1       3.045   0.368  19.351  0.00  0.00    +0.000 HD
ENDBRANCH   7  26
TORSDOF 4
ENDMDL
MODEL 3
REMARK VINA RESULT:      -8.4      0.738      1.225
REMARK  Name = 
REMARK  6 active torsions:
REMARK  status: ('A' for Active; 'I' for Inactive)
REMARK    1  A    between atoms: C_1  and  C_2
REMARK    2  A    between atoms: C_5  and  N_6
REMARK    3  A    between atoms: C_7  and  C_8
REMARK    4  A    between atoms: C_9  and  C_10
REMARK    5  A    between atoms: C_10  and  C_12
REMARK    6  A    between atoms: C_20  and  O_21
REMARK                            x       y       z     vdW  Elec       q    Type
REMARK                         _______ _______ _______ _____ _____    ______ ____
ROOT
ATOM      1  N   UNL     1       3.213   6.351  18.411  0.00  0.00    +0.000 N 
ATOM      2  C   UNL     1       4.515   6.321  17.892  0.00  0.00    +0.000 A 
ATOM      3  C   UNL     1       5.360   7.524  17.595  0.00  0.00    +0.000 C 
ATOM      4  C   UNL     1       4.911   4.991  17.763  0.00  0.00    +0.000 A 
ATOM      5  C   UNL     1       3.860   4.181  18.295  0.00  0.00    +0.000 A 
ATOM      6  C   UNL     1       3.709   2.784  18.494  0.00  0.00    +0.000 A 
ATOM      7  C   UNL     1       2.493   2.270  18.918  0.00  0.00    +0.000 A 
ATOM      8  C   UNL     1       1.430   3.102  19.207  0.00  0.00    +0.000 A 
ATOM      9  C   UNL     1       1.566   4.486  19.066  0.00  0.00    +0.000 A 
ATOM     10  C   UNL     1       2.803   5.027  18.638  0.00  0.00    +0.000 A 
ENDROOT
BRANCH   1  15
ATOM     11  C   UNL     1       0.118  11.071  19.560  0.00  0.00    +0.000 C 
ATOM     12  C   UNL     1       0.910   9.836  19.244  0.00  0.00    +0.000 A 
ATOM     13  C   UNL     1       1.337   9.565  17.942  0.00  0.00    +0.000 A 
ATOM     14  C   UNL     1       2.067   8.404  17.659  0.00  0.00    +0.000 A 
ATOM     15  C   UNL     1       2.421   7.518  18.683  0.00  0.00    +0.000 A 
ATOM     16  C   UNL     1       1.992   7.794  19.990  0.00  0.00    +0.000 A 
ATOM     17  C   UNL     1       1.226   8.932  20.262  0.00  0.00    +0.000 A 
ENDBRANCH   1  15
BRANCH   4  18
ATOM     18  C   UNL     1       6.218   4.564  17.219  0.00  0.00    +0.000 C 
ATOM     19  O   UNL     1       7.179   4.298  17.943  0.00  0.00    +0.000 OA
BRANCH  18  20
ATOM     20  C   UNL     1       6.399   4.460  15.746  0.00  0.00    +0.000 A 
ATOM     21  C   UNL     1       5.472   3.706  15.013  0.00  0.00    +0.000 A 
ATOM     22  C   UNL     1       5.570   3.635  13.621  0.00  0.00    +0.000 A 
ATOM     23  C   UNL     1       6.592   4.315  12.958  0.00  0.00    +0.000 A 
ATOM     24  C   UNL     1       7.538   5.037  13.685  0.00  0.00    +0.000 A 
ATOM     25  C   UNL     1       7.458   5.089  15.077  0.00  0.00    +0.000 A 
ENDBRANCH  18  20
ENDBRANCH   4  18
BRANCH   7  26
ATOM     26  O   UNL     1       2.295   0.923  19.028  0.00  0.00    +0.000 OA
ATOM     27  H   UNL     1       2.869   0.474  18.387  0.00  0.00    +0.000 HD
ENDBRANCH   7  26
TORSDOF 4
ENDMDL
MODEL 4
REMARK VINA RESULT:      -7.9      1.482      2.001
REMARK  Name = 
REMARK  6 active torsions:
REMARK  status: ('A' for Active; 'I' for Inactive)
REMARK    1  A    between atoms: C_1  and  C_2
REMARK    2  A    between atoms: C_5  and  N_6
REMARK    3  A    between atoms: C_7  and  C_8
REMARK    4  A    between atoms: C_9  and  C_10
REMARK    5  A    between atoms: C_10  and  C_12
REMARK    6  A    between atoms: C_20  and  O_21
REMARK                            x       y       z     vdW  Elec       q    Type
REMARK                         _______ _______ _______ _____ _____    ______ ____
ROOT
ATOM      1  N   UNL     1       2.946   6.628  19.012  0.00  0.00    +0.000 N 
ATOM      2  C   UNL     1       4.149   6.445  18.317  0.00  0.00    +0.000 A 
ATOM      3  C   UNL     1       4.844   7.488  17.493  0.00  0.00    +0.000 C 
ATOM      4  C   UNL     1       4.622   5.159  18.576  0.00  0.00    +0.000 A 
ATOM      5  C   UNL     1       3.731   4.562  19.523  0.00  0.00    +0.000 A 
ATOM      6  C   UNL     1       3.721   3.317  20.202  0.00  0.00    +0.000 A 
ATOM      7  C   UNL     1       2.628   2.957  20.977  0.00  0.00    +0.000 A 
ATOM      8  C   UNL     1       1.563   3.818  21.148  0.00  0.00    +0.000 A 
ATOM      9  C   UNL     1       1.569   5.071  20.529  0.00  0.00    +0.000 A 
ATOM     10  C   UNL     1       2.679   5.455  19.738  0.00  0.00    +0.000 A 
ENDROOT
BRANCH   1  15
ATOM     11  C   UNL     1      -0.458  11.274  18.947  0.00  0.00    +0.000 C 
ATOM     12  C   UNL     1       0.443  10.074  18.979  0.00  0.00    +0.000 A 
ATOM     13  C   UNL     1       0.800   9.470  20.187  0.00  0.00    +0.000 A 
ATOM     14  C   UNL     1       1.648   8.357  20.204  0.00  0.00    +0.000 A 
ATOM     15  C   UNL     1       2.118   7.801  19.008  0.00  0.00    +0.000 A 
ATOM     16  C   UNL     1       1.756   8.407  17.796  0.00  0.00    +0.000 A 
ATOM     17  C   UNL     1       0.943   9.546  17.785  0.00  0.00    +0.000 A 
ENDBRANCH   1  15
BRANCH   4  18
ATOM     18  C   UNL     1       5.857   4.597  17.991  0.00  0.00    +0.000 C 
ATOM     19  O   UNL     1       6.794   4.199  18.685  0.00  0.00    +0.000 OA
BRANCH  18  20
ATOM     20  C   UNL     1       5.994   4.512  16.512  0.00  0.00    +0.000 A 
ATOM     21  C   UNL     1       7.181   4.975  15.926  0.00  0.00    +0.000 A 
ATOM     22  C   UNL     1       7.376   4.856  14.549  0.00  0.00    +0.000 A 
ATOM     23  C   UNL     1       6.389   4.276  13.752  0.00  0.00    +0.000 A 
ATOM     24  C   UNL     1       5.192   3.847  14.323  0.00  0.00    +0.000 A 
ATOM     25  C   UNL     1       4.983   3.988  15.696  0.00  0.00    +0.000 A 
ENDBRANCH  18  20
ENDBRANCH   4  18
BRANCH   7  26
ATOM     26  O   UNL     1       2.554   1.727  21.565  0.00  0.00    +0.000 OA
ATOM     27  H   UNL     1       2.479   1.056  20.868  0.00  0.00    +0.000 HD
ENDBRANCH   7  26
TORSDOF 4
ENDMDL
MODEL 5
REMARK VINA RESULT:      -7.5      5.530     11.139
REMARK  Name = 
REMARK  6 active torsions:
REMARK  status: ('A' for Active; 'I' for Inactive)
REMARK    1  A    between atoms: C_1  and  C_2
REMARK    2  A    between atoms: C_5  and  N_6
REMARK    3  A    between atoms: C_7  and  C_8
REMARK    4  A    between atoms: C_9  and  C_10
REMARK    5  A    between atoms: C_10  and  C_12
REMARK    6  A    between atoms: C_20  and  O_21
REMARK                            x       y       z     vdW  Elec       q    Type
REMARK                         _______ _______ _______ _____ _____    ______ ____
ROOT
ATOM      1  N   UNL     1      -0.523  10.500  19.313  0.00  0.00    +0.000 N 
ATOM      2  C   UNL     1      -0.582  11.505  20.288  0.00  0.00    +0.000 A 
ATOM      3  C   UNL     1       0.505  11.831  21.269  0.00  0.00    +0.000 C 
ATOM      4  C   UNL     1      -1.789  12.190  20.148  0.00  0.00    +0.000 A 
ATOM      5  C   UNL     1      -2.454  11.649  19.004  0.00  0.00    +0.000 A 
ATOM      6  C   UNL     1      -3.663  11.970  18.335  0.00  0.00    +0.000 A 
ATOM      7  C   UNL     1      -4.125  11.162  17.307  0.00  0.00    +0.000 A 
ATOM      8  C   UNL     1      -3.397  10.071  16.879  0.00  0.00    +0.000 A 
ATOM      9  C   UNL     1      -2.178   9.759  17.488  0.00  0.00    +0.000 A 
ATOM     10  C   UNL     1      -1.690  10.577  18.536  0.00  0.00    +0.000 A 
ENDROOT
BRANCH   1  15
ATOM     11  C   UNL     1       3.655   6.614  18.526  0.00  0.00    +0.000 C 
ATOM     12  C   UNL     1       2.580   7.643  18.725  0.00  0.00    +0.000 A 
ATOM     13  C   UNL     1       2.241   8.540  17.708  0.00  0.00    +0.000 A 
ATOM     14  C   UNL     1       1.244   9.501  17.909  0.00  0.00    +0.000 A 
ATOM     15  C   UNL     1       0.537   9.552  19.116  0.00  0.00    +0.000 A 
ATOM     16  C   UNL     1       0.878   8.650  20.134  0.00  0.00    +0.000 A 
ATOM     17  C   UNL     1       1.905   7.719  19.946  0.00  0.00    +0.000 A 
ENDBRANCH   1  15
BRANCH   4  18
ATOM     18  C   UNL     1      -2.217  13.302  21.023  0.00  0.00    +0.000 C 
ATOM     19  O   UNL     1      -1.709  14.424  20.960  0.00  0.00    +0.000 OA
BRANCH  18  20
ATOM     20  C   UNL     1      -3.288  13.072  22.029  0.00  0.00    +0.000 A 
ATOM     21  C   UNL     1      -2.916  12.655  23.314  0.00  0.00    +0.000 A 
ATOM     22  C   UNL     1      -3.885  12.489  24.306  0.00  0.00    +0.000 A 
ATOM     23  C   UNL     1      -5.227  12.738  24.018  0.00  0.00    +0.000 A 
ATOM     24  C   UNL     1      -5.608  13.119  22.733  0.00  0.00    +0.000 A 
ATOM     25  C   UNL     1      -4.645  13.261  21.732  0.00  0.00    +0.000 A 
ENDBRANCH  18  20
ENDBRANCH   4  18
BRANCH   7  26
ATOM     26  O   UNL     1      -5.331  11.397  16.711  0.00  0.00    +0.000 OA
ATOM     27  H   UNL     1      -6.025  11.345  17.388  0.00  0.00    +0.000 HD
ENDBRANCH   7  26
TORSDOF 4
ENDMDL
MODEL 6
REMARK VINA RESULT:      -7.5      4.968      8.574
REMARK  Name = 
REMARK  6 active torsions:
REMARK  status: ('A' for Active; 'I' for Inactive)
REMARK    1  A    between atoms: C_1  and  C_2
REMARK    2  A    between atoms: C_5  and  N_6
REMARK    3  A    between atoms: C_7  and  C_8
REMARK    4  A    between atoms: C_9  and  C_10
REMARK    5  A    between atoms: C_10  and  C_12
REMARK    6  A    between atoms: C_20  and  O_21
REMARK                            x       y       z     vdW  Elec       q    Type
REMARK                         _______ _______ _______ _____ _____    ______ ____
ROOT
ATOM      1  N   UNL     1      -1.501  11.992  20.104  0.00  0.00    +0.000 N 
ATOM      2  C   UNL     1      -0.148  11.626  20.074  0.00  0.00    +0.000 A 
ATOM      3  C   UNL     1       0.860  11.935  21.141  0.00  0.00    +0.000 C 
ATOM      4  C   UNL     1       0.084  10.874  18.923  0.00  0.00    +0.000 A 
ATOM      5  C   UNL     1      -1.176  10.700  18.269  0.00  0.00    +0.000 A 
ATOM      6  C   UNL     1      -1.584   9.988  17.112  0.00  0.00    +0.000 A 
ATOM      7  C   UNL     1      -2.881  10.118  16.638  0.00  0.00    +0.000 A 
ATOM      8  C   UNL     1      -3.810  10.889  17.307  0.00  0.00    +0.000 A 
ATOM      9  C   UNL     1      -3.447  11.562  18.478  0.00  0.00    +0.000 A 
ATOM     10  C   UNL     1      -2.128  11.437  18.977  0.00  0.00    +0.000 A 
ENDROOT
BRANCH   1  15
ATOM     11  C   UNL     1      -4.221  15.187  24.050  0.00  0.00    +0.000 C 
ATOM     12  C   UNL     1      -3.497  14.347  23.038  0.00  0.00    +0.000 A 
ATOM     13  C   UNL     1      -3.283  12.983  23.252  0.00  0.00    +0.000 A 
ATOM     14  C   UNL     1      -2.599  12.213  22.304  0.00  0.00    +0.000 A 
ATOM     15  C   UNL     1      -2.157  12.785  21.106  0.00  0.00    +0.000 A 
ATOM     16  C   UNL     1      -2.375  14.154  20.893  0.00  0.00    +0.000 A 
ATOM     17  C   UNL     1      -3.021  14.930  21.861  0.00  0.00    +0.000 A 
ENDBRANCH   1  15
BRANCH   4  18
ATOM     18  C   UNL     1       1.405  10.337  18.537  0.00  0.00    +0.000 C 
ATOM     19  O   UNL     1       2.245  11.015  17.943  0.00  0.00    +0.000 OA
BRANCH  18  20
ATOM     20  C   UNL     1       1.743   8.924  18.857  0.00  0.00    +0.000 A 
ATOM     21  C   UNL     1       2.365   8.148  17.868  0.00  0.00    +0.000 A 
ATOM     22  C   UNL     1       2.756   6.837  18.149  0.00  0.00    +0.000 A 
ATOM     23  C   UNL     1       2.528   6.296  19.414  0.00  0.00    +0.000 A 
ATOM     24  C   UNL     1       1.878   7.051  20.390  0.00  0.00    +0.000 A 
ATOM     25  C   UNL     1       1.463   8.352  20.105  0.00  0.00    +0.000 A 
ENDBRANCH  18  20
ENDBRANCH   4  18
BRANCH   7  26
ATOM     26  O   UNL     1      -3.272   9.517  15.475  0.00  0.00    +0.000 OA
ATOM     27  H   UNL     1      -3.233  10.173  14.761  0.00  0.00    +0.000 HD
ENDBRANCH   7  26
TORSDOF 4
ENDMDL
MODEL 7
REMARK VINA RESULT:      -7.4      2.625      6.194
REMARK  Name = 
REMARK  6 active torsions:
REMARK  status: ('A' for Active; 'I' for Inactive)
REMARK    1  A    between atoms: C_1  and  C_2
REMARK    2  A    between atoms: C_5  and  N_6
REMARK    3  A    between atoms: C_7  and  C_8
REMARK    4  A    between atoms: C_9  and  C_10
REMARK    5  A    between atoms: C_10  and  C_12
REMARK    6  A    between atoms: C_20  and  O_21
REMARK                            x       y       z     vdW  Elec       q    Type
REMARK                         _______ _______ _______ _____ _____    ______ ____
ROOT
ATOM      1  N   UNL     1       6.024   5.933  17.151  0.00  0.00    +0.000 N 
ATOM      2  C   UNL     1       4.867   5.451  17.776  0.00  0.00    +0.000 A 
ATOM      3  C   UNL     1       4.284   5.979  19.053  0.00  0.00    +0.000 C 
ATOM      4  C   UNL     1       4.316   4.448  16.980  0.00  0.00    +0.000 A 
ATOM      5  C   UNL     1       5.107   4.366  15.791  0.00  0.00    +0.000 A 
ATOM      6  C   UNL     1       5.009   3.596  14.604  0.00  0.00    +0.000 A 
ATOM      7  C   UNL     1       6.025   3.640  13.661  0.00  0.00    +0.000 A 
ATOM      8  C   UNL     1       7.115   4.470  13.828  0.00  0.00    +0.000 A 
ATOM      9  C   UNL     1       7.213   5.276  14.965  0.00  0.00    +0.000 A 
ATOM     10  C   UNL     1       6.183   5.246  15.936  0.00  0.00    +0.000 A 
ENDROOT
BRANCH   1  15
ATOM     11  C   UNL     1       9.473  10.086  19.158  0.00  0.00    +0.000 C 
ATOM     12  C   UNL     1       8.593   8.991  18.631  0.00  0.00    +0.000 A 
ATOM     13  C   UNL     1       8.686   7.688  19.126  0.00  0.00    +0.000 A 
ATOM     14  C   UNL     1       7.865   6.674  18.619  0.00  0.00    +0.000 A 
ATOM     15  C   UNL     1       6.906   6.955  17.640  0.00  0.00    +0.000 A 
ATOM     16  C   UNL     1       6.813   8.265  17.146  0.00  0.00    +0.000 A 
ATOM     17  C   UNL     1       7.664   9.268  17.624  0.00  0.00    +0.000 A 
ENDBRANCH   1  15
BRANCH   4  18
ATOM     18  C   UNL     1       3.100   3.684  17.331  0.00  0.00    +0.000 C 
ATOM     19  O   UNL     1       2.311   3.271  16.479  0.00  0.00    +0.000 OA
BRANCH  18  20
ATOM     20  C   UNL     1       2.797   3.407  18.761  0.00  0.00    +0.000 A 
ATOM     21  C   UNL     1       1.590   3.884  19.291  0.00  0.00    +0.000 A 
ATOM     22  C   UNL     1       1.239   3.591  20.610  0.00  0.00    +0.000 A 
ATOM     23  C   UNL     1       2.090   2.823  21.405  0.00  0.00    +0.000 A 
ATOM     24  C   UNL     1       3.308   2.375  20.895  0.00  0.00    +0.000 A 
ATOM     25  C   UNL     1       3.674   2.688  19.585  0.00  0.00    +0.000 A 
ENDBRANCH  18  20
ENDBRANCH   4  18
BRANCH   7  26
ATOM     26  O   UNL     1       5.998   2.838  12.555  0.00  0.00    +0.000 OA
ATOM     27  H   UNL     1       5.124   2.915  12.140  0.00  0.00    +0.000 HD
ENDBRANCH   7  26
TORSDOF 4
ENDMDL
MODEL 8
REMARK VINA RESULT:      -7.4      5.575      9.302
REMARK  Name = 
REMARK  6 active torsions:
REMARK  status: ('A' for Active; 'I' for Inactive)
REMARK    1  A    between atoms: C_1  and  C_2
REMARK    2  A    between atoms: C_5  and  N_6
REMARK    3  A    between atoms: C_7  and  C_8
REMARK    4  A    between atoms: C_9  and  C_10
REMARK    5  A    between atoms: C_10  and  C_12
REMARK    6  A    between atoms: C_20  and  O_21
REMARK                            x       y       z     vdW  Elec       q    Type
REMARK                         _______ _______ _______ _____ _____    ______ ____
ROOT
ATOM      1  N   UNL     1      -2.365  12.429  20.154  0.00  0.00    +0.000 N 
ATOM      2  C   UNL     1      -0.978  12.257  20.251  0.00  0.00    +0.000 A 
ATOM      3  C   UNL     1      -0.123  12.718  21.394  0.00  0.00    +0.000 C 
ATOM      4  C   UNL     1      -0.541  11.530  19.145  0.00  0.00    +0.000 A 
ATOM      5  C   UNL     1      -1.700  11.171  18.387  0.00  0.00    +0.000 A 
ATOM      6  C   UNL     1      -1.899  10.394  17.217  0.00  0.00    +0.000 A 
ATOM      7  C   UNL     1      -3.154  10.334  16.628  0.00  0.00    +0.000 A 
ATOM      8  C   UNL     1      -4.237  10.976  17.194  0.00  0.00    +0.000 A 
ATOM      9  C   UNL     1      -4.079  11.709  18.374  0.00  0.00    +0.000 A 
ATOM     10  C   UNL     1      -2.805  11.776  18.990  0.00  0.00    +0.000 A 
ENDROOT
BRANCH   1  15
ATOM     11  C   UNL     1      -5.845  15.268  23.761  0.00  0.00    +0.000 C 
ATOM     12  C   UNL     1      -4.925  14.522  22.838  0.00  0.00    +0.000 A 
ATOM     13  C   UNL     1      -4.609  13.180  23.063  0.00  0.00    +0.000 A 
ATOM     14  C   UNL     1      -3.743  12.498  22.201  0.00  0.00    +0.000 A 
ATOM     15  C   UNL     1      -3.213  13.135  21.073  0.00  0.00    +0.000 A 
ATOM     16  C   UNL     1      -3.534  14.482  20.848  0.00  0.00    +0.000 A 
ATOM     17  C   UNL     1      -4.365  15.173  21.736  0.00  0.00    +0.000 A 
ENDBRANCH   1  15
BRANCH   4  18
ATOM     18  C   UNL     1       0.872  11.178  18.889  0.00  0.00    +0.000 C 
ATOM     19  O   UNL     1       1.703  12.011  18.521  0.00  0.00    +0.000 OA
BRANCH  18  20
ATOM     20  C   UNL     1       1.320   9.771  19.065  0.00  0.00    +0.000 A 
ATOM     21  C   UNL     1       1.940   9.130  17.983  0.00  0.00    +0.000 A 
ATOM     22  C   UNL     1       2.432   7.830  18.126  0.00  0.00    +0.000 A 
ATOM     23  C   UNL     1       2.306   7.167  19.347  0.00  0.00    +0.000 A 
ATOM     24  C   UNL     1       1.658   7.786  20.416  0.00  0.00    +0.000 A 
ATOM     25  C   UNL     1       1.143   9.074  20.268  0.00  0.00    +0.000 A 
ENDBRANCH  18  20
ENDBRANCH   4  18
BRANCH   7  26
ATOM     26  O   UNL     1      -3.351   9.670  15.452  0.00  0.00    +0.000 OA
ATOM     27  H   UNL     1      -2.668   9.950  14.821  0.00  0.00    +0.000 HD
ENDBRANCH   7  26
TORSDOF 4
ENDMDL
MODEL 9
REMARK VINA RESULT:      -7.3      5.452     10.996
REMARK  Name = 
REMARK  6 active torsions:
REMARK  status: ('A' for Active; 'I' for Inactive)
REMARK    1  A    between atoms: C_1  and  C_2
REMARK    2  A    between atoms: C_5  and  N_6
REMARK    3  A    between atoms: C_7  and  C_8
REMARK    4  A    between atoms: C_9  and  C_10
REMARK    5  A    between atoms: C_10  and  C_12
REMARK    6  A    between atoms: C_20  and  O_21
REMARK                            x       y       z     vdW  Elec       q    Type
REMARK                         _______ _______ _______ _____ _____    ______ ____
ROOT
ATOM      1  N   UNL     1      -0.291  10.585  19.242  0.00  0.00    +0.000 N 
ATOM      2  C   UNL     1      -0.210  11.714  20.069  0.00  0.00    +0.000 A 
ATOM      3  C   UNL     1       0.991  12.120  20.871  0.00  0.00    +0.000 C 
ATOM      4  C   UNL     1      -1.403  12.427  19.966  0.00  0.00    +0.000 A 
ATOM      5  C   UNL     1      -2.210  11.766  18.986  0.00  0.00    +0.000 A 
ATOM      6  C   UNL     1      -3.477  12.047  18.414  0.00  0.00    +0.000 A 
ATOM      7  C   UNL     1      -4.075  11.129  17.565  0.00  0.00    +0.000 A 
ATOM      8  C   UNL     1      -3.433   9.958  17.216  0.00  0.00    +0.000 A 
ATOM      9  C   UNL     1      -2.162   9.678  17.727  0.00  0.00    +0.000 A 
ATOM     10  C   UNL     1      -1.536  10.608  18.592  0.00  0.00    +0.000 A 
ENDROOT
BRANCH   1  15
ATOM     11  C   UNL     1       3.652   6.446  18.538  0.00  0.00    +0.000 C 
ATOM     12  C   UNL     1       2.640   7.540  18.715  0.00  0.00    +0.000 A 
ATOM     13  C   UNL     1       2.360   8.439  17.683  0.00  0.00    +0.000 A 
ATOM     14  C   UNL     1       1.421   9.460  17.864  0.00  0.00    +0.000 A 
ATOM     15  C   UNL     1       0.713   9.572  19.065  0.00  0.00    +0.000 A 
ATOM     16  C   UNL     1       0.994   8.667  20.099  0.00  0.00    +0.000 A 
ATOM     17  C   UNL     1       1.965   7.674  19.931  0.00  0.00    +0.000 A 
ENDBRANCH   1  15
BRANCH   4  18
ATOM     18  C   UNL     1      -1.697  13.665  20.718  0.00  0.00    +0.000 C 
ATOM     19  O   UNL     1      -1.359  14.778  20.313  0.00  0.00    +0.000 OA
BRANCH  18  20
ATOM     20  C   UNL     1      -2.415  13.579  22.018  0.00  0.00    +0.000 A 
ATOM     21  C   UNL     1      -2.838  14.771  22.624  0.00  0.00    +0.000 A 
ATOM     22  C   UNL     1      -3.570  14.731  23.813  0.00  0.00    +0.000 A 
ATOM     23  C   UNL     1      -3.882  13.504  24.400  0.00  0.00    +0.000 A 
ATOM     24  C   UNL     1      -3.435  12.318  23.820  0.00  0.00    +0.000 A 
ATOM     25  C   UNL     1      -2.681  12.355  22.646  0.00  0.00    +0.000 A 
ENDBRANCH  18  20
ENDBRANCH   4  18
BRANCH   7  26
ATOM     26  O   UNL     1      -5.334  11.335  17.075  0.00  0.00    +0.000 OA
ATOM     27  H   UNL     1      -5.294  12.037  16.407  0.00  0.00    +0.000 HD
ENDBRANCH   7  26
TORSDOF 4
ENDMDL
