MODEL 1
REMARK VINA RESULT:      -6.6      0.000      0.000
REMARK  Name = 
REMARK  8 active torsions:
REMARK  status: ('A' for Active; 'I' for Inactive)
REMARK    1  A    between atoms: C_1  and  C_2
REMARK    2  A    between atoms: C_2  and  C_3
REMARK    3  A    between atoms: C_3  and  C_4
REMARK    4  A    between atoms: C_3  and  C_5
REMARK    5  A    between atoms: C_3  and  C_6
REMARK    6  A    between atoms: N_8  and  C_9
REMARK    7  A    between atoms: N_14  and  C_15
REMARK    8  A    between atoms: C_21  and  C_22
REMARK                            x       y       z     vdW  Elec       q    Type
REMARK                         _______ _______ _______ _____ _____    ______ ____
ROOT
ATOM      1  C   UNL     1       1.255   8.736  20.654  0.00  0.00    +0.000 A 
ATOM      2  C   UNL     1       1.621   8.835  21.981  0.00  0.00    +0.000 A 
ATOM      3  S   UNL     1       0.637   9.905  22.871  0.00  0.00    +0.000 S 
ATOM      4  C   UNL     1      -0.332  10.269  21.499  0.00  0.00    +0.000 A 
ATOM      5  C   UNL     1      -1.443  11.125  21.410  0.00  0.00    +0.000 A 
ATOM      6  N   UNL     1      -1.918  11.832  22.513  0.00  0.00    +0.000 N 
ATOM      7  N   UNL     1      -2.045  11.219  20.211  0.00  0.00    +0.000 NA
ATOM      8  C   UNL     1      -1.560  10.517  19.160  0.00  0.00    +0.000 A 
ATOM      9  N   UNL     1      -0.481   9.711  19.164  0.00  0.00    +0.000 NA
ATOM     10  C   UNL     1       0.121   9.586  20.373  0.00  0.00    +0.000 A 
ATOM     11  H   UNL     1      -1.290  11.820  23.311  0.00  0.00    +0.000 HD
ENDROOT
BRANCH   6  12
ATOM     12  C   UNL     1      -2.697  13.057  22.317  0.00  0.00    +0.000 C 
ATOM     13  C   UNL     1      -2.216  14.209  23.195  0.00  0.00    +0.000 C 
ATOM     14  C   UNL     1      -3.199  14.276  24.348  0.00  0.00    +0.000 C 
ATOM     15  N   UNL     1      -4.485  13.863  23.790  0.00  0.00    +0.000 NA
ATOM     16  C   UNL     1      -4.168  12.861  22.755  0.00  0.00    +0.000 C 
ATOM     17  H   UNL     1      -4.925  14.670  23.344  0.00  0.00    +0.000 HD
ENDBRANCH   6  12
BRANCH   8  18
ATOM     18  C   UNL     1      -2.284  10.642  17.887  0.00  0.00    +0.000 A 
ATOM     19  C   UNL     1      -3.411  11.470  17.768  0.00  0.00    +0.000 A 
ATOM     20  C   UNL     1      -4.065  11.556  16.550  0.00  0.00    +0.000 A 
ATOM     21  N   UNL     1      -3.681  10.886  15.446  0.00  0.00    +0.000 NA
ATOM     22  C   UNL     1      -2.593  10.096  15.565  0.00  0.00    +0.000 A 
ATOM     23  C   UNL     1      -1.876   9.944  16.741  0.00  0.00    +0.000 A 
ENDBRANCH   8  18
BRANCH   1  26
ATOM     24  C   UNL     1       2.077   6.552  19.867  0.00  0.00    +0.000 C 
ATOM     25  O   UNL     1       1.714   5.922  20.859  0.00  0.00    +0.000 OA
ATOM     26  N   UNL     1       1.892   7.919  19.710  0.00  0.00    +0.000 N 
ATOM     27  H   UNL     1       2.066   8.361  18.810  0.00  0.00    +0.000 HD
BRANCH  24  28
ATOM     28  C   UNL     1       2.762   5.819  18.692  0.00  0.00    +0.000 C 
ATOM     29  C   UNL     1       3.857   4.887  19.260  0.00  0.00    +0.000 C 
ATOM     30  C   UNL     1       3.451   6.854  17.786  0.00  0.00    +0.000 C 
BRANCH  28  32
ATOM     31  C   UNL     1       1.647   3.527  18.243  0.00  0.00    +0.000 C 
ATOM     32  C   UNL     1       1.740   5.002  17.864  0.00  0.00    +0.000 C 
ENDBRANCH  28  32
ENDBRANCH  24  28
ENDBRANCH   1  26
TORSDOF 5
ENDMDL
MODEL 2
REMARK VINA RESULT:      -6.4      0.296      1.155
REMARK  Name = 
REMARK  8 active torsions:
REMARK  status: ('A' for Active; 'I' for Inactive)
REMARK    1  A    between atoms: C_1  and  C_2
REMARK    2  A    between atoms: C_2  and  C_3
REMARK    3  A    between atoms: C_3  and  C_4
REMARK    4  A    between atoms: C_3  and  C_5
REMARK    5  A    between atoms: C_3  and  C_6
REMARK    6  A    between atoms: N_8  and  C_9
REMARK    7  A    between atoms: N_14  and  C_15
REMARK    8  A    between atoms: C_21  and  C_22
REMARK                            x       y       z     vdW  Elec       q    Type
REMARK                         _______ _______ _______ _____ _____    ______ ____
ROOT
ATOM      1  C   UNL     1       1.244   8.812  20.643  0.00  0.00    +0.000 A 
ATOM      2  C   UNL     1       1.600   8.914  21.973  0.00  0.00    +0.000 A 
ATOM      3  S   UNL     1       0.590   9.966  22.857  0.00  0.00    +0.000 S 
ATOM      4  C   UNL     1      -0.375  10.316  21.480  0.00  0.00    +0.000 A 
ATOM      5  C   UNL     1      -1.500  11.153  21.384  0.00  0.00    +0.000 A 
ATOM      6  N   UNL     1      -1.994  11.850  22.485  0.00  0.00    +0.000 N 
ATOM      7  N   UNL     1      -2.095  11.238  20.180  0.00  0.00    +0.000 NA
ATOM      8  C   UNL     1      -1.591  10.546  19.132  0.00  0.00    +0.000 A 
ATOM      9  N   UNL     1      -0.497   9.759  19.143  0.00  0.00    +0.000 NA
ATOM     10  C   UNL     1       0.098   9.642  20.355  0.00  0.00    +0.000 A 
ATOM     11  H   UNL     1      -1.371  11.847  23.287  0.00  0.00    +0.000 HD
ENDROOT
BRANCH   6  12
ATOM     12  C   UNL     1      -2.793  13.062  22.285  0.00  0.00    +0.000 C 
ATOM     13  C   UNL     1      -2.385  14.197  23.219  0.00  0.00    +0.000 C 
ATOM     14  C   UNL     1      -3.426  14.206  24.322  0.00  0.00    +0.000 C 
ATOM     15  N   UNL     1      -4.673  13.780  23.688  0.00  0.00    +0.000 NA
ATOM     16  C   UNL     1      -4.279  12.818  22.641  0.00  0.00    +0.000 C 
ATOM     17  H   UNL     1      -5.109  14.590  23.243  0.00  0.00    +0.000 HD
ENDBRANCH   6  12
BRANCH   8  18
ATOM     18  C   UNL     1      -2.308  10.661  17.854  0.00  0.00    +0.000 A 
ATOM     19  C   UNL     1      -3.443  11.476  17.726  0.00  0.00    +0.000 A 
ATOM     20  C   UNL     1      -4.090  11.552  16.504  0.00  0.00    +0.000 A 
ATOM     21  N   UNL     1      -3.691  10.885  15.404  0.00  0.00    +0.000 NA
ATOM     22  C   UNL     1      -2.595  10.108  15.531  0.00  0.00    +0.000 A 
ATOM     23  C   UNL     1      -1.885   9.966  16.712  0.00  0.00    +0.000 A 
ENDBRANCH   8  18
BRANCH   1  26
ATOM     24  C   UNL     1       2.081   6.638  19.844  0.00  0.00    +0.000 C 
ATOM     25  O   UNL     1       1.694   5.994  20.818  0.00  0.00    +0.000 OA
ATOM     26  N   UNL     1       1.902   8.007  19.702  0.00  0.00    +0.000 N 
ATOM     27  H   UNL     1       2.097   8.462  18.813  0.00  0.00    +0.000 HD
BRANCH  24  28
ATOM     28  C   UNL     1       2.791   5.920  18.674  0.00  0.00    +0.000 C 
ATOM     29  C   UNL     1       1.780   4.977  17.983  0.00  0.00    +0.000 C 
ATOM     30  C   UNL     1       3.933   5.053  19.235  0.00  0.00    +0.000 C 
BRANCH  28  32
ATOM     31  C   UNL     1       4.773   6.617  17.163  0.00  0.00    +0.000 C 
ATOM     32  C   UNL     1       3.363   6.933  17.654  0.00  0.00    +0.000 C 
ENDBRANCH  28  32
ENDBRANCH  24  28
ENDBRANCH   1  26
TORSDOF 5
ENDMDL
MODEL 3
REMARK VINA RESULT:      -6.4      0.291      1.417
REMARK  Name = 
REMARK  8 active torsions:
REMARK  status: ('A' for Active; 'I' for Inactive)
REMARK    1  A    between atoms: C_1  and  C_2
REMARK    2  A    between atoms: C_2  and  C_3
REMARK    3  A    between atoms: C_3  and  C_4
REMARK    4  A    between atoms: C_3  and  C_5
REMARK    5  A    between atoms: C_3  and  C_6
REMARK    6  A    between atoms: N_8  and  C_9
REMARK    7  A    between atoms: N_14  and  C_15
REMARK    8  A    between atoms: C_21  and  C_22
REMARK                            x       y       z     vdW  Elec       q    Type
REMARK                         _______ _______ _______ _____ _____    ______ ____
ROOT
ATOM      1  C   UNL     1       1.258   8.730  20.671  0.00  0.00    +0.000 A 
ATOM      2  C   UNL     1       1.614   8.837  22.000  0.00  0.00    +0.000 A 
ATOM      3  S   UNL     1       0.623   9.914  22.876  0.00  0.00    +0.000 S 
ATOM      4  C   UNL     1      -0.335  10.269  21.495  0.00  0.00    +0.000 A 
ATOM      5  C   UNL     1      -1.445  11.125  21.393  0.00  0.00    +0.000 A 
ATOM      6  N   UNL     1      -1.927  11.839  22.488  0.00  0.00    +0.000 N 
ATOM      7  N   UNL     1      -2.038  11.212  20.188  0.00  0.00    +0.000 NA
ATOM      8  C   UNL     1      -1.546  10.503  19.146  0.00  0.00    +0.000 A 
ATOM      9  N   UNL     1      -0.467   9.697  19.163  0.00  0.00    +0.000 NA
ATOM     10  C   UNL     1       0.126   9.579  20.377  0.00  0.00    +0.000 A 
ATOM     11  H   UNL     1      -1.305  11.832  23.291  0.00  0.00    +0.000 HD
ENDROOT
BRANCH   6  12
ATOM     12  C   UNL     1      -2.704  13.064  22.279  0.00  0.00    +0.000 C 
ATOM     13  C   UNL     1      -2.297  14.189  23.225  0.00  0.00    +0.000 C 
ATOM     14  C   UNL     1      -3.358  14.209  24.309  0.00  0.00    +0.000 C 
ATOM     15  N   UNL     1      -4.598  13.805  23.650  0.00  0.00    +0.000 NA
ATOM     16  C   UNL     1      -4.200  12.841  22.607  0.00  0.00    +0.000 C 
ATOM     17  H   UNL     1      -5.014  14.623  23.201  0.00  0.00    +0.000 HD
ENDBRANCH   6  12
BRANCH   8  18
ATOM     18  C   UNL     1      -2.261  10.621  17.867  0.00  0.00    +0.000 A 
ATOM     19  C   UNL     1      -1.853   9.899  16.735  0.00  0.00    +0.000 A 
ATOM     20  C   UNL     1      -2.554  10.043  15.549  0.00  0.00    +0.000 A 
ATOM     21  N   UNL     1      -3.628  10.844  15.408  0.00  0.00    +0.000 NA
ATOM     22  C   UNL     1      -4.020  11.530  16.501  0.00  0.00    +0.000 A 
ATOM     23  C   UNL     1      -3.381  11.454  17.728  0.00  0.00    +0.000 A 
ENDBRANCH   8  18
BRANCH   1  26
ATOM     24  C   UNL     1       2.061   6.537  19.892  0.00  0.00    +0.000 C 
ATOM     25  O   UNL     1       1.668   5.908  20.873  0.00  0.00    +0.000 OA
ATOM     26  N   UNL     1       1.901   7.907  19.737  0.00  0.00    +0.000 N 
ATOM     27  H   UNL     1       2.100   8.350  18.843  0.00  0.00    +0.000 HD
BRANCH  24  28
ATOM     28  C   UNL     1       2.758   5.798  18.728  0.00  0.00    +0.000 C 
ATOM     29  C   UNL     1       3.388   6.846  17.781  0.00  0.00    +0.000 C 
ATOM     30  C   UNL     1       1.704   5.014  17.925  0.00  0.00    +0.000 C 
BRANCH  28  32
ATOM     31  C   UNL     1       5.277   5.315  19.068  0.00  0.00    +0.000 C 
ATOM     32  C   UNL     1       3.844   4.824  19.247  0.00  0.00    +0.000 C 
ENDBRANCH  28  32
ENDBRANCH  24  28
ENDBRANCH   1  26
TORSDOF 5
ENDMDL
MODEL 4
REMARK VINA RESULT:      -6.4      4.934      7.215
REMARK  Name = 
REMARK  8 active torsions:
REMARK  status: ('A' for Active; 'I' for Inactive)
REMARK    1  A    between atoms: C_1  and  C_2
REMARK    2  A    between atoms: C_2  and  C_3
REMARK    3  A    between atoms: C_3  and  C_4
REMARK    4  A    between atoms: C_3  and  C_5
REMARK    5  A    between atoms: C_3  and  C_6
REMARK    6  A    between atoms: N_8  and  C_9
REMARK    7  A    between atoms: N_14  and  C_15
REMARK    8  A    between atoms: C_21  and  C_22
REMARK                            x       y       z     vdW  Elec       q    Type
REMARK                         _______ _______ _______ _____ _____    ______ ____
ROOT
ATOM      1  C   UNL     1       1.808  14.344  19.159  0.00  0.00    +0.000 A 
ATOM      2  C   UNL     1       0.897  15.380  19.142  0.00  0.00    +0.000 A 
ATOM      3  S   UNL     1      -0.716  14.851  18.977  0.00  0.00    +0.000 S 
ATOM      4  C   UNL     1      -0.246  13.199  18.933  0.00  0.00    +0.000 A 
ATOM      5  C   UNL     1      -1.058  12.057  18.818  0.00  0.00    +0.000 A 
ATOM      6  N   UNL     1      -2.445  12.147  18.715  0.00  0.00    +0.000 N 
ATOM      7  N   UNL     1      -0.436  10.864  18.830  0.00  0.00    +0.000 NA
ATOM      8  C   UNL     1       0.913  10.812  18.934  0.00  0.00    +0.000 A 
ATOM      9  N   UNL     1       1.752  11.863  19.008  0.00  0.00    +0.000 NA
ATOM     10  C   UNL     1       1.138  13.071  19.023  0.00  0.00    +0.000 A 
ATOM     11  H   UNL     1      -2.784  13.089  18.543  0.00  0.00    +0.000 HD
ENDROOT
BRANCH   6  12
ATOM     12  C   UNL     1      -3.205  11.058  18.097  0.00  0.00    +0.000 C 
ATOM     13  C   UNL     1      -2.590  10.580  16.786  0.00  0.00    +0.000 C 
ATOM     14  C   UNL     1      -3.427  11.216  15.691  0.00  0.00    +0.000 C 
ATOM     15  N   UNL     1      -4.782  11.297  16.233  0.00  0.00    +0.000 NA
ATOM     16  C   UNL     1      -4.619  11.528  17.681  0.00  0.00    +0.000 C 
ATOM     17  H   UNL     1      -5.247  10.398  16.094  0.00  0.00    +0.000 HD
ENDBRANCH   6  12
BRANCH   8  18
ATOM     18  C   UNL     1       1.524   9.476  18.972  0.00  0.00    +0.000 A 
ATOM     19  C   UNL     1       1.429   8.663  20.112  0.00  0.00    +0.000 A 
ATOM     20  C   UNL     1       2.023   7.412  20.106  0.00  0.00    +0.000 A 
ATOM     21  N   UNL     1       2.696   6.909  19.053  0.00  0.00    +0.000 NA
ATOM     22  C   UNL     1       2.777   7.691  17.956  0.00  0.00    +0.000 A 
ATOM     23  C   UNL     1       2.219   8.956  17.870  0.00  0.00    +0.000 A 
ENDBRANCH   8  18
BRANCH   1  26
ATOM     24  C   UNL     1       3.989  15.185  18.384  0.00  0.00    +0.000 C 
ATOM     25  O   UNL     1       3.560  15.705  17.356  0.00  0.00    +0.000 OA
ATOM     26  N   UNL     1       3.194  14.504  19.296  0.00  0.00    +0.000 N 
ATOM     27  H   UNL     1       3.568  14.232  20.202  0.00  0.00    +0.000 HD
BRANCH  24  28
ATOM     28  C   UNL     1       5.490  15.291  18.736  0.00  0.00    +0.000 C 
ATOM     29  C   UNL     1       5.694  14.802  20.189  0.00  0.00    +0.000 C 
ATOM     30  C   UNL     1       5.920  16.767  18.673  0.00  0.00    +0.000 C 
BRANCH  28  32
ATOM     31  C   UNL     1       7.824  14.331  18.165  0.00  0.00    +0.000 C 
ATOM     32  C   UNL     1       6.358  14.456  17.764  0.00  0.00    +0.000 C 
ENDBRANCH  28  32
ENDBRANCH  24  28
ENDBRANCH   1  26
TORSDOF 5
ENDMDL
MODEL 5
REMARK VINA RESULT:      -6.2      5.083      7.398
REMARK  Name = 
REMARK  8 active torsions:
REMARK  status: ('A' for Active; 'I' for Inactive)
REMARK    1  A    between atoms: C_1  and  C_2
REMARK    2  A    between atoms: C_2  and  C_3
REMARK    3  A    between atoms: C_3  and  C_4
REMARK    4  A    between atoms: C_3  and  C_5
REMARK    5  A    between atoms: C_3  and  C_6
REMARK    6  A    between atoms: N_8  and  C_9
REMARK    7  A    between atoms: N_14  and  C_15
REMARK    8  A    between atoms: C_21  and  C_22
REMARK                            x       y       z     vdW  Elec       q    Type
REMARK                         _______ _______ _______ _____ _____    ______ ____
ROOT
ATOM      1  C   UNL     1       1.837  14.313  19.167  0.00  0.00    +0.000 A 
ATOM      2  C   UNL     1       0.927  15.350  19.160  0.00  0.00    +0.000 A 
ATOM      3  S   UNL     1      -0.688  14.825  18.999  0.00  0.00    +0.000 S 
ATOM      4  C   UNL     1      -0.221  13.173  18.946  0.00  0.00    +0.000 A 
ATOM      5  C   UNL     1      -1.035  12.033  18.829  0.00  0.00    +0.000 A 
ATOM      6  N   UNL     1      -2.423  12.126  18.733  0.00  0.00    +0.000 N 
ATOM      7  N   UNL     1      -0.415  10.839  18.833  0.00  0.00    +0.000 NA
ATOM      8  C   UNL     1       0.933  10.783  18.930  0.00  0.00    +0.000 A 
ATOM      9  N   UNL     1       1.775  11.832  19.005  0.00  0.00    +0.000 NA
ATOM     10  C   UNL     1       1.163  13.042  19.029  0.00  0.00    +0.000 A 
ATOM     11  H   UNL     1      -2.761  13.069  18.566  0.00  0.00    +0.000 HD
ENDROOT
BRANCH   6  12
ATOM     12  C   UNL     1      -3.187  11.041  18.113  0.00  0.00    +0.000 C 
ATOM     13  C   UNL     1      -2.818  10.820  16.650  0.00  0.00    +0.000 C 
ATOM     14  C   UNL     1      -3.922  11.484  15.849  0.00  0.00    +0.000 C 
ATOM     15  N   UNL     1      -5.135  11.323  16.649  0.00  0.00    +0.000 NA
ATOM     16  C   UNL     1      -4.696  11.382  18.056  0.00  0.00    +0.000 C 
ATOM     17  H   UNL     1      -5.531  10.400  16.466  0.00  0.00    +0.000 HD
ENDBRANCH   6  12
BRANCH   8  18
ATOM     18  C   UNL     1       1.542   9.446  18.959  0.00  0.00    +0.000 A 
ATOM     19  C   UNL     1       2.243   8.940  17.854  0.00  0.00    +0.000 A 
ATOM     20  C   UNL     1       2.798   7.673  17.924  0.00  0.00    +0.000 A 
ATOM     21  N   UNL     1       2.712   6.878  19.008  0.00  0.00    +0.000 NA
ATOM     22  C   UNL     1       2.044   7.372  20.070  0.00  0.00    +0.000 A 
ATOM     23  C   UNL     1       1.453   8.625  20.093  0.00  0.00    +0.000 A 
ENDBRANCH   8  18
BRANCH   1  26
ATOM     24  C   UNL     1       3.991  15.290  18.484  0.00  0.00    +0.000 C 
ATOM     25  O   UNL     1       3.534  15.953  17.554  0.00  0.00    +0.000 OA
ATOM     26  N   UNL     1       3.223  14.469  19.298  0.00  0.00    +0.000 N 
ATOM     27  H   UNL     1       3.620  14.070  20.146  0.00  0.00    +0.000 HD
BRANCH  24  28
ATOM     28  C   UNL     1       5.498  15.363  18.817  0.00  0.00    +0.000 C 
ATOM     29  C   UNL     1       6.267  14.447  17.837  0.00  0.00    +0.000 C 
ATOM     30  C   UNL     1       5.726  14.822  20.240  0.00  0.00    +0.000 C 
BRANCH  28  32
ATOM     31  C   UNL     1       7.525  16.928  18.450  0.00  0.00    +0.000 C 
ATOM     32  C   UNL     1       6.028  16.814  18.722  0.00  0.00    +0.000 C 
ENDBRANCH  28  32
ENDBRANCH  24  28
ENDBRANCH   1  26
TORSDOF 5
ENDMDL
MODEL 6
REMARK VINA RESULT:      -6.2      0.873      1.241
REMARK  Name = 
REMARK  8 active torsions:
REMARK  status: ('A' for Active; 'I' for Inactive)
REMARK    1  A    between atoms: C_1  and  C_2
REMARK    2  A    between atoms: C_2  and  C_3
REMARK    3  A    between atoms: C_3  and  C_4
REMARK    4  A    between atoms: C_3  and  C_5
REMARK    5  A    between atoms: C_3  and  C_6
REMARK    6  A    between atoms: N_8  and  C_9
REMARK    7  A    between atoms: N_14  and  C_15
REMARK    8  A    between atoms: C_21  and  C_22
REMARK                            x       y       z     vdW  Elec       q    Type
REMARK                         _______ _______ _______ _____ _____    ______ ____
ROOT
ATOM      1  C   UNL     1       1.034   9.294  20.336  0.00  0.00    +0.000 A 
ATOM      2  C   UNL     1       1.345   9.566  21.653  0.00  0.00    +0.000 A 
ATOM      3  S   UNL     1       0.265  10.664  22.385  0.00  0.00    +0.000 S 
ATOM      4  C   UNL     1      -0.673  10.807  20.953  0.00  0.00    +0.000 A 
ATOM      5  C   UNL     1      -1.830  11.573  20.733  0.00  0.00    +0.000 A 
ATOM      6  N   UNL     1      -2.387  12.368  21.734  0.00  0.00    +0.000 N 
ATOM      7  N   UNL     1      -2.393  11.492  19.514  0.00  0.00    +0.000 NA
ATOM      8  C   UNL     1      -1.829  10.708  18.566  0.00  0.00    +0.000 A 
ATOM      9  N   UNL     1      -0.703   9.980  18.694  0.00  0.00    +0.000 NA
ATOM     10  C   UNL     1      -0.139  10.032  19.926  0.00  0.00    +0.000 A 
ATOM     11  H   UNL     1      -1.789  12.487  22.546  0.00  0.00    +0.000 HD
ENDROOT
BRANCH   6  12
ATOM     12  C   UNL     1      -3.232  13.510  21.375  0.00  0.00    +0.000 C 
ATOM     13  C   UNL     1      -2.591  14.850  21.725  0.00  0.00    +0.000 C 
ATOM     14  C   UNL     1      -3.265  15.298  23.008  0.00  0.00    +0.000 C 
ATOM     15  N   UNL     1      -4.635  14.792  22.928  0.00  0.00    +0.000 NA
ATOM     16  C   UNL     1      -4.545  13.515  22.195  0.00  0.00    +0.000 C 
ATOM     17  H   UNL     1      -5.197  15.446  22.381  0.00  0.00    +0.000 HD
ENDBRANCH   6  12
BRANCH   8  18
ATOM     18  C   UNL     1      -2.513  10.642  17.267  0.00  0.00    +0.000 A 
ATOM     19  C   UNL     1      -2.054   9.797  16.244  0.00  0.00    +0.000 A 
ATOM     20  C   UNL     1      -2.727   9.769  15.034  0.00  0.00    +0.000 A 
ATOM     21  N   UNL     1      -3.820  10.510  14.769  0.00  0.00    +0.000 NA
ATOM     22  C   UNL     1      -4.261  11.315  15.758  0.00  0.00    +0.000 A 
ATOM     23  C   UNL     1      -3.653  11.413  16.999  0.00  0.00    +0.000 A 
ENDBRANCH   8  18
BRANCH   1  26
ATOM     24  C   UNL     1       1.991   7.086  19.817  0.00  0.00    +0.000 C 
ATOM     25  O   UNL     1       1.609   6.541  20.851  0.00  0.00    +0.000 OA
ATOM     26  N   UNL     1       1.753   8.418  19.511  0.00  0.00    +0.000 N 
ATOM     27  H   UNL     1       1.952   8.776  18.579  0.00  0.00    +0.000 HD
BRANCH  24  28
ATOM     28  C   UNL     1       2.767   6.272  18.756  0.00  0.00    +0.000 C 
ATOM     29  C   UNL     1       3.950   5.556  19.447  0.00  0.00    +0.000 C 
ATOM     30  C   UNL     1       3.350   7.237  17.709  0.00  0.00    +0.000 C 
BRANCH  28  32
ATOM     31  C   UNL     1       2.570   3.998  17.538  0.00  0.00    +0.000 C 
ATOM     32  C   UNL     1       1.851   5.240  18.056  0.00  0.00    +0.000 C 
ENDBRANCH  28  32
ENDBRANCH  24  28
ENDBRANCH   1  26
TORSDOF 5
ENDMDL
MODEL 7
REMARK VINA RESULT:      -6.1      4.999      7.376
REMARK  Name = 
REMARK  8 active torsions:
REMARK  status: ('A' for Active; 'I' for Inactive)
REMARK    1  A    between atoms: C_1  and  C_2
REMARK    2  A    between atoms: C_2  and  C_3
REMARK    3  A    between atoms: C_3  and  C_4
REMARK    4  A    between atoms: C_3  and  C_5
REMARK    5  A    between atoms: C_3  and  C_6
REMARK    6  A    between atoms: N_8  and  C_9
REMARK    7  A    between atoms: N_14  and  C_15
REMARK    8  A    between atoms: C_21  and  C_22
REMARK                            x       y       z     vdW  Elec       q    Type
REMARK                         _______ _______ _______ _____ _____    ______ ____
ROOT
ATOM      1  C   UNL     1       1.923  14.315  19.040  0.00  0.00    +0.000 A 
ATOM      2  C   UNL     1       1.028  15.365  19.004  0.00  0.00    +0.000 A 
ATOM      3  S   UNL     1      -0.594  14.860  18.854  0.00  0.00    +0.000 S 
ATOM      4  C   UNL     1      -0.151  13.200  18.845  0.00  0.00    +0.000 A 
ATOM      5  C   UNL     1      -0.982  12.069  18.756  0.00  0.00    +0.000 A 
ATOM      6  N   UNL     1      -2.368  12.180  18.655  0.00  0.00    +0.000 N 
ATOM      7  N   UNL     1      -0.380  10.867  18.793  0.00  0.00    +0.000 NA
ATOM      8  C   UNL     1       0.968  10.794  18.894  0.00  0.00    +0.000 A 
ATOM      9  N   UNL     1       1.825  11.832  18.943  0.00  0.00    +0.000 NA
ATOM     10  C   UNL     1       1.231  13.051  18.934  0.00  0.00    +0.000 A 
ATOM     11  H   UNL     1      -2.692  13.123  18.463  0.00  0.00    +0.000 HD
ENDROOT
BRANCH   6  12
ATOM     12  C   UNL     1      -3.148  11.091  18.063  0.00  0.00    +0.000 C 
ATOM     13  C   UNL     1      -2.555  10.588  16.750  0.00  0.00    +0.000 C 
ATOM     14  C   UNL     1      -3.400  11.216  15.658  0.00  0.00    +0.000 C 
ATOM     15  N   UNL     1      -4.747  11.320  16.216  0.00  0.00    +0.000 NA
ATOM     16  C   UNL     1      -4.562  11.571  17.658  0.00  0.00    +0.000 C 
ATOM     17  H   UNL     1      -5.223  10.424  16.096  0.00  0.00    +0.000 HD
ENDBRANCH   6  12
BRANCH   8  18
ATOM     18  C   UNL     1       1.556   9.449  18.960  0.00  0.00    +0.000 A 
ATOM     19  C   UNL     1       1.443   8.659  20.114  0.00  0.00    +0.000 A 
ATOM     20  C   UNL     1       2.016   7.399  20.134  0.00  0.00    +0.000 A 
ATOM     21  N   UNL     1       2.686   6.866  19.094  0.00  0.00    +0.000 NA
ATOM     22  C   UNL     1       2.786   7.626  17.984  0.00  0.00    +0.000 A 
ATOM     23  C   UNL     1       2.249   8.899  17.872  0.00  0.00    +0.000 A 
ENDBRANCH   8  18
BRANCH   1  26
ATOM     24  C   UNL     1       4.059  15.415  18.504  0.00  0.00    +0.000 C 
ATOM     25  O   UNL     1       3.581  16.233  17.719  0.00  0.00    +0.000 OA
ATOM     26  N   UNL     1       3.311  14.454  19.170  0.00  0.00    +0.000 N 
ATOM     27  H   UNL     1       3.727  13.910  19.922  0.00  0.00    +0.000 HD
BRANCH  24  28
ATOM     28  C   UNL     1       5.573  15.436  18.814  0.00  0.00    +0.000 C 
ATOM     29  C   UNL     1       6.094  16.882  18.648  0.00  0.00    +0.000 C 
ATOM     30  C   UNL     1       6.309  14.552  17.792  0.00  0.00    +0.000 C 
BRANCH  28  32
ATOM     31  C   UNL     1       5.735  15.980  21.339  0.00  0.00    +0.000 C 
ATOM     32  C   UNL     1       5.862  14.923  20.246  0.00  0.00    +0.000 C 
ENDBRANCH  28  32
ENDBRANCH  24  28
ENDBRANCH   1  26
TORSDOF 5
ENDMDL
MODEL 8
REMARK VINA RESULT:      -6.1      4.593      5.725
REMARK  Name = 
REMARK  8 active torsions:
REMARK  status: ('A' for Active; 'I' for Inactive)
REMARK    1  A    between atoms: C_1  and  C_2
REMARK    2  A    between atoms: C_2  and  C_3
REMARK    3  A    between atoms: C_3  and  C_4
REMARK    4  A    between atoms: C_3  and  C_5
REMARK    5  A    between atoms: C_3  and  C_6
REMARK    6  A    between atoms: N_8  and  C_9
REMARK    7  A    between atoms: N_14  and  C_15
REMARK    8  A    between atoms: C_21  and  C_22
REMARK                            x       y       z     vdW  Elec       q    Type
REMARK                         _______ _______ _______ _____ _____    ______ ____
ROOT
ATOM      1  C   UNL     1      -0.358  14.717  21.662  0.00  0.00    +0.000 A 
ATOM      2  C   UNL     1      -0.384  15.173  22.964  0.00  0.00    +0.000 A 
ATOM      3  S   UNL     1      -1.817  14.761  23.791  0.00  0.00    +0.000 S 
ATOM      4  C   UNL     1      -2.455  13.939  22.424  0.00  0.00    +0.000 A 
ATOM      5  C   UNL     1      -3.682  13.265  22.297  0.00  0.00    +0.000 A 
ATOM      6  N   UNL     1      -4.590  13.184  23.351  0.00  0.00    +0.000 N 
ATOM      7  N   UNL     1      -3.935  12.679  21.112  0.00  0.00    +0.000 NA
ATOM      8  C   UNL     1      -3.031  12.774  20.110  0.00  0.00    +0.000 A 
ATOM      9  N   UNL     1      -1.857  13.435  20.149  0.00  0.00    +0.000 NA
ATOM     10  C   UNL     1      -1.576  14.008  21.345  0.00  0.00    +0.000 A 
ATOM     11  H   UNL     1      -4.374  13.802  24.128  0.00  0.00    +0.000 HD
ENDROOT
BRANCH   6  12
ATOM     12  C   UNL     1      -6.011  12.956  23.076  0.00  0.00    +0.000 C 
ATOM     13  C   UNL     1      -6.743  14.229  22.662  0.00  0.00    +0.000 C 
ATOM     14  C   UNL     1      -7.493  14.685  23.900  0.00  0.00    +0.000 C 
ATOM     15  N   UNL     1      -7.860  13.459  24.608  0.00  0.00    +0.000 NA
ATOM     16  C   UNL     1      -6.762  12.507  24.353  0.00  0.00    +0.000 C 
ATOM     17  H   UNL     1      -8.719  13.088  24.201  0.00  0.00    +0.000 HD
ENDBRANCH   6  12
BRANCH   8  18
ATOM     18  C   UNL     1      -3.358  12.085  18.853  0.00  0.00    +0.000 A 
ATOM     19  C   UNL     1      -4.689  11.850  18.477  0.00  0.00    +0.000 A 
ATOM     20  C   UNL     1      -4.952  11.194  17.286  0.00  0.00    +0.000 A 
ATOM     21  N   UNL     1      -3.994  10.762  16.443  0.00  0.00    +0.000 NA
ATOM     22  C   UNL     1      -2.716  10.998  16.806  0.00  0.00    +0.000 A 
ATOM     23  C   UNL     1      -2.355  11.642  17.978  0.00  0.00    +0.000 A 
ENDBRANCH   8  18
BRANCH   1  26
ATOM     24  C   UNL     1       1.697  13.968  20.531  0.00  0.00    +0.000 C 
ATOM     25  O   UNL     1       1.750  12.873  21.089  0.00  0.00    +0.000 OA
ATOM     26  N   UNL     1       0.707  14.910  20.771  0.00  0.00    +0.000 N 
ATOM     27  H   UNL     1       0.619  15.729  20.172  0.00  0.00    +0.000 HD
BRANCH  24  28
ATOM     28  C   UNL     1       2.761  14.352  19.478  0.00  0.00    +0.000 C 
ATOM     29  C   UNL     1       2.909  13.185  18.474  0.00  0.00    +0.000 C 
ATOM     30  C   UNL     1       4.117  14.543  20.178  0.00  0.00    +0.000 C 
BRANCH  28  32
ATOM     31  C   UNL     1       3.546  16.574  18.410  0.00  0.00    +0.000 C 
ATOM     32  C   UNL     1       2.374  15.653  18.733  0.00  0.00    +0.000 C 
ENDBRANCH  28  32
ENDBRANCH  24  28
ENDBRANCH   1  26
TORSDOF 5
ENDMDL
MODEL 9
REMARK VINA RESULT:      -6.0      4.756      8.891
REMARK  Name = 
REMARK  8 active torsions:
REMARK  status: ('A' for Active; 'I' for Inactive)
REMARK    1  A    between atoms: C_1  and  C_2
REMARK    2  A    between atoms: C_2  and  C_3
REMARK    3  A    between atoms: C_3  and  C_4
REMARK    4  A    between atoms: C_3  and  C_5
REMARK    5  A    between atoms: C_3  and  C_6
REMARK    6  A    between atoms: N_8  and  C_9
REMARK    7  A    between atoms: N_14  and  C_15
REMARK    8  A    between atoms: C_21  and  C_22
REMARK                            x       y       z     vdW  Elec       q    Type
REMARK                         _______ _______ _______ _____ _____    ______ ____
ROOT
ATOM      1  C   UNL     1      -0.964  14.735  22.239  0.00  0.00    +0.000 A 
ATOM      2  C   UNL     1       0.062  14.805  21.319  0.00  0.00    +0.000 A 
ATOM      3  S   UNL     1      -0.278  13.973  19.870  0.00  0.00    +0.000 S 
ATOM      4  C   UNL     1      -1.832  13.495  20.424  0.00  0.00    +0.000 A 
ATOM      5  C   UNL     1      -2.810  12.739  19.756  0.00  0.00    +0.000 A 
ATOM      6  N   UNL     1      -2.608  12.252  18.465  0.00  0.00    +0.000 N 
ATOM      7  N   UNL     1      -3.964  12.520  20.410  0.00  0.00    +0.000 NA
ATOM      8  C   UNL     1      -4.129  13.009  21.661  0.00  0.00    +0.000 A 
ATOM      9  N   UNL     1      -3.224  13.706  22.375  0.00  0.00    +0.000 NA
ATOM     10  C   UNL     1      -2.065  13.957  21.718  0.00  0.00    +0.000 A 
ATOM     11  H   UNL     1      -1.648  12.327  18.142  0.00  0.00    +0.000 HD
ENDROOT
BRANCH   6  12
ATOM     12  C   UNL     1      -3.362  11.085  17.997  0.00  0.00    +0.000 C 
ATOM     13  C   UNL     1      -2.460   9.978  17.461  0.00  0.00    +0.000 C 
ATOM     14  C   UNL     1      -2.530  10.096  15.950  0.00  0.00    +0.000 C 
ATOM     15  N   UNL     1      -3.882  10.568  15.656  0.00  0.00    +0.000 NA
ATOM     16  C   UNL     1      -4.252  11.445  16.783  0.00  0.00    +0.000 C 
ATOM     17  H   UNL     1      -4.515   9.766  15.642  0.00  0.00    +0.000 HD
ENDBRANCH   6  12
BRANCH   8  18
ATOM     18  C   UNL     1      -5.426  12.759  22.306  0.00  0.00    +0.000 A 
ATOM     19  C   UNL     1      -5.603  12.949  23.685  0.00  0.00    +0.000 A 
ATOM     20  C   UNL     1      -6.842  12.698  24.251  0.00  0.00    +0.000 A 
ATOM     21  N   UNL     1      -7.913  12.278  23.551  0.00  0.00    +0.000 NA
ATOM     22  C   UNL     1      -7.739  12.105  22.225  0.00  0.00    +0.000 A 
ATOM     23  C   UNL     1      -6.539  12.326  21.570  0.00  0.00    +0.000 A 
ENDBRANCH   8  18
BRANCH   1  26
ATOM     24  C   UNL     1      -1.223  16.681  23.725  0.00  0.00    +0.000 C 
ATOM     25  O   UNL     1      -1.500  17.480  22.831  0.00  0.00    +0.000 OA
ATOM     26  N   UNL     1      -0.945  15.340  23.503  0.00  0.00    +0.000 N 
ATOM     27  H   UNL     1      -0.878  14.693  24.286  0.00  0.00    +0.000 HD
BRANCH  24  28
ATOM     28  C   UNL     1      -1.194  17.149  25.197  0.00  0.00    +0.000 C 
ATOM     29  C   UNL     1      -1.052  15.907  26.109  0.00  0.00    +0.000 C 
ATOM     30  C   UNL     1      -2.532  17.829  25.537  0.00  0.00    +0.000 C 
BRANCH  28  32
ATOM     31  C   UNL     1       1.358  17.502  25.444  0.00  0.00    +0.000 C 
ATOM     32  C   UNL     1      -0.030  18.136  25.453  0.00  0.00    +0.000 C 
ENDBRANCH  28  32
ENDBRANCH  24  28
ENDBRANCH   1  26
TORSDOF 5
ENDMDL
