MODEL 1
REMARK VINA RESULT:      -7.6      0.000      0.000
REMARK  Name = 
REMARK  17 active torsions:
REMARK  status: ('A' for Active; 'I' for Inactive)
REMARK    1  A    between atoms: C_2  and  C_3
REMARK    2  A    between atoms: C_3  and  N_4
REMARK    3  A    between atoms: N_4  and  C_5
REMARK    4  A    between atoms: N_4  and  C_13
REMARK    5  A    between atoms: C_5  and  C_6
REMARK    6  A    between atoms: C_16  and  N_17
REMARK    7  A    between atoms: C_18  and  O_20
REMARK    8  A    between atoms: O_20  and  C_21
REMARK    9  A    between atoms: C_21  and  C_22
REMARK   10  A    between atoms: C_22  and  C_23
REMARK   11  A    between atoms: C_22  and  C_24
REMARK   12  A    between atoms: C_25  and  N_26
REMARK   13  A    between atoms: C_27  and  O_29
REMARK   14  A    between atoms: O_29  and  C_30
REMARK   15  A    between atoms: C_30  and  C_31
REMARK   16  A    between atoms: C_31  and  C_32
REMARK   17  A    between atoms: C_31  and  C_33
REMARK                            x       y       z     vdW  Elec       q    Type
REMARK                         _______ _______ _______ _____ _____    ______ ____
ROOT
ATOM      1  C   UNL     1       0.597   9.679  19.845  0.00  0.00    +0.000 A 
ATOM      2  C   UNL     1       0.286   9.087  21.067  0.00  0.00    +0.000 A 
ATOM      3  C   UNL     1       0.840   7.856  21.436  0.00  0.00    +0.000 A 
ATOM      4  C   UNL     1       1.743   7.178  20.607  0.00  0.00    +0.000 A 
ATOM      5  C   UNL     1       2.103   7.785  19.384  0.00  0.00    +0.000 A 
ATOM      6  C   UNL     1       1.493   8.999  19.012  0.00  0.00    +0.000 A 
ENDROOT
BRANCH   4   7
ATOM      7  N   UNL     1       2.258   5.919  20.993  0.00  0.00    +0.000 N 
ATOM      8  C   UNL     1       1.638   4.702  20.971  0.00  0.00    +0.000 C 
ATOM      9  O   UNL     1       0.567   4.409  20.455  0.00  0.00    +0.000 OA
ATOM     10  H   UNL     1       3.140   5.918  21.495  0.00  0.00    +0.000 HD
BRANCH   8  11
ATOM     11  O   UNL     1       2.369   3.817  21.705  0.00  0.00    +0.000 OA
BRANCH  11  12
ATOM     12  C   UNL     1       2.534   2.550  21.057  0.00  0.00    +0.000 C 
BRANCH  12  13
ATOM     13  C   UNL     1       3.482   2.565  19.850  0.00  0.00    +0.000 C 
ATOM     14  C   UNL     1       4.810   1.870  20.145  0.00  0.00    +0.000 C 
ATOM     15  C   UNL     1       2.781   1.872  18.677  0.00  0.00    +0.000 C 
ENDBRANCH  12  13
ENDBRANCH  11  12
ENDBRANCH   8  11
ENDBRANCH   4   7
BRANCH   5  16
ATOM     16  N   UNL     1       3.036   7.299  18.440  0.00  0.00    +0.000 N 
ATOM     17  C   UNL     1       2.985   6.130  17.749  0.00  0.00    +0.000 C 
ATOM     18  O   UNL     1       2.070   5.318  17.753  0.00  0.00    +0.000 OA
ATOM     19  H   UNL     1       3.977   7.670  18.486  0.00  0.00    +0.000 HD
BRANCH  17  20
ATOM     20  O   UNL     1       4.176   5.950  17.123  0.00  0.00    +0.000 OA
BRANCH  20  21
ATOM     21  C   UNL     1       4.872   4.744  17.463  0.00  0.00    +0.000 C 
BRANCH  21  22
ATOM     22  C   UNL     1       5.889   4.287  16.409  0.00  0.00    +0.000 C 
ATOM     23  C   UNL     1       5.636   4.947  15.055  0.00  0.00    +0.000 C 
ATOM     24  C   UNL     1       7.301   4.582  16.910  0.00  0.00    +0.000 C 
ENDBRANCH  21  22
ENDBRANCH  20  21
ENDBRANCH  17  20
ENDBRANCH   5  16
BRANCH   1  25
ATOM     25  N   UNL     1       0.090  10.918  19.411  0.00  0.00    +0.000 N 
BRANCH  25  26
ATOM     26  C   UNL     1       0.834  12.128  19.810  0.00  0.00    +0.000 C 
BRANCH  26  28
ATOM     27  C   UNL     1       2.608  12.804  17.928  0.00  0.00    +0.000 C 
ATOM     28  C   UNL     1       1.826  12.497  18.784  0.00  0.00    +0.000 C 
ENDBRANCH  26  28
ENDBRANCH  25  26
BRANCH  25  29
ATOM     29  C   UNL     1      -1.378  10.995  19.556  0.00  0.00    +0.000 C 
BRANCH  29  30
ATOM     30  C   UNL     1      -2.147  10.886  18.246  0.00  0.00    +0.000 A 
ATOM     31  C   UNL     1      -3.350  11.562  17.991  0.00  0.00    +0.000 A 
ATOM     32  C   UNL     1      -4.047  11.347  16.798  0.00  0.00    +0.000 A 
ATOM     33  C   UNL     1      -3.537  10.474  15.846  0.00  0.00    +0.000 A 
ATOM     34  F   UNL     1      -4.223  10.243  14.721  0.00  0.00    +0.000 F 
ATOM     35  C   UNL     1      -2.321   9.836  16.048  0.00  0.00    +0.000 A 
ATOM     36  C   UNL     1      -1.628  10.043  17.242  0.00  0.00    +0.000 A 
ENDBRANCH  29  30
ENDBRANCH  25  29
ENDBRANCH   1  25
TORSDOF 13
ENDMDL
MODEL 2
REMARK VINA RESULT:      -7.6      3.628      9.272
REMARK  Name = 
REMARK  17 active torsions:
REMARK  status: ('A' for Active; 'I' for Inactive)
REMARK    1  A    between atoms: C_2  and  C_3
REMARK    2  A    between atoms: C_3  and  N_4
REMARK    3  A    between atoms: N_4  and  C_5
REMARK    4  A    between atoms: N_4  and  C_13
REMARK    5  A    between atoms: C_5  and  C_6
REMARK    6  A    between atoms: C_16  and  N_17
REMARK    7  A    between atoms: C_18  and  O_20
REMARK    8  A    between atoms: O_20  and  C_21
REMARK    9  A    between atoms: C_21  and  C_22
REMARK   10  A    between atoms: C_22  and  C_23
REMARK   11  A    between atoms: C_22  and  C_24
REMARK   12  A    between atoms: C_25  and  N_26
REMARK   13  A    between atoms: C_27  and  O_29
REMARK   14  A    between atoms: O_29  and  C_30
REMARK   15  A    between atoms: C_30  and  C_31
REMARK   16  A    between atoms: C_31  and  C_32
REMARK   17  A    between atoms: C_31  and  C_33
REMARK                            x       y       z     vdW  Elec       q    Type
REMARK                         _______ _______ _______ _____ _____    ______ ____
ROOT
ATOM      1  C   UNL     1       2.225   6.880  19.193  0.00  0.00    +0.000 A 
ATOM      2  C   UNL     1       2.306   7.539  17.969  0.00  0.00    +0.000 A 
ATOM      3  C   UNL     1       1.925   8.880  17.843  0.00  0.00    +0.000 A 
ATOM      4  C   UNL     1       1.466   9.620  18.940  0.00  0.00    +0.000 A 
ATOM      5  C   UNL     1       1.419   8.980  20.198  0.00  0.00    +0.000 A 
ATOM      6  C   UNL     1       1.760   7.616  20.289  0.00  0.00    +0.000 A 
ENDROOT
BRANCH   4   7
ATOM      7  N   UNL     1       1.055  10.962  18.774  0.00  0.00    +0.000 N 
ATOM      8  C   UNL     1      -0.215  11.464  18.721  0.00  0.00    +0.000 C 
ATOM      9  O   UNL     1      -1.265  10.889  18.978  0.00  0.00    +0.000 OA
ATOM     10  H   UNL     1       1.769  11.632  18.503  0.00  0.00    +0.000 HD
BRANCH   8  11
ATOM     11  O   UNL     1      -0.170  12.740  18.246  0.00  0.00    +0.000 OA
BRANCH  11  12
ATOM     12  C   UNL     1       1.112  13.357  18.415  0.00  0.00    +0.000 C 
BRANCH  12  13
ATOM     13  C   UNL     1       1.082  14.718  19.121  0.00  0.00    +0.000 C 
ATOM     14  C   UNL     1       2.090  15.702  18.532  0.00  0.00    +0.000 C 
ATOM     15  C   UNL     1      -0.335  15.292  19.005  0.00  0.00    +0.000 C 
ENDBRANCH  12  13
ENDBRANCH  11  12
ENDBRANCH   8  11
ENDBRANCH   4   7
BRANCH   5  16
ATOM     16  N   UNL     1       1.048   9.562  21.431  0.00  0.00    +0.000 N 
ATOM     17  C   UNL     1      -0.035   9.265  22.197  0.00  0.00    +0.000 C 
ATOM     18  O   UNL     1      -0.846   8.371  21.999  0.00  0.00    +0.000 OA
ATOM     19  H   UNL     1       1.416  10.483  21.637  0.00  0.00    +0.000 HD
BRANCH  17  20
ATOM     20  O   UNL     1      -0.137  10.200  23.175  0.00  0.00    +0.000 OA
BRANCH  20  21
ATOM     21  C   UNL     1      -1.393  10.890  23.235  0.00  0.00    +0.000 C 
BRANCH  21  22
ATOM     22  C   UNL     1      -1.272  12.419  23.169  0.00  0.00    +0.000 C 
ATOM     23  C   UNL     1      -0.405  12.869  21.995  0.00  0.00    +0.000 C 
ATOM     24  C   UNL     1      -2.668  13.032  23.090  0.00  0.00    +0.000 C 
ENDBRANCH  21  22
ENDBRANCH  20  21
ENDBRANCH  17  20
ENDBRANCH   5  16
BRANCH   1  25
ATOM     25  N   UNL     1       2.602   5.539  19.399  0.00  0.00    +0.000 N 
BRANCH  25  26
ATOM     26  C   UNL     1       1.716   4.712  20.241  0.00  0.00    +0.000 C 
BRANCH  26  28
ATOM     27  C   UNL     1       0.891   2.564  18.880  0.00  0.00    +0.000 C 
ATOM     28  C   UNL     1       1.248   3.526  19.502  0.00  0.00    +0.000 C 
ENDBRANCH  26  28
ENDBRANCH  25  26
BRANCH  25  29
ATOM     29  C   UNL     1       4.048   5.409  19.671  0.00  0.00    +0.000 C 
BRANCH  29  30
ATOM     30  C   UNL     1       4.882   5.011  18.461  0.00  0.00    +0.000 A 
ATOM     31  C   UNL     1       6.260   5.252  18.353  0.00  0.00    +0.000 A 
ATOM     32  C   UNL     1       6.946   4.939  17.175  0.00  0.00    +0.000 A 
ATOM     33  C   UNL     1       6.266   4.365  16.109  0.00  0.00    +0.000 A 
ATOM     34  F   UNL     1       6.917   4.099  14.971  0.00  0.00    +0.000 F 
ATOM     35  C   UNL     1       4.914   4.064  16.210  0.00  0.00    +0.000 A 
ATOM     36  C   UNL     1       4.226   4.384  17.382  0.00  0.00    +0.000 A 
ENDBRANCH  29  30
ENDBRANCH  25  29
ENDBRANCH   1  25
TORSDOF 13
ENDMDL
MODEL 3
REMARK VINA RESULT:      -7.5      1.701      2.502
REMARK  Name = 
REMARK  17 active torsions:
REMARK  status: ('A' for Active; 'I' for Inactive)
REMARK    1  A    between atoms: C_2  and  C_3
REMARK    2  A    between atoms: C_3  and  N_4
REMARK    3  A    between atoms: N_4  and  C_5
REMARK    4  A    between atoms: N_4  and  C_13
REMARK    5  A    between atoms: C_5  and  C_6
REMARK    6  A    between atoms: C_16  and  N_17
REMARK    7  A    between atoms: C_18  and  O_20
REMARK    8  A    between atoms: O_20  and  C_21
REMARK    9  A    between atoms: C_21  and  C_22
REMARK   10  A    between atoms: C_22  and  C_23
REMARK   11  A    between atoms: C_22  and  C_24
REMARK   12  A    between atoms: C_25  and  N_26
REMARK   13  A    between atoms: C_27  and  O_29
REMARK   14  A    between atoms: O_29  and  C_30
REMARK   15  A    between atoms: C_30  and  C_31
REMARK   16  A    between atoms: C_31  and  C_32
REMARK   17  A    between atoms: C_31  and  C_33
REMARK                            x       y       z     vdW  Elec       q    Type
REMARK                         _______ _______ _______ _____ _____    ______ ____
ROOT
ATOM      1  C   UNL     1       1.943   8.929  18.522  0.00  0.00    +0.000 A 
ATOM      2  C   UNL     1       1.654   8.232  19.693  0.00  0.00    +0.000 A 
ATOM      3  C   UNL     1       2.193   6.963  19.931  0.00  0.00    +0.000 A 
ATOM      4  C   UNL     1       3.059   6.349  19.018  0.00  0.00    +0.000 A 
ATOM      5  C   UNL     1       3.397   7.060  17.846  0.00  0.00    +0.000 A 
ATOM      6  C   UNL     1       2.802   8.313  17.604  0.00  0.00    +0.000 A 
ENDROOT
BRANCH   4   7
ATOM      7  N   UNL     1       3.559   5.051  19.270  0.00  0.00    +0.000 N 
ATOM      8  C   UNL     1       3.501   3.945  18.470  0.00  0.00    +0.000 C 
ATOM      9  O   UNL     1       3.160   3.880  17.296  0.00  0.00    +0.000 OA
ATOM     10  H   UNL     1       3.865   4.853  20.218  0.00  0.00    +0.000 HD
BRANCH   8  11
ATOM     11  O   UNL     1       3.820   2.845  19.208  0.00  0.00    +0.000 OA
BRANCH  11  12
ATOM     12  C   UNL     1       2.742   1.909  19.317  0.00  0.00    +0.000 C 
BRANCH  12  13
ATOM     13  C   UNL     1       1.765   2.186  20.467  0.00  0.00    +0.000 C 
ATOM     14  C   UNL     1       2.457   2.797  21.684  0.00  0.00    +0.000 C 
ATOM     15  C   UNL     1       0.675   3.136  19.957  0.00  0.00    +0.000 C 
ENDBRANCH  12  13
ENDBRANCH  11  12
ENDBRANCH   8  11
ENDBRANCH   4   7
BRANCH   5  16
ATOM     16  N   UNL     1       4.294   6.647  16.834  0.00  0.00    +0.000 N 
ATOM     17  C   UNL     1       5.648   6.754  16.830  0.00  0.00    +0.000 C 
ATOM     18  O   UNL     1       6.352   7.153  17.748  0.00  0.00    +0.000 OA
ATOM     19  H   UNL     1       3.920   6.545  15.897  0.00  0.00    +0.000 HD
BRANCH  17  20
ATOM     20  O   UNL     1       6.099   6.444  15.587  0.00  0.00    +0.000 OA
BRANCH  20  21
ATOM     21  C   UNL     1       5.503   5.286  14.989  0.00  0.00    +0.000 C 
BRANCH  21  22
ATOM     22  C   UNL     1       6.488   4.404  14.209  0.00  0.00    +0.000 C 
ATOM     23  C   UNL     1       5.786   3.596  13.121  0.00  0.00    +0.000 C 
ATOM     24  C   UNL     1       7.590   5.281  13.620  0.00  0.00    +0.000 C 
ENDBRANCH  21  22
ENDBRANCH  20  21
ENDBRANCH  17  20
ENDBRANCH   5  16
BRANCH   1  25
ATOM     25  N   UNL     1       1.449  10.212  18.220  0.00  0.00    +0.000 N 
BRANCH  25  26
ATOM     26  C   UNL     1       2.441  11.268  17.940  0.00  0.00    +0.000 C 
BRANCH  26  28
ATOM     27  C   UNL     1       1.521  13.673  18.657  0.00  0.00    +0.000 C 
ATOM     28  C   UNL     1       1.932  12.588  18.352  0.00  0.00    +0.000 C 
ENDBRANCH  26  28
ENDBRANCH  25  26
BRANCH  25  29
ATOM     29  C   UNL     1       0.337  10.600  19.113  0.00  0.00    +0.000 C 
BRANCH  29  30
ATOM     30  C   UNL     1      -1.034  10.590  18.451  0.00  0.00    +0.000 A 
ATOM     31  C   UNL     1      -1.362   9.785  17.350  0.00  0.00    +0.000 A 
ATOM     32  C   UNL     1      -2.615   9.892  16.739  0.00  0.00    +0.000 A 
ATOM     33  C   UNL     1      -3.553  10.787  17.236  0.00  0.00    +0.000 A 
ATOM     34  F   UNL     1      -4.738  10.914  16.627  0.00  0.00    +0.000 F 
ATOM     35  C   UNL     1      -3.276  11.556  18.358  0.00  0.00    +0.000 A 
ATOM     36  C   UNL     1      -2.023  11.455  18.965  0.00  0.00    +0.000 A 
ENDBRANCH  29  30
ENDBRANCH  25  29
ENDBRANCH   1  25
TORSDOF 13
ENDMDL
MODEL 4
REMARK VINA RESULT:      -7.3      1.893      4.791
REMARK  Name = 
REMARK  17 active torsions:
REMARK  status: ('A' for Active; 'I' for Inactive)
REMARK    1  A    between atoms: C_2  and  C_3
REMARK    2  A    between atoms: C_3  and  N_4
REMARK    3  A    between atoms: N_4  and  C_5
REMARK    4  A    between atoms: N_4  and  C_13
REMARK    5  A    between atoms: C_5  and  C_6
REMARK    6  A    between atoms: C_16  and  N_17
REMARK    7  A    between atoms: C_18  and  O_20
REMARK    8  A    between atoms: O_20  and  C_21
REMARK    9  A    between atoms: C_21  and  C_22
REMARK   10  A    between atoms: C_22  and  C_23
REMARK   11  A    between atoms: C_22  and  C_24
REMARK   12  A    between atoms: C_25  and  N_26
REMARK   13  A    between atoms: C_27  and  O_29
REMARK   14  A    between atoms: O_29  and  C_30
REMARK   15  A    between atoms: C_30  and  C_31
REMARK   16  A    between atoms: C_31  and  C_32
REMARK   17  A    between atoms: C_31  and  C_33
REMARK                            x       y       z     vdW  Elec       q    Type
REMARK                         _______ _______ _______ _____ _____    ______ ____
ROOT
ATOM      1  C   UNL     1       1.834   8.466  19.409  0.00  0.00    +0.000 A 
ATOM      2  C   UNL     1       2.220   8.799  18.113  0.00  0.00    +0.000 A 
ATOM      3  C   UNL     1       2.948   7.903  17.323  0.00  0.00    +0.000 A 
ATOM      4  C   UNL     1       3.302   6.631  17.790  0.00  0.00    +0.000 A 
ATOM      5  C   UNL     1       2.881   6.261  19.086  0.00  0.00    +0.000 A 
ATOM      6  C   UNL     1       2.194   7.198  19.881  0.00  0.00    +0.000 A 
ENDROOT
BRANCH   4   7
ATOM      7  N   UNL     1       4.068   5.761  16.981  0.00  0.00    +0.000 N 
ATOM      8  C   UNL     1       5.247   6.014  16.336  0.00  0.00    +0.000 C 
ATOM      9  O   UNL     1       5.979   6.987  16.458  0.00  0.00    +0.000 OA
ATOM     10  H   UNL     1       3.632   4.887  16.704  0.00  0.00    +0.000 HD
BRANCH   8  11
ATOM     11  O   UNL     1       5.480   5.023  15.431  0.00  0.00    +0.000 OA
BRANCH  11  12
ATOM     12  C   UNL     1       6.800   5.068  14.876  0.00  0.00    +0.000 C 
BRANCH  12  13
ATOM     13  C   UNL     1       6.985   4.244  13.595  0.00  0.00    +0.000 C 
ATOM     14  C   UNL     1       5.661   3.717  13.045  0.00  0.00    +0.000 C 
ATOM     15  C   UNL     1       7.670   5.129  12.547  0.00  0.00    +0.000 C 
ENDBRANCH  12  13
ENDBRANCH  11  12
ENDBRANCH   8  11
ENDBRANCH   4   7
BRANCH   5  16
ATOM     16  N   UNL     1       3.081   5.011  19.717  0.00  0.00    +0.000 N 
ATOM     17  C   UNL     1       4.241   4.312  19.825  0.00  0.00    +0.000 C 
ATOM     18  O   UNL     1       5.352   4.680  19.468  0.00  0.00    +0.000 OA
ATOM     19  H   UNL     1       2.269   4.417  19.835  0.00  0.00    +0.000 HD
BRANCH  17  20
ATOM     20  O   UNL     1       3.952   3.075  20.303  0.00  0.00    +0.000 OA
BRANCH  20  21
ATOM     21  C   UNL     1       2.556   2.789  20.464  0.00  0.00    +0.000 C 
BRANCH  21  22
ATOM     22  C   UNL     1       1.965   1.907  19.355  0.00  0.00    +0.000 C 
ATOM     23  C   UNL     1       0.744   2.556  18.707  0.00  0.00    +0.000 C 
ATOM     24  C   UNL     1       3.046   1.609  18.319  0.00  0.00    +0.000 C 
ENDBRANCH  21  22
ENDBRANCH  20  21
ENDBRANCH  17  20
ENDBRANCH   5  16
BRANCH   1  25
ATOM     25  N   UNL     1       1.091   9.309  20.257  0.00  0.00    +0.000 N 
BRANCH  25  26
ATOM     26  C   UNL     1      -0.054   8.710  20.970  0.00  0.00    +0.000 C 
BRANCH  26  28
ATOM     27  C   UNL     1      -0.288   9.770  23.412  0.00  0.00    +0.000 C 
ATOM     28  C   UNL     1      -0.186   9.278  22.323  0.00  0.00    +0.000 C 
ENDBRANCH  26  28
ENDBRANCH  25  26
BRANCH  25  29
ATOM     29  C   UNL     1       0.840  10.628  19.641  0.00  0.00    +0.000 C 
BRANCH  29  30
ATOM     30  C   UNL     1      -0.580  10.824  19.127  0.00  0.00    +0.000 A 
ATOM     31  C   UNL     1      -1.102  10.155  18.010  0.00  0.00    +0.000 A 
ATOM     32  C   UNL     1      -2.386  10.449  17.542  0.00  0.00    +0.000 A 
ATOM     33  C   UNL     1      -3.163  11.395  18.197  0.00  0.00    +0.000 A 
ATOM     34  F   UNL     1      -4.377  11.701  17.726  0.00  0.00    +0.000 F 
ATOM     35  C   UNL     1      -2.692  12.032  19.338  0.00  0.00    +0.000 A 
ATOM     36  C   UNL     1      -1.407  11.745  19.802  0.00  0.00    +0.000 A 
ENDBRANCH  29  30
ENDBRANCH  25  29
ENDBRANCH   1  25
TORSDOF 13
ENDMDL
MODEL 5
REMARK VINA RESULT:      -7.3      3.836      9.354
REMARK  Name = 
REMARK  17 active torsions:
REMARK  status: ('A' for Active; 'I' for Inactive)
REMARK    1  A    between atoms: C_2  and  C_3
REMARK    2  A    between atoms: C_3  and  N_4
REMARK    3  A    between atoms: N_4  and  C_5
REMARK    4  A    between atoms: N_4  and  C_13
REMARK    5  A    between atoms: C_5  and  C_6
REMARK    6  A    between atoms: C_16  and  N_17
REMARK    7  A    between atoms: C_18  and  O_20
REMARK    8  A    between atoms: O_20  and  C_21
REMARK    9  A    between atoms: C_21  and  C_22
REMARK   10  A    between atoms: C_22  and  C_23
REMARK   11  A    between atoms: C_22  and  C_24
REMARK   12  A    between atoms: C_25  and  N_26
REMARK   13  A    between atoms: C_27  and  O_29
REMARK   14  A    between atoms: O_29  and  C_30
REMARK   15  A    between atoms: C_30  and  C_31
REMARK   16  A    between atoms: C_31  and  C_32
REMARK   17  A    between atoms: C_31  and  C_33
REMARK                            x       y       z     vdW  Elec       q    Type
REMARK                         _______ _______ _______ _____ _____    ______ ____
ROOT
ATOM      1  C   UNL     1       2.297   6.933  19.117  0.00  0.00    +0.000 A 
ATOM      2  C   UNL     1       2.301   7.566  17.876  0.00  0.00    +0.000 A 
ATOM      3  C   UNL     1       1.853   8.884  17.736  0.00  0.00    +0.000 A 
ATOM      4  C   UNL     1       1.404   9.629  18.835  0.00  0.00    +0.000 A 
ATOM      5  C   UNL     1       1.436   9.017  20.107  0.00  0.00    +0.000 A 
ATOM      6  C   UNL     1       1.842   7.673  20.214  0.00  0.00    +0.000 A 
ENDROOT
BRANCH   4   7
ATOM      7  N   UNL     1       0.925  10.947  18.656  0.00  0.00    +0.000 N 
ATOM      8  C   UNL     1       1.640  12.089  18.426  0.00  0.00    +0.000 C 
ATOM      9  O   UNL     1       2.829  12.194  18.155  0.00  0.00    +0.000 OA
ATOM     10  H   UNL     1      -0.052  11.115  18.875  0.00  0.00    +0.000 HD
BRANCH   8  11
ATOM     11  O   UNL     1       0.830  13.167  18.623  0.00  0.00    +0.000 OA
BRANCH  11  12
ATOM     12  C   UNL     1       1.533  14.414  18.577  0.00  0.00    +0.000 C 
BRANCH  12  13
ATOM     13  C   UNL     1       1.454  15.243  19.866  0.00  0.00    +0.000 C 
ATOM     14  C   UNL     1       2.571  14.897  20.850  0.00  0.00    +0.000 C 
ATOM     15  C   UNL     1       1.532  16.727  19.492  0.00  0.00    +0.000 C 
ENDBRANCH  12  13
ENDBRANCH  11  12
ENDBRANCH   8  11
ENDBRANCH   4   7
BRANCH   5  16
ATOM     16  N   UNL     1       1.085   9.611  21.341  0.00  0.00    +0.000 N 
ATOM     17  C   UNL     1       0.042   9.291  22.150  0.00  0.00    +0.000 C 
ATOM     18  O   UNL     1      -0.743   8.364  21.998  0.00  0.00    +0.000 OA
ATOM     19  H   UNL     1       1.426  10.548  21.517  0.00  0.00    +0.000 HD
BRANCH  17  20
ATOM     20  O   UNL     1      -0.061  10.242  23.113  0.00  0.00    +0.000 OA
BRANCH  20  21
ATOM     21  C   UNL     1      -1.340  10.882  23.209  0.00  0.00    +0.000 C 
BRANCH  21  22
ATOM     22  C   UNL     1      -1.289  12.410  23.073  0.00  0.00    +0.000 C 
ATOM     23  C   UNL     1      -0.420  12.845  21.894  0.00  0.00    +0.000 C 
ATOM     24  C   UNL     1      -2.709  12.953  22.940  0.00  0.00    +0.000 C 
ENDBRANCH  21  22
ENDBRANCH  20  21
ENDBRANCH  17  20
ENDBRANCH   5  16
BRANCH   1  25
ATOM     25  N   UNL     1       2.743   5.616  19.337  0.00  0.00    +0.000 N 
BRANCH  25  26
ATOM     26  C   UNL     1       1.963   4.787  20.276  0.00  0.00    +0.000 C 
BRANCH  26  28
ATOM     27  C   UNL     1       0.935   2.673  19.006  0.00  0.00    +0.000 C 
ATOM     28  C   UNL     1       1.389   3.616  19.591  0.00  0.00    +0.000 C 
ENDBRANCH  26  28
ENDBRANCH  25  26
BRANCH  25  29
ATOM     29  C   UNL     1       4.211   5.549  19.493  0.00  0.00    +0.000 C 
BRANCH  29  30
ATOM     30  C   UNL     1       4.971   5.298  18.198  0.00  0.00    +0.000 A 
ATOM     31  C   UNL     1       4.568   4.369  17.226  0.00  0.00    +0.000 A 
ATOM     32  C   UNL     1       5.363   4.128  16.101  0.00  0.00    +0.000 A 
ATOM     33  C   UNL     1       6.551   4.826  15.930  0.00  0.00    +0.000 A 
ATOM     34  F   UNL     1       7.327   4.567  14.871  0.00  0.00    +0.000 F 
ATOM     35  C   UNL     1       6.946   5.791  16.847  0.00  0.00    +0.000 A 
ATOM     36  C   UNL     1       6.157   6.028  17.974  0.00  0.00    +0.000 A 
ENDBRANCH  29  30
ENDBRANCH  25  29
ENDBRANCH   1  25
TORSDOF 13
ENDMDL
MODEL 6
REMARK VINA RESULT:      -7.3      3.848      9.313
REMARK  Name = 
REMARK  17 active torsions:
REMARK  status: ('A' for Active; 'I' for Inactive)
REMARK    1  A    between atoms: C_2  and  C_3
REMARK    2  A    between atoms: C_3  and  N_4
REMARK    3  A    between atoms: N_4  and  C_5
REMARK    4  A    between atoms: N_4  and  C_13
REMARK    5  A    between atoms: C_5  and  C_6
REMARK    6  A    between atoms: C_16  and  N_17
REMARK    7  A    between atoms: C_18  and  O_20
REMARK    8  A    between atoms: O_20  and  C_21
REMARK    9  A    between atoms: C_21  and  C_22
REMARK   10  A    between atoms: C_22  and  C_23
REMARK   11  A    between atoms: C_22  and  C_24
REMARK   12  A    between atoms: C_25  and  N_26
REMARK   13  A    between atoms: C_27  and  O_29
REMARK   14  A    between atoms: O_29  and  C_30
REMARK   15  A    between atoms: C_30  and  C_31
REMARK   16  A    between atoms: C_31  and  C_32
REMARK   17  A    between atoms: C_31  and  C_33
REMARK                            x       y       z     vdW  Elec       q    Type
REMARK                         _______ _______ _______ _____ _____    ______ ____
ROOT
ATOM      1  C   UNL     1       2.219   7.194  19.222  0.00  0.00    +0.000 A 
ATOM      2  C   UNL     1       2.357   7.854  18.003  0.00  0.00    +0.000 A 
ATOM      3  C   UNL     1       1.815   9.129  17.807  0.00  0.00    +0.000 A 
ATOM      4  C   UNL     1       1.131   9.804  18.827  0.00  0.00    +0.000 A 
ATOM      5  C   UNL     1       1.021   9.167  20.082  0.00  0.00    +0.000 A 
ATOM      6  C   UNL     1       1.530   7.863  20.240  0.00  0.00    +0.000 A 
ENDROOT
BRANCH   4   7
ATOM      7  N   UNL     1       0.565  11.076  18.586  0.00  0.00    +0.000 N 
ATOM      8  C   UNL     1      -0.755  11.429  18.559  0.00  0.00    +0.000 C 
ATOM      9  O   UNL     1      -1.722  10.764  18.905  0.00  0.00    +0.000 OA
ATOM     10  H   UNL     1       1.187  11.797  18.236  0.00  0.00    +0.000 HD
BRANCH   8  11
ATOM     11  O   UNL     1      -0.873  12.663  17.994  0.00  0.00    +0.000 OA
BRANCH  11  12
ATOM     12  C   UNL     1       0.261  13.504  18.239  0.00  0.00    +0.000 C 
BRANCH  12  13
ATOM     13  C   UNL     1      -0.045  14.777  19.038  0.00  0.00    +0.000 C 
ATOM     14  C   UNL     1      -1.265  14.617  19.944  0.00  0.00    +0.000 C 
ATOM     15  C   UNL     1       1.187  15.126  19.881  0.00  0.00    +0.000 C 
ENDBRANCH  12  13
ENDBRANCH  11  12
ENDBRANCH   8  11
ENDBRANCH   4   7
BRANCH   5  16
ATOM     16  N   UNL     1       0.427   9.696  21.251  0.00  0.00    +0.000 N 
ATOM     17  C   UNL     1       0.645  10.913  21.815  0.00  0.00    +0.000 C 
ATOM     18  O   UNL     1       1.337  11.814  21.362  0.00  0.00    +0.000 OA
ATOM     19  H   UNL     1       0.044   9.035  21.915  0.00  0.00    +0.000 HD
BRANCH  17  20
ATOM     20  O   UNL     1       0.050  10.933  23.035  0.00  0.00    +0.000 OA
BRANCH  20  21
ATOM     21  C   UNL     1      -1.383  10.897  23.018  0.00  0.00    +0.000 C 
BRANCH  21  22
ATOM     22  C   UNL     1      -2.043  12.264  22.789  0.00  0.00    +0.000 C 
ATOM     23  C   UNL     1      -3.437  12.331  23.410  0.00  0.00    +0.000 C 
ATOM     24  C   UNL     1      -1.138  13.360  23.346  0.00  0.00    +0.000 C 
ENDBRANCH  21  22
ENDBRANCH  20  21
ENDBRANCH  17  20
ENDBRANCH   5  16
BRANCH   1  25
ATOM     25  N   UNL     1       2.747   5.919  19.498  0.00  0.00    +0.000 N 
BRANCH  25  26
ATOM     26  C   UNL     1       2.142   5.165  20.613  0.00  0.00    +0.000 C 
BRANCH  26  28
ATOM     27  C   UNL     1       0.840   3.002  19.733  0.00  0.00    +0.000 C 
ATOM     28  C   UNL     1       1.438   3.969  20.117  0.00  0.00    +0.000 C 
ENDBRANCH  26  28
ENDBRANCH  25  26
BRANCH  25  29
ATOM     29  C   UNL     1       4.224   5.910  19.448  0.00  0.00    +0.000 C 
BRANCH  29  30
ATOM     30  C   UNL     1       4.806   5.380  18.145  0.00  0.00    +0.000 A 
ATOM     31  C   UNL     1       4.187   4.397  17.359  0.00  0.00    +0.000 A 
ATOM     32  C   UNL     1       4.823   3.894  16.219  0.00  0.00    +0.000 A 
ATOM     33  C   UNL     1       6.068   4.384  15.847  0.00  0.00    +0.000 A 
ATOM     34  F   UNL     1       6.690   3.876  14.777  0.00  0.00    +0.000 F 
ATOM     35  C   UNL     1       6.678   5.397  16.576  0.00  0.00    +0.000 A 
ATOM     36  C   UNL     1       6.048   5.894  17.718  0.00  0.00    +0.000 A 
ENDBRANCH  29  30
ENDBRANCH  25  29
ENDBRANCH   1  25
TORSDOF 13
ENDMDL
MODEL 7
REMARK VINA RESULT:      -7.3      3.728      9.374
REMARK  Name = 
REMARK  17 active torsions:
REMARK  status: ('A' for Active; 'I' for Inactive)
REMARK    1  A    between atoms: C_2  and  C_3
REMARK    2  A    between atoms: C_3  and  N_4
REMARK    3  A    between atoms: N_4  and  C_5
REMARK    4  A    between atoms: N_4  and  C_13
REMARK    5  A    between atoms: C_5  and  C_6
REMARK    6  A    between atoms: C_16  and  N_17
REMARK    7  A    between atoms: C_18  and  O_20
REMARK    8  A    between atoms: O_20  and  C_21
REMARK    9  A    between atoms: C_21  and  C_22
REMARK   10  A    between atoms: C_22  and  C_23
REMARK   11  A    between atoms: C_22  and  C_24
REMARK   12  A    between atoms: C_25  and  N_26
REMARK   13  A    between atoms: C_27  and  O_29
REMARK   14  A    between atoms: O_29  and  C_30
REMARK   15  A    between atoms: C_30  and  C_31
REMARK   16  A    between atoms: C_31  and  C_32
REMARK   17  A    between atoms: C_31  and  C_33
REMARK                            x       y       z     vdW  Elec       q    Type
REMARK                         _______ _______ _______ _____ _____    ______ ____
ROOT
ATOM      1  C   UNL     1       2.305   6.865  19.118  0.00  0.00    +0.000 A 
ATOM      2  C   UNL     1       2.341   7.526  17.892  0.00  0.00    +0.000 A 
ATOM      3  C   UNL     1       1.925   8.857  17.776  0.00  0.00    +0.000 A 
ATOM      4  C   UNL     1       1.476   9.587  18.884  0.00  0.00    +0.000 A 
ATOM      5  C   UNL     1       1.474   8.945  20.142  0.00  0.00    +0.000 A 
ATOM      6  C   UNL     1       1.849   7.590  20.225  0.00  0.00    +0.000 A 
ENDROOT
BRANCH   4   7
ATOM      7  N   UNL     1       1.029  10.918  18.729  0.00  0.00    +0.000 N 
ATOM      8  C   UNL     1       1.757  12.029  18.407  0.00  0.00    +0.000 C 
ATOM      9  O   UNL     1       2.915  12.085  18.016  0.00  0.00    +0.000 OA
ATOM     10  H   UNL     1       0.085  11.126  19.041  0.00  0.00    +0.000 HD
BRANCH   8  11
ATOM     11  O   UNL     1       1.010  13.140  18.662  0.00  0.00    +0.000 OA
BRANCH  11  12
ATOM     12  C   UNL     1       1.741  14.164  19.346  0.00  0.00    +0.000 C 
BRANCH  12  13
ATOM     13  C   UNL     1       1.788  15.514  18.618  0.00  0.00    +0.000 C 
ATOM     14  C   UNL     1       1.588  16.694  19.567  0.00  0.00    +0.000 C 
ATOM     15  C   UNL     1       3.144  15.636  17.914  0.00  0.00    +0.000 C 
ENDBRANCH  12  13
ENDBRANCH  11  12
ENDBRANCH   8  11
ENDBRANCH   4   7
BRANCH   5  16
ATOM     16  N   UNL     1       1.118   9.518  21.385  0.00  0.00    +0.000 N 
ATOM     17  C   UNL     1       0.057   9.202  22.172  0.00  0.00    +0.000 C 
ATOM     18  O   UNL     1      -0.743   8.294  21.988  0.00  0.00    +0.000 OA
ATOM     19  H   UNL     1       1.475  10.445  21.586  0.00  0.00    +0.000 HD
BRANCH  17  20
ATOM     20  O   UNL     1      -0.041  10.133  23.154  0.00  0.00    +0.000 OA
BRANCH  20  21
ATOM     21  C   UNL     1      -1.277  10.858  23.190  0.00  0.00    +0.000 C 
BRANCH  21  22
ATOM     22  C   UNL     1      -1.469  11.830  22.017  0.00  0.00    +0.000 C 
ATOM     23  C   UNL     1      -2.820  12.538  22.084  0.00  0.00    +0.000 C 
ATOM     24  C   UNL     1      -0.320  12.836  22.004  0.00  0.00    +0.000 C 
ENDBRANCH  21  22
ENDBRANCH  20  21
ENDBRANCH  17  20
ENDBRANCH   5  16
BRANCH   1  25
ATOM     25  N   UNL     1       2.718   5.534  19.314  0.00  0.00    +0.000 N 
BRANCH  25  26
ATOM     26  C   UNL     1       1.881   4.689  20.187  0.00  0.00    +0.000 C 
BRANCH  26  28
ATOM     27  C   UNL     1       1.722   2.186  19.262  0.00  0.00    +0.000 C 
ATOM     28  C   UNL     1       1.810   3.310  19.672  0.00  0.00    +0.000 C 
ENDBRANCH  26  28
ENDBRANCH  25  26
BRANCH  25  29
ATOM     29  C   UNL     1       4.176   5.436  19.537  0.00  0.00    +0.000 C 
BRANCH  29  30
ATOM     30  C   UNL     1       4.968   4.970  18.324  0.00  0.00    +0.000 A 
ATOM     31  C   UNL     1       6.366   5.054  18.228  0.00  0.00    +0.000 A 
ATOM     32  C   UNL     1       7.020   4.687  17.048  0.00  0.00    +0.000 A 
ATOM     33  C   UNL     1       6.287   4.216  15.967  0.00  0.00    +0.000 A 
ATOM     34  F   UNL     1       6.913   3.900  14.826  0.00  0.00    +0.000 F 
ATOM     35  C   UNL     1       4.909   4.070  16.053  0.00  0.00    +0.000 A 
ATOM     36  C   UNL     1       4.253   4.443  17.228  0.00  0.00    +0.000 A 
ENDBRANCH  29  30
ENDBRANCH  25  29
ENDBRANCH   1  25
TORSDOF 13
ENDMDL
MODEL 8
REMARK VINA RESULT:      -7.3      3.763      9.397
REMARK  Name = 
REMARK  17 active torsions:
REMARK  status: ('A' for Active; 'I' for Inactive)
REMARK    1  A    between atoms: C_2  and  C_3
REMARK    2  A    between atoms: C_3  and  N_4
REMARK    3  A    between atoms: N_4  and  C_5
REMARK    4  A    between atoms: N_4  and  C_13
REMARK    5  A    between atoms: C_5  and  C_6
REMARK    6  A    between atoms: C_16  and  N_17
REMARK    7  A    between atoms: C_18  and  O_20
REMARK    8  A    between atoms: O_20  and  C_21
REMARK    9  A    between atoms: C_21  and  C_22
REMARK   10  A    between atoms: C_22  and  C_23
REMARK   11  A    between atoms: C_22  and  C_24
REMARK   12  A    between atoms: C_25  and  N_26
REMARK   13  A    between atoms: C_27  and  O_29
REMARK   14  A    between atoms: O_29  and  C_30
REMARK   15  A    between atoms: C_30  and  C_31
REMARK   16  A    between atoms: C_31  and  C_32
REMARK   17  A    between atoms: C_31  and  C_33
REMARK                            x       y       z     vdW  Elec       q    Type
REMARK                         _______ _______ _______ _____ _____    ______ ____
ROOT
ATOM      1  C   UNL     1       2.189   7.222  19.243  0.00  0.00    +0.000 A 
ATOM      2  C   UNL     1       2.124   7.777  17.967  0.00  0.00    +0.000 A 
ATOM      3  C   UNL     1       1.572   9.045  17.757  0.00  0.00    +0.000 A 
ATOM      4  C   UNL     1       1.080   9.818  18.817  0.00  0.00    +0.000 A 
ATOM      5  C   UNL     1       1.178   9.289  20.123  0.00  0.00    +0.000 A 
ATOM      6  C   UNL     1       1.691   7.990  20.303  0.00  0.00    +0.000 A 
ENDROOT
BRANCH   4   7
ATOM      7  N   UNL     1       0.495  11.081  18.568  0.00  0.00    +0.000 N 
ATOM      8  C   UNL     1       0.838  12.296  19.092  0.00  0.00    +0.000 C 
ATOM      9  O   UNL     1       1.829  12.581  19.751  0.00  0.00    +0.000 OA
ATOM     10  H   UNL     1      -0.386  11.088  18.064  0.00  0.00    +0.000 HD
BRANCH   8  11
ATOM     11  O   UNL     1      -0.159  13.188  18.834  0.00  0.00    +0.000 OA
BRANCH  11  12
ATOM     12  C   UNL     1      -0.028  14.407  19.574  0.00  0.00    +0.000 C 
BRANCH  12  13
ATOM     13  C   UNL     1       0.379  15.626  18.736  0.00  0.00    +0.000 C 
ATOM     14  C   UNL     1      -0.683  16.725  18.753  0.00  0.00    +0.000 C 
ATOM     15  C   UNL     1       1.701  16.171  19.285  0.00  0.00    +0.000 C 
ENDBRANCH  12  13
ENDBRANCH  11  12
ENDBRANCH   8  11
ENDBRANCH   4   7
BRANCH   5  16
ATOM     16  N   UNL     1       0.798   9.928  21.326  0.00  0.00    +0.000 N 
ATOM     17  C   UNL     1      -0.143   9.525  22.219  0.00  0.00    +0.000 C 
ATOM     18  O   UNL     1      -0.779   8.480  22.187  0.00  0.00    +0.000 OA
ATOM     19  H   UNL     1       0.997  10.918  21.406  0.00  0.00    +0.000 HD
BRANCH  17  20
ATOM     20  O   UNL     1      -0.347  10.529  23.109  0.00  0.00    +0.000 OA
BRANCH  20  21
ATOM     21  C   UNL     1      -0.696  11.796  22.535  0.00  0.00    +0.000 C 
BRANCH  21  22
ATOM     22  C   UNL     1      -1.587  12.667  23.432  0.00  0.00    +0.000 C 
ATOM     23  C   UNL     1      -1.348  14.156  23.193  0.00  0.00    +0.000 C 
ATOM     24  C   UNL     1      -3.050  12.299  23.198  0.00  0.00    +0.000 C 
ENDBRANCH  21  22
ENDBRANCH  20  21
ENDBRANCH  17  20
ENDBRANCH   5  16
BRANCH   1  25
ATOM     25  N   UNL     1       2.741   5.961  19.533  0.00  0.00    +0.000 N 
BRANCH  25  26
ATOM     26  C   UNL     1       2.229   5.258  20.725  0.00  0.00    +0.000 C 
BRANCH  26  28
ATOM     27  C   UNL     1       0.844   3.091  19.994  0.00  0.00    +0.000 C 
ATOM     28  C   UNL     1       1.462   4.060  20.339  0.00  0.00    +0.000 C 
ENDBRANCH  26  28
ENDBRANCH  25  26
BRANCH  25  29
ATOM     29  C   UNL     1       4.209   5.950  19.366  0.00  0.00    +0.000 C 
BRANCH  29  30
ATOM     30  C   UNL     1       4.682   5.521  17.984  0.00  0.00    +0.000 A 
ATOM     31  C   UNL     1       5.206   6.407  17.031  0.00  0.00    +0.000 A 
ATOM     32  C   UNL     1       5.539   5.957  15.749  0.00  0.00    +0.000 A 
ATOM     33  C   UNL     1       5.372   4.619  15.420  0.00  0.00    +0.000 A 
ATOM     34  F   UNL     1       5.658   4.198  14.182  0.00  0.00    +0.000 F 
ATOM     35  C   UNL     1       4.908   3.709  16.361  0.00  0.00    +0.000 A 
ATOM     36  C   UNL     1       4.568   4.158  17.638  0.00  0.00    +0.000 A 
ENDBRANCH  29  30
ENDBRANCH  25  29
ENDBRANCH   1  25
TORSDOF 13
ENDMDL
MODEL 9
REMARK VINA RESULT:      -7.3      3.783      8.509
REMARK  Name = 
REMARK  17 active torsions:
REMARK  status: ('A' for Active; 'I' for Inactive)
REMARK    1  A    between atoms: C_2  and  C_3
REMARK    2  A    between atoms: C_3  and  N_4
REMARK    3  A    between atoms: N_4  and  C_5
REMARK    4  A    between atoms: N_4  and  C_13
REMARK    5  A    between atoms: C_5  and  C_6
REMARK    6  A    between atoms: C_16  and  N_17
REMARK    7  A    between atoms: C_18  and  O_20
REMARK    8  A    between atoms: O_20  and  C_21
REMARK    9  A    between atoms: C_21  and  C_22
REMARK   10  A    between atoms: C_22  and  C_23
REMARK   11  A    between atoms: C_22  and  C_24
REMARK   12  A    between atoms: C_25  and  N_26
REMARK   13  A    between atoms: C_27  and  O_29
REMARK   14  A    between atoms: O_29  and  C_30
REMARK   15  A    between atoms: C_30  and  C_31
REMARK   16  A    between atoms: C_31  and  C_32
REMARK   17  A    between atoms: C_31  and  C_33
REMARK                            x       y       z     vdW  Elec       q    Type
REMARK                         _______ _______ _______ _____ _____    ______ ____
ROOT
ATOM      1  C   UNL     1       2.206   7.638  19.263  0.00  0.00    +0.000 A 
ATOM      2  C   UNL     1       2.050   7.448  20.634  0.00  0.00    +0.000 A 
ATOM      3  C   UNL     1       1.190   8.258  21.383  0.00  0.00    +0.000 A 
ATOM      4  C   UNL     1       0.437   9.279  20.789  0.00  0.00    +0.000 A 
ATOM      5  C   UNL     1       0.550   9.457  19.392  0.00  0.00    +0.000 A 
ATOM      6  C   UNL     1       1.460   8.662  18.668  0.00  0.00    +0.000 A 
ENDROOT
BRANCH   4   7
ATOM      7  N   UNL     1      -0.396  10.104  21.578  0.00  0.00    +0.000 N 
ATOM      8  C   UNL     1      -0.447  10.209  22.940  0.00  0.00    +0.000 C 
ATOM      9  O   UNL     1       0.330   9.744  23.762  0.00  0.00    +0.000 OA
ATOM     10  H   UNL     1      -1.164  10.569  21.104  0.00  0.00    +0.000 HD
BRANCH   8  11
ATOM     11  O   UNL     1      -1.582  10.875  23.292  0.00  0.00    +0.000 OA
BRANCH  11  12
ATOM     12  C   UNL     1      -1.557  12.261  22.928  0.00  0.00    +0.000 C 
BRANCH  12  13
ATOM     13  C   UNL     1      -2.925  12.954  22.947  0.00  0.00    +0.000 C 
ATOM     14  C   UNL     1      -3.702  12.743  21.648  0.00  0.00    +0.000 C 
ATOM     15  C   UNL     1      -3.730  12.405  24.130  0.00  0.00    +0.000 C 
ENDBRANCH  12  13
ENDBRANCH  11  12
ENDBRANCH   8  11
ENDBRANCH   4   7
BRANCH   5  16
ATOM     16  N   UNL     1      -0.163  10.383  18.596  0.00  0.00    +0.000 N 
ATOM     17  C   UNL     1      -0.200  11.734  18.727  0.00  0.00    +0.000 C 
ATOM     18  O   UNL     1       0.451  12.411  19.511  0.00  0.00    +0.000 OA
ATOM     19  H   UNL     1      -0.959  10.030  18.078  0.00  0.00    +0.000 HD
BRANCH  17  20
ATOM     20  O   UNL     1      -1.170  12.217  17.908  0.00  0.00    +0.000 OA
BRANCH  20  21
ATOM     21  C   UNL     1      -2.508  11.832  18.249  0.00  0.00    +0.000 C 
BRANCH  21  22
ATOM     22  C   UNL     1      -3.369  11.424  17.046  0.00  0.00    +0.000 C 
ATOM     23  C   UNL     1      -2.598  10.534  16.074  0.00  0.00    +0.000 C 
ATOM     24  C   UNL     1      -4.634  10.729  17.544  0.00  0.00    +0.000 C 
ENDBRANCH  21  22
ENDBRANCH  20  21
ENDBRANCH  17  20
ENDBRANCH   5  16
BRANCH   1  25
ATOM     25  N   UNL     1       3.041   6.856  18.443  0.00  0.00    +0.000 N 
BRANCH  25  26
ATOM     26  C   UNL     1       3.848   7.564  17.431  0.00  0.00    +0.000 C 
BRANCH  26  28
ATOM     27  C   UNL     1       5.429   5.859  16.112  0.00  0.00    +0.000 C 
ATOM     28  C   UNL     1       4.707   6.622  16.691  0.00  0.00    +0.000 C 
ENDBRANCH  26  28
ENDBRANCH  25  26
BRANCH  25  29
ATOM     29  C   UNL     1       2.362   5.629  17.976  0.00  0.00    +0.000 C 
BRANCH  29  30
ATOM     30  C   UNL     1       2.209   4.551  19.040  0.00  0.00    +0.000 A 
ATOM     31  C   UNL     1       0.972   4.137  19.557  0.00  0.00    +0.000 A 
ATOM     32  C   UNL     1       0.912   3.203  20.596  0.00  0.00    +0.000 A 
ATOM     33  C   UNL     1       2.084   2.662  21.109  0.00  0.00    +0.000 A 
ATOM     34  F   UNL     1       2.026   1.795  22.127  0.00  0.00    +0.000 F 
ATOM     35  C   UNL     1       3.318   3.011  20.578  0.00  0.00    +0.000 A 
ATOM     36  C   UNL     1       3.380   3.949  19.546  0.00  0.00    +0.000 A 
ENDBRANCH  29  30
ENDBRANCH  25  29
ENDBRANCH   1  25
TORSDOF 13
ENDMDL
