MODEL 1
REMARK VINA RESULT:      -5.7      0.000      0.000
REMARK  Name = 
REMARK  19 active torsions:
REMARK  status: ('A' for Active; 'I' for Inactive)
REMARK    1  A    between atoms: C_1  and  C_2
REMARK    2  A    between atoms: C_2  and  C_3
REMARK    3  A    between atoms: C_3  and  C_4
REMARK    4  A    between atoms: C_4  and  C_5
REMARK    5  A    between atoms: C_5  and  C_6
REMARK    6  A    between atoms: C_6  and  C_7
REMARK    7  A    between atoms: C_7  and  C_8
REMARK    8  A    between atoms: C_8  and  C_9
REMARK    9  A    between atoms: C_9  and  C_10
REMARK   10  A    between atoms: C_10  and  C_11
REMARK   11  A    between atoms: C_11  and  C_12
REMARK   12  A    between atoms: C_12  and  P_13
REMARK   13  A    between atoms: P_13  and  O_15
REMARK   14  A    between atoms: P_13  and  O_16
REMARK   15  A    between atoms: O_16  and  C_17
REMARK   16  A    between atoms: C_17  and  C_18
REMARK   17  A    between atoms: C_18  and  N_19
REMARK   18  A    between atoms: C_18  and  C_20
REMARK   19  A    between atoms: C_20  and  O_22
REMARK                            x       y       z     vdW  Elec       q    Type
REMARK                         _______ _______ _______ _____ _____    ______ ____
ROOT
ATOM      1  P   UNK     1       6.698   4.574  17.474  0.00  0.00    +0.000 P 
ATOM      2  O   UNK     1       8.148   4.413  17.252  0.00  0.00    +0.000 OA
ENDROOT
BRANCH   1   3
ATOM      3  O   UNK     1       6.180   3.785  18.789  0.00  0.00    +0.000 OA
ATOM      4  H   UNK     1       6.725   3.877  19.591  0.00  0.00    +0.000 HD
ENDBRANCH   1   3
BRANCH   1   5
ATOM      5  O   UNK     1       5.755   3.907  16.348  0.00  0.00    +0.000 OA
BRANCH   5   6
ATOM      6  C   UNK     1       6.264   3.506  15.074  0.00  0.00    +0.000 C 
BRANCH   6   7
ATOM      7  C   UNK     1       6.577   4.624  14.026  0.00  0.00    +0.000 C 
BRANCH   7   8
ATOM      8  N   UNK     1       7.762   5.472  14.295  0.00  0.00    +0.000 NA
ATOM      9  H   UNK     1       7.533   6.153  15.025  0.00  0.00    +0.000 HD
ATOM     10  H   UNK     1       7.925   6.039  13.458  0.00  0.00    +0.000 HD
ENDBRANCH   7   8
BRANCH   7  11
ATOM     11  C   UNK     1       6.721   3.940  12.654  0.00  0.00    +0.000 C 
ATOM     12  O   UNK     1       7.347   4.422  11.717  0.00  0.00    +0.000 OA
BRANCH  11  13
ATOM     13  O   UNK     1       6.109   2.726  12.556  0.00  0.00    +0.000 OA
ATOM     14  H   UNK     1       5.166   2.825  12.357  0.00  0.00    +0.000 HD
ENDBRANCH  11  13
ENDBRANCH   7  11
ENDBRANCH   6   7
ENDBRANCH   5   6
ENDBRANCH   1   5
BRANCH   1  15
ATOM     15  C   UNK     1       6.184   6.290  17.833  0.00  0.00    +0.000 C 
BRANCH  15  16
ATOM     16  C   UNK     1       4.642   6.310  17.953  0.00  0.00    +0.000 C 
BRANCH  16  17
ATOM     17  C   UNK     1       3.854   7.528  17.448  0.00  0.00    +0.000 C 
BRANCH  17  18
ATOM     18  C   UNK     1       2.536   7.710  18.250  0.00  0.00    +0.000 C 
BRANCH  18  19
ATOM     19  C   UNK     1       1.925   6.389  18.742  0.00  0.00    +0.000 C 
BRANCH  19  20
ATOM     20  C   UNK     1       1.989   6.215  20.266  0.00  0.00    +0.000 C 
BRANCH  20  21
ATOM     21  C   UNK     1       2.203   4.751  20.688  0.00  0.00    +0.000 C 
BRANCH  21  22
ATOM     22  C   UNK     1       0.952   3.857  20.618  0.00  0.00    +0.000 C 
BRANCH  22  23
ATOM     23  C   UNK     1       0.965   2.837  19.459  0.00  0.00    +0.000 C 
BRANCH  23  24
ATOM     24  C   UNK     1       2.298   2.077  19.375  0.00  0.00    +0.000 C 
BRANCH  24  26
ATOM     25  C   UNK     1       2.549   3.291  17.077  0.00  0.00    +0.000 C 
ATOM     26  C   UNK     1       3.095   2.269  18.072  0.00  0.00    +0.000 C 
ENDBRANCH  24  26
ENDBRANCH  23  24
ENDBRANCH  22  23
ENDBRANCH  21  22
ENDBRANCH  20  21
ENDBRANCH  19  20
ENDBRANCH  18  19
ENDBRANCH  17  18
ENDBRANCH  16  17
ENDBRANCH  15  16
ENDBRANCH   1  15
TORSDOF 18
ENDMDL
MODEL 2
REMARK VINA RESULT:      -5.7      1.950      3.863
REMARK  Name = 
REMARK  19 active torsions:
REMARK  status: ('A' for Active; 'I' for Inactive)
REMARK    1  A    between atoms: C_1  and  C_2
REMARK    2  A    between atoms: C_2  and  C_3
REMARK    3  A    between atoms: C_3  and  C_4
REMARK    4  A    between atoms: C_4  and  C_5
REMARK    5  A    between atoms: C_5  and  C_6
REMARK    6  A    between atoms: C_6  and  C_7
REMARK    7  A    between atoms: C_7  and  C_8
REMARK    8  A    between atoms: C_8  and  C_9
REMARK    9  A    between atoms: C_9  and  C_10
REMARK   10  A    between atoms: C_10  and  C_11
REMARK   11  A    between atoms: C_11  and  C_12
REMARK   12  A    between atoms: C_12  and  P_13
REMARK   13  A    between atoms: P_13  and  O_15
REMARK   14  A    between atoms: P_13  and  O_16
REMARK   15  A    between atoms: O_16  and  C_17
REMARK   16  A    between atoms: C_17  and  C_18
REMARK   17  A    between atoms: C_18  and  N_19
REMARK   18  A    between atoms: C_18  and  C_20
REMARK   19  A    between atoms: C_20  and  O_22
REMARK                            x       y       z     vdW  Elec       q    Type
REMARK                         _______ _______ _______ _____ _____    ______ ____
ROOT
ATOM      1  P   UNK     1       6.352   4.561  15.122  0.00  0.00    +0.000 P 
ATOM      2  O   UNK     1       6.482   3.992  13.767  0.00  0.00    +0.000 OA
ENDROOT
BRANCH   1   3
ATOM      3  O   UNK     1       5.948   6.129  15.101  0.00  0.00    +0.000 OA
ATOM      4  H   UNK     1       6.591   6.747  15.491  0.00  0.00    +0.000 HD
ENDBRANCH   1   3
BRANCH   1   5
ATOM      5  O   UNK     1       7.722   4.629  15.971  0.00  0.00    +0.000 OA
BRANCH   5   6
ATOM      6  C   UNK     1       7.742   4.470  17.391  0.00  0.00    +0.000 C 
BRANCH   6   7
ATOM      7  C   UNK     1       7.895   5.755  18.269  0.00  0.00    +0.000 C 
BRANCH   7   8
ATOM      8  N   UNK     1       7.298   7.000  17.731  0.00  0.00    +0.000 NA
ATOM      9  H   UNK     1       6.699   6.771  16.932  0.00  0.00    +0.000 HD
ATOM     10  H   UNK     1       8.061   7.552  17.328  0.00  0.00    +0.000 HD
ENDBRANCH   7   8
BRANCH   7  11
ATOM     11  C   UNK     1       7.294   5.440  19.652  0.00  0.00    +0.000 C 
ATOM     12  O   UNK     1       6.132   5.090  19.824  0.00  0.00    +0.000 OA
BRANCH  11  13
ATOM     13  O   UNK     1       8.166   5.560  20.693  0.00  0.00    +0.000 OA
ATOM     14  H   UNK     1       9.079   5.629  20.378  0.00  0.00    +0.000 HD
ENDBRANCH  11  13
ENDBRANCH   7  11
ENDBRANCH   6   7
ENDBRANCH   5   6
ENDBRANCH   1   5
BRANCH   1  15
ATOM     15  C   UNK     1       4.999   3.833  16.110  0.00  0.00    +0.000 C 
BRANCH  15  16
ATOM     16  C   UNK     1       4.007   4.967  16.467  0.00  0.00    +0.000 C 
BRANCH  16  17
ATOM     17  C   UNK     1       4.028   5.582  17.874  0.00  0.00    +0.000 C 
BRANCH  17  18
ATOM     18  C   UNK     1       2.589   5.714  18.445  0.00  0.00    +0.000 C 
BRANCH  18  19
ATOM     19  C   UNK     1       2.549   6.039  19.947  0.00  0.00    +0.000 C 
BRANCH  19  20
ATOM     20  C   UNK     1       1.333   5.442  20.669  0.00  0.00    +0.000 C 
BRANCH  20  21
ATOM     21  C   UNK     1       0.939   4.059  20.123  0.00  0.00    +0.000 C 
BRANCH  21  22
ATOM     22  C   UNK     1       1.382   2.861  20.982  0.00  0.00    +0.000 C 
BRANCH  22  23
ATOM     23  C   UNK     1       2.906   2.773  21.210  0.00  0.00    +0.000 C 
BRANCH  23  24
ATOM     24  C   UNK     1       3.674   2.569  19.895  0.00  0.00    +0.000 C 
BRANCH  24  26
ATOM     25  C   UNK     1       2.456   2.010  17.654  0.00  0.00    +0.000 C 
ATOM     26  C   UNK     1       3.097   1.504  18.944  0.00  0.00    +0.000 C 
ENDBRANCH  24  26
ENDBRANCH  23  24
ENDBRANCH  22  23
ENDBRANCH  21  22
ENDBRANCH  20  21
ENDBRANCH  19  20
ENDBRANCH  18  19
ENDBRANCH  17  18
ENDBRANCH  16  17
ENDBRANCH  15  16
ENDBRANCH   1  15
TORSDOF 18
ENDMDL
MODEL 3
REMARK VINA RESULT:      -5.6      2.353      4.679
REMARK  Name = 
REMARK  19 active torsions:
REMARK  status: ('A' for Active; 'I' for Inactive)
REMARK    1  A    between atoms: C_1  and  C_2
REMARK    2  A    between atoms: C_2  and  C_3
REMARK    3  A    between atoms: C_3  and  C_4
REMARK    4  A    between atoms: C_4  and  C_5
REMARK    5  A    between atoms: C_5  and  C_6
REMARK    6  A    between atoms: C_6  and  C_7
REMARK    7  A    between atoms: C_7  and  C_8
REMARK    8  A    between atoms: C_8  and  C_9
REMARK    9  A    between atoms: C_9  and  C_10
REMARK   10  A    between atoms: C_10  and  C_11
REMARK   11  A    between atoms: C_11  and  C_12
REMARK   12  A    between atoms: C_12  and  P_13
REMARK   13  A    between atoms: P_13  and  O_15
REMARK   14  A    between atoms: P_13  and  O_16
REMARK   15  A    between atoms: O_16  and  C_17
REMARK   16  A    between atoms: C_17  and  C_18
REMARK   17  A    between atoms: C_18  and  N_19
REMARK   18  A    between atoms: C_18  and  C_20
REMARK   19  A    between atoms: C_20  and  O_22
REMARK                            x       y       z     vdW  Elec       q    Type
REMARK                         _______ _______ _______ _____ _____    ______ ____
ROOT
ATOM      1  P   UNK     1       4.211   4.237  17.538  0.00  0.00    +0.000 P 
ATOM      2  O   UNK     1       4.664   4.551  18.907  0.00  0.00    +0.000 OA
ENDROOT
BRANCH   1   3
ATOM      3  O   UNK     1       4.860   2.868  16.968  0.00  0.00    +0.000 OA
ATOM      4  H   UNK     1       5.353   2.938  16.131  0.00  0.00    +0.000 HD
ENDBRANCH   1   3
BRANCH   1   5
ATOM      5  O   UNK     1       4.690   5.277  16.403  0.00  0.00    +0.000 OA
BRANCH   5   6
ATOM      6  C   UNK     1       5.875   6.064  16.548  0.00  0.00    +0.000 C 
BRANCH   6   7
ATOM      7  C   UNK     1       7.246   5.392  16.210  0.00  0.00    +0.000 C 
BRANCH   7   8
ATOM      8  N   UNK     1       7.700   4.318  17.124  0.00  0.00    +0.000 NA
ATOM      9  H   UNK     1       7.288   4.464  18.051  0.00  0.00    +0.000 HD
ATOM     10  H   UNK     1       8.706   4.447  17.268  0.00  0.00    +0.000 HD
ENDBRANCH   7   8
BRANCH   7  11
ATOM     11  C   UNK     1       7.149   4.852  14.771  0.00  0.00    +0.000 C 
ATOM     12  O   UNK     1       7.697   5.379  13.809  0.00  0.00    +0.000 OA
BRANCH  11  13
ATOM     13  O   UNK     1       6.414   3.712  14.638  0.00  0.00    +0.000 OA
ATOM     14  H   UNK     1       5.465   3.898  14.699  0.00  0.00    +0.000 HD
ENDBRANCH  11  13
ENDBRANCH   7  11
ENDBRANCH   6   7
ENDBRANCH   5   6
ENDBRANCH   1   5
BRANCH   1  15
ATOM     15  C   UNK     1       2.422   3.893  17.405  0.00  0.00    +0.000 C 
BRANCH  15  16
ATOM     16  C   UNK     1       2.194   2.409  17.778  0.00  0.00    +0.000 C 
BRANCH  16  17
ATOM     17  C   UNK     1       1.353   2.054  19.013  0.00  0.00    +0.000 C 
BRANCH  17  18
ATOM     18  C   UNK     1       0.933   3.335  19.787  0.00  0.00    +0.000 C 
BRANCH  18  19
ATOM     19  C   UNK     1       1.766   3.593  21.053  0.00  0.00    +0.000 C 
BRANCH  19  20
ATOM     20  C   UNK     1       2.068   5.078  21.292  0.00  0.00    +0.000 C 
BRANCH  20  21
ATOM     21  C   UNK     1       1.576   5.977  20.144  0.00  0.00    +0.000 C 
BRANCH  21  22
ATOM     22  C   UNK     1       1.813   7.485  20.341  0.00  0.00    +0.000 C 
BRANCH  22  23
ATOM     23  C   UNK     1       0.685   8.210  21.106  0.00  0.00    +0.000 C 
BRANCH  23  24
ATOM     24  C   UNK     1       1.218   8.986  22.320  0.00  0.00    +0.000 C 
BRANCH  24  26
ATOM     25  C   UNK     1      -0.727  10.669  22.767  0.00  0.00    +0.000 C 
ATOM     26  C   UNK     1       0.150   9.532  23.285  0.00  0.00    +0.000 C 
ENDBRANCH  24  26
ENDBRANCH  23  24
ENDBRANCH  22  23
ENDBRANCH  21  22
ENDBRANCH  20  21
ENDBRANCH  19  20
ENDBRANCH  18  19
ENDBRANCH  17  18
ENDBRANCH  16  17
ENDBRANCH  15  16
ENDBRANCH   1  15
TORSDOF 18
ENDMDL
MODEL 4
REMARK VINA RESULT:      -5.5      3.579      5.719
REMARK  Name = 
REMARK  19 active torsions:
REMARK  status: ('A' for Active; 'I' for Inactive)
REMARK    1  A    between atoms: C_1  and  C_2
REMARK    2  A    between atoms: C_2  and  C_3
REMARK    3  A    between atoms: C_3  and  C_4
REMARK    4  A    between atoms: C_4  and  C_5
REMARK    5  A    between atoms: C_5  and  C_6
REMARK    6  A    between atoms: C_6  and  C_7
REMARK    7  A    between atoms: C_7  and  C_8
REMARK    8  A    between atoms: C_8  and  C_9
REMARK    9  A    between atoms: C_9  and  C_10
REMARK   10  A    between atoms: C_10  and  C_11
REMARK   11  A    between atoms: C_11  and  C_12
REMARK   12  A    between atoms: C_12  and  P_13
REMARK   13  A    between atoms: P_13  and  O_15
REMARK   14  A    between atoms: P_13  and  O_16
REMARK   15  A    between atoms: O_16  and  C_17
REMARK   16  A    between atoms: C_17  and  C_18
REMARK   17  A    between atoms: C_18  and  N_19
REMARK   18  A    between atoms: C_18  and  C_20
REMARK   19  A    between atoms: C_20  and  O_22
REMARK                            x       y       z     vdW  Elec       q    Type
REMARK                         _______ _______ _______ _____ _____    ______ ____
ROOT
ATOM      1  P   UNK     1       4.281   3.725  19.099  0.00  0.00    +0.000 P 
ATOM      2  O   UNK     1       3.277   3.965  20.153  0.00  0.00    +0.000 OA
ENDROOT
BRANCH   1   3
ATOM      3  O   UNK     1       4.443   2.154  18.742  0.00  0.00    +0.000 OA
ATOM      4  H   UNK     1       4.147   1.523  19.422  0.00  0.00    +0.000 HD
ENDBRANCH   1   3
BRANCH   1   5
ATOM      5  O   UNK     1       5.800   4.086  19.505  0.00  0.00    +0.000 OA
BRANCH   5   6
ATOM      6  C   UNK     1       6.373   5.366  19.232  0.00  0.00    +0.000 C 
BRANCH   6   7
ATOM      7  C   UNK     1       7.579   5.431  18.238  0.00  0.00    +0.000 C 
BRANCH   7   8
ATOM      8  N   UNK     1       8.089   4.137  17.731  0.00  0.00    +0.000 NA
ATOM      9  H   UNK     1       8.279   4.217  16.727  0.00  0.00    +0.000 HD
ATOM     10  H   UNK     1       7.320   3.463  17.792  0.00  0.00    +0.000 HD
ENDBRANCH   7   8
BRANCH   7  11
ATOM     11  C   UNK     1       7.154   6.327  17.059  0.00  0.00    +0.000 C 
ATOM     12  O   UNK     1       6.731   7.471  17.193  0.00  0.00    +0.000 OA
BRANCH  11  13
ATOM     13  O   UNK     1       7.301   5.758  15.829  0.00  0.00    +0.000 OA
ATOM     14  H   UNK     1       8.031   6.166  15.340  0.00  0.00    +0.000 HD
ENDBRANCH  11  13
ENDBRANCH   7  11
ENDBRANCH   6   7
ENDBRANCH   5   6
ENDBRANCH   1   5
BRANCH   1  15
ATOM     15  C   UNK     1       3.844   4.440  17.476  0.00  0.00    +0.000 C 
BRANCH  15  16
ATOM     16  C   UNK     1       2.824   5.579  17.717  0.00  0.00    +0.000 C 
BRANCH  16  17
ATOM     17  C   UNK     1       3.325   6.998  18.021  0.00  0.00    +0.000 C 
BRANCH  17  18
ATOM     18  C   UNK     1       2.333   7.752  18.949  0.00  0.00    +0.000 C 
BRANCH  18  19
ATOM     19  C   UNK     1       1.620   8.929  18.264  0.00  0.00    +0.000 C 
BRANCH  19  20
ATOM     20  C   UNK     1       0.820   9.808  19.236  0.00  0.00    +0.000 C 
BRANCH  20  21
ATOM     21  C   UNK     1       0.443  11.171  18.630  0.00  0.00    +0.000 C 
BRANCH  21  22
ATOM     22  C   UNK     1      -1.064  11.482  18.596  0.00  0.00    +0.000 C 
BRANCH  22  23
ATOM     23  C   UNK     1      -1.956  10.260  18.288  0.00  0.00    +0.000 C 
BRANCH  23  24
ATOM     24  C   UNK     1      -1.936   9.893  16.796  0.00  0.00    +0.000 C 
BRANCH  24  26
ATOM     25  C   UNK     1      -4.156  11.214  16.413  0.00  0.00    +0.000 C 
ATOM     26  C   UNK     1      -2.792  10.785  15.878  0.00  0.00    +0.000 C 
ENDBRANCH  24  26
ENDBRANCH  23  24
ENDBRANCH  22  23
ENDBRANCH  21  22
ENDBRANCH  20  21
ENDBRANCH  19  20
ENDBRANCH  18  19
ENDBRANCH  17  18
ENDBRANCH  16  17
ENDBRANCH  15  16
ENDBRANCH   1  15
TORSDOF 18
ENDMDL
MODEL 5
REMARK VINA RESULT:      -5.4      2.217      4.457
REMARK  Name = 
REMARK  19 active torsions:
REMARK  status: ('A' for Active; 'I' for Inactive)
REMARK    1  A    between atoms: C_1  and  C_2
REMARK    2  A    between atoms: C_2  and  C_3
REMARK    3  A    between atoms: C_3  and  C_4
REMARK    4  A    between atoms: C_4  and  C_5
REMARK    5  A    between atoms: C_5  and  C_6
REMARK    6  A    between atoms: C_6  and  C_7
REMARK    7  A    between atoms: C_7  and  C_8
REMARK    8  A    between atoms: C_8  and  C_9
REMARK    9  A    between atoms: C_9  and  C_10
REMARK   10  A    between atoms: C_10  and  C_11
REMARK   11  A    between atoms: C_11  and  C_12
REMARK   12  A    between atoms: C_12  and  P_13
REMARK   13  A    between atoms: P_13  and  O_15
REMARK   14  A    between atoms: P_13  and  O_16
REMARK   15  A    between atoms: O_16  and  C_17
REMARK   16  A    between atoms: C_17  and  C_18
REMARK   17  A    between atoms: C_18  and  N_19
REMARK   18  A    between atoms: C_18  and  C_20
REMARK   19  A    between atoms: C_20  and  O_22
REMARK                            x       y       z     vdW  Elec       q    Type
REMARK                         _______ _______ _______ _____ _____    ______ ____
ROOT
ATOM      1  P   UNK     1       6.383   4.502  15.523  0.00  0.00    +0.000 P 
ATOM      2  O   UNK     1       6.032   3.654  14.367  0.00  0.00    +0.000 OA
ENDROOT
BRANCH   1   3
ATOM      3  O   UNK     1       7.337   5.744  15.115  0.00  0.00    +0.000 OA
ATOM      4  H   UNK     1       7.648   6.309  15.845  0.00  0.00    +0.000 HD
ENDBRANCH   1   3
BRANCH   1   5
ATOM      5  O   UNK     1       7.301   3.788  16.640  0.00  0.00    +0.000 OA
BRANCH   5   6
ATOM      6  C   UNK     1       7.998   4.537  17.639  0.00  0.00    +0.000 C 
BRANCH   6   7
ATOM      7  C   UNK     1       7.186   5.592  18.461  0.00  0.00    +0.000 C 
BRANCH   7   8
ATOM      8  N   UNK     1       7.122   5.383  19.926  0.00  0.00    +0.000 NA
ATOM      9  H   UNK     1       6.155   5.184  20.199  0.00  0.00    +0.000 HD
ATOM     10  H   UNK     1       7.332   6.283  20.370  0.00  0.00    +0.000 HD
ENDBRANCH   7   8
BRANCH   7  11
ATOM     11  C   UNK     1       7.789   6.976  18.153  0.00  0.00    +0.000 C 
ATOM     12  O   UNK     1       7.533   7.619  17.141  0.00  0.00    +0.000 OA
BRANCH  11  13
ATOM     13  O   UNK     1       8.629   7.458  19.112  0.00  0.00    +0.000 OA
ATOM     14  H   UNK     1       9.160   6.747  19.501  0.00  0.00    +0.000 HD
ENDBRANCH  11  13
ENDBRANCH   7  11
ENDBRANCH   6   7
ENDBRANCH   5   6
ENDBRANCH   1   5
BRANCH   1  15
ATOM     15  C   UNK     1       4.957   5.352  16.285  0.00  0.00    +0.000 C 
BRANCH  15  16
ATOM     16  C   UNK     1       3.843   4.302  16.513  0.00  0.00    +0.000 C 
BRANCH  16  17
ATOM     17  C   UNK     1       4.056   3.175  17.534  0.00  0.00    +0.000 C 
BRANCH  17  18
ATOM     18  C   UNK     1       2.703   2.529  17.941  0.00  0.00    +0.000 C 
BRANCH  18  19
ATOM     19  C   UNK     1       1.541   3.531  18.028  0.00  0.00    +0.000 C 
BRANCH  19  20
ATOM     20  C   UNK     1       1.046   3.770  19.461  0.00  0.00    +0.000 C 
BRANCH  20  21
ATOM     21  C   UNK     1       2.127   4.384  20.368  0.00  0.00    +0.000 C 
BRANCH  21  22
ATOM     22  C   UNK     1       1.741   5.711  21.045  0.00  0.00    +0.000 C 
BRANCH  22  23
ATOM     23  C   UNK     1       1.754   6.932  20.101  0.00  0.00    +0.000 C 
BRANCH  23  24
ATOM     24  C   UNK     1       2.882   6.845  19.062  0.00  0.00    +0.000 C 
BRANCH  24  26
ATOM     25  C   UNK     1       1.725   8.912  17.964  0.00  0.00    +0.000 C 
ATOM     26  C   UNK     1       2.744   7.781  17.848  0.00  0.00    +0.000 C 
ENDBRANCH  24  26
ENDBRANCH  23  24
ENDBRANCH  22  23
ENDBRANCH  21  22
ENDBRANCH  20  21
ENDBRANCH  19  20
ENDBRANCH  18  19
ENDBRANCH  17  18
ENDBRANCH  16  17
ENDBRANCH  15  16
ENDBRANCH   1  15
TORSDOF 18
ENDMDL
MODEL 6
REMARK VINA RESULT:      -5.4      2.924      5.045
REMARK  Name = 
REMARK  19 active torsions:
REMARK  status: ('A' for Active; 'I' for Inactive)
REMARK    1  A    between atoms: C_1  and  C_2
REMARK    2  A    between atoms: C_2  and  C_3
REMARK    3  A    between atoms: C_3  and  C_4
REMARK    4  A    between atoms: C_4  and  C_5
REMARK    5  A    between atoms: C_5  and  C_6
REMARK    6  A    between atoms: C_6  and  C_7
REMARK    7  A    between atoms: C_7  and  C_8
REMARK    8  A    between atoms: C_8  and  C_9
REMARK    9  A    between atoms: C_9  and  C_10
REMARK   10  A    between atoms: C_10  and  C_11
REMARK   11  A    between atoms: C_11  and  C_12
REMARK   12  A    between atoms: C_12  and  P_13
REMARK   13  A    between atoms: P_13  and  O_15
REMARK   14  A    between atoms: P_13  and  O_16
REMARK   15  A    between atoms: O_16  and  C_17
REMARK   16  A    between atoms: C_17  and  C_18
REMARK   17  A    between atoms: C_18  and  N_19
REMARK   18  A    between atoms: C_18  and  C_20
REMARK   19  A    between atoms: C_20  and  O_22
REMARK                            x       y       z     vdW  Elec       q    Type
REMARK                         _______ _______ _______ _____ _____    ______ ____
ROOT
ATOM      1  P   UNK     1       4.396   3.410  19.013  0.00  0.00    +0.000 P 
ATOM      2  O   UNK     1       5.238   2.569  19.887  0.00  0.00    +0.000 OA
ENDROOT
BRANCH   1   3
ATOM      3  O   UNK     1       3.567   2.540  17.927  0.00  0.00    +0.000 OA
ATOM      4  H   UNK     1       3.215   1.686  18.235  0.00  0.00    +0.000 HD
ENDBRANCH   1   3
BRANCH   1   5
ATOM      5  O   UNK     1       5.206   4.400  18.030  0.00  0.00    +0.000 OA
BRANCH   5   6
ATOM      6  C   UNK     1       4.945   4.453  16.626  0.00  0.00    +0.000 C 
BRANCH   6   7
ATOM      7  C   UNK     1       6.053   3.926  15.656  0.00  0.00    +0.000 C 
BRANCH   7   8
ATOM      8  N   UNK     1       5.727   3.934  14.211  0.00  0.00    +0.000 NA
ATOM      9  H   UNK     1       4.867   4.469  14.060  0.00  0.00    +0.000 HD
ATOM     10  H   UNK     1       5.479   2.974  13.951  0.00  0.00    +0.000 HD
ENDBRANCH   7   8
BRANCH   7  11
ATOM     11  C   UNK     1       7.322   4.760  15.913  0.00  0.00    +0.000 C 
ATOM     12  O   UNK     1       7.659   5.715  15.221  0.00  0.00    +0.000 OA
BRANCH  11  13
ATOM     13  O   UNK     1       8.051   4.371  16.997  0.00  0.00    +0.000 OA
ATOM     14  H   UNK     1       8.159   5.099  17.626  0.00  0.00    +0.000 HD
ENDBRANCH  11  13
ENDBRANCH   7  11
ENDBRANCH   6   7
ENDBRANCH   5   6
ENDBRANCH   1   5
BRANCH   1  15
ATOM     15  C   UNK     1       3.062   4.295  19.890  0.00  0.00    +0.000 C 
BRANCH  15  16
ATOM     16  C   UNK     1       1.923   4.563  18.877  0.00  0.00    +0.000 C 
BRANCH  16  17
ATOM     17  C   UNK     1       1.991   5.797  17.964  0.00  0.00    +0.000 C 
BRANCH  17  18
ATOM     18  C   UNK     1       2.880   6.905  18.591  0.00  0.00    +0.000 C 
BRANCH  18  19
ATOM     19  C   UNK     1       2.891   8.216  17.788  0.00  0.00    +0.000 C 
BRANCH  19  20
ATOM     20  C   UNK     1       1.504   8.856  17.644  0.00  0.00    +0.000 C 
BRANCH  20  21
ATOM     21  C   UNK     1       1.318  10.083  18.554  0.00  0.00    +0.000 C 
BRANCH  21  22
ATOM     22  C   UNK     1       0.402   9.866  19.771  0.00  0.00    +0.000 C 
BRANCH  22  23
ATOM     23  C   UNK     1      -0.805  10.827  19.835  0.00  0.00    +0.000 C 
BRANCH  23  24
ATOM     24  C   UNK     1      -1.366  11.142  18.441  0.00  0.00    +0.000 C 
BRANCH  24  26
ATOM     25  C   UNK     1      -2.471  10.083  16.325  0.00  0.00    +0.000 C 
ATOM     26  C   UNK     1      -2.303  10.077  17.843  0.00  0.00    +0.000 C 
ENDBRANCH  24  26
ENDBRANCH  23  24
ENDBRANCH  22  23
ENDBRANCH  21  22
ENDBRANCH  20  21
ENDBRANCH  19  20
ENDBRANCH  18  19
ENDBRANCH  17  18
ENDBRANCH  16  17
ENDBRANCH  15  16
ENDBRANCH   1  15
TORSDOF 18
ENDMDL
MODEL 7
REMARK VINA RESULT:      -5.3      0.948      1.352
REMARK  Name = 
REMARK  19 active torsions:
REMARK  status: ('A' for Active; 'I' for Inactive)
REMARK    1  A    between atoms: C_1  and  C_2
REMARK    2  A    between atoms: C_2  and  C_3
REMARK    3  A    between atoms: C_3  and  C_4
REMARK    4  A    between atoms: C_4  and  C_5
REMARK    5  A    between atoms: C_5  and  C_6
REMARK    6  A    between atoms: C_6  and  C_7
REMARK    7  A    between atoms: C_7  and  C_8
REMARK    8  A    between atoms: C_8  and  C_9
REMARK    9  A    between atoms: C_9  and  C_10
REMARK   10  A    between atoms: C_10  and  C_11
REMARK   11  A    between atoms: C_11  and  C_12
REMARK   12  A    between atoms: C_12  and  P_13
REMARK   13  A    between atoms: P_13  and  O_15
REMARK   14  A    between atoms: P_13  and  O_16
REMARK   15  A    between atoms: O_16  and  C_17
REMARK   16  A    between atoms: C_17  and  C_18
REMARK   17  A    between atoms: C_18  and  N_19
REMARK   18  A    between atoms: C_18  and  C_20
REMARK   19  A    between atoms: C_20  and  O_22
REMARK                            x       y       z     vdW  Elec       q    Type
REMARK                         _______ _______ _______ _____ _____    ______ ____
ROOT
ATOM      1  P   UNK     1       6.900   5.341  17.195  0.00  0.00    +0.000 P 
ATOM      2  O   UNK     1       7.743   6.363  16.544  0.00  0.00    +0.000 OA
ENDROOT
BRANCH   1   3
ATOM      3  O   UNK     1       7.773   4.216  17.965  0.00  0.00    +0.000 OA
ATOM      4  H   UNK     1       7.458   3.298  17.891  0.00  0.00    +0.000 HD
ENDBRANCH   1   3
BRANCH   1   5
ATOM      5  O   UNK     1       6.053   4.409  16.188  0.00  0.00    +0.000 OA
BRANCH   5   6
ATOM      6  C   UNK     1       6.632   3.850  15.006  0.00  0.00    +0.000 C 
BRANCH   6   7
ATOM      7  C   UNK     1       6.690   4.746  13.726  0.00  0.00    +0.000 C 
BRANCH   7   8
ATOM      8  N   UNK     1       7.926   5.539  13.527  0.00  0.00    +0.000 NA
ATOM      9  H   UNK     1       8.524   5.448  14.354  0.00  0.00    +0.000 HD
ATOM     10  H   UNK     1       7.654   6.526  13.516  0.00  0.00    +0.000 HD
ENDBRANCH   7   8
BRANCH   7  11
ATOM     11  C   UNK     1       6.454   3.828  12.512  0.00  0.00    +0.000 C 
ATOM     12  O   UNK     1       5.438   3.159  12.354  0.00  0.00    +0.000 OA
BRANCH  11  13
ATOM     13  O   UNK     1       7.463   3.823  11.596  0.00  0.00    +0.000 OA
ATOM     14  H   UNK     1       7.868   4.699  11.517  0.00  0.00    +0.000 HD
ENDBRANCH  11  13
ENDBRANCH   7  11
ENDBRANCH   6   7
ENDBRANCH   5   6
ENDBRANCH   1   5
BRANCH   1  15
ATOM     15  C   UNK     1       5.846   5.989  18.539  0.00  0.00    +0.000 C 
BRANCH  15  16
ATOM     16  C   UNK     1       4.372   5.880  18.082  0.00  0.00    +0.000 C 
BRANCH  16  17
ATOM     17  C   UNK     1       3.541   7.156  17.880  0.00  0.00    +0.000 C 
BRANCH  17  18
ATOM     18  C   UNK     1       2.213   7.088  18.683  0.00  0.00    +0.000 C 
BRANCH  18  19
ATOM     19  C   UNK     1       2.360   6.437  20.068  0.00  0.00    +0.000 C 
BRANCH  19  20
ATOM     20  C   UNK     1       1.614   5.103  20.198  0.00  0.00    +0.000 C 
BRANCH  20  21
ATOM     21  C   UNK     1       2.205   4.196  21.293  0.00  0.00    +0.000 C 
BRANCH  21  22
ATOM     22  C   UNK     1       2.402   2.724  20.893  0.00  0.00    +0.000 C 
BRANCH  22  23
ATOM     23  C   UNK     1       3.743   2.432  20.187  0.00  0.00    +0.000 C 
BRANCH  23  24
ATOM     24  C   UNK     1       3.549   1.641  18.885  0.00  0.00    +0.000 C 
BRANCH  24  26
ATOM     25  C   UNK     1       2.238   3.134  17.192  0.00  0.00    +0.000 C 
ATOM     26  C   UNK     1       3.556   2.474  17.591  0.00  0.00    +0.000 C 
ENDBRANCH  24  26
ENDBRANCH  23  24
ENDBRANCH  22  23
ENDBRANCH  21  22
ENDBRANCH  20  21
ENDBRANCH  19  20
ENDBRANCH  18  19
ENDBRANCH  17  18
ENDBRANCH  16  17
ENDBRANCH  15  16
ENDBRANCH   1  15
TORSDOF 18
ENDMDL
MODEL 8
REMARK VINA RESULT:      -5.3      4.678      8.380
REMARK  Name = 
REMARK  19 active torsions:
REMARK  status: ('A' for Active; 'I' for Inactive)
REMARK    1  A    between atoms: C_1  and  C_2
REMARK    2  A    between atoms: C_2  and  C_3
REMARK    3  A    between atoms: C_3  and  C_4
REMARK    4  A    between atoms: C_4  and  C_5
REMARK    5  A    between atoms: C_5  and  C_6
REMARK    6  A    between atoms: C_6  and  C_7
REMARK    7  A    between atoms: C_7  and  C_8
REMARK    8  A    between atoms: C_8  and  C_9
REMARK    9  A    between atoms: C_9  and  C_10
REMARK   10  A    between atoms: C_10  and  C_11
REMARK   11  A    between atoms: C_11  and  C_12
REMARK   12  A    between atoms: C_12  and  P_13
REMARK   13  A    between atoms: P_13  and  O_15
REMARK   14  A    between atoms: P_13  and  O_16
REMARK   15  A    between atoms: O_16  and  C_17
REMARK   16  A    between atoms: C_17  and  C_18
REMARK   17  A    between atoms: C_18  and  N_19
REMARK   18  A    between atoms: C_18  and  C_20
REMARK   19  A    between atoms: C_20  and  O_22
REMARK                            x       y       z     vdW  Elec       q    Type
REMARK                         _______ _______ _______ _____ _____    ______ ____
ROOT
ATOM      1  P   UNK     1       4.299   3.611  17.668  0.00  0.00    +0.000 P 
ATOM      2  O   UNK     1       3.528   2.353  17.662  0.00  0.00    +0.000 OA
ENDROOT
BRANCH   1   3
ATOM      3  O   UNK     1       5.432   3.638  18.824  0.00  0.00    +0.000 OA
ATOM      4  H   UNK     1       5.840   4.502  19.011  0.00  0.00    +0.000 HD
ENDBRANCH   1   3
BRANCH   1   5
ATOM      5  O   UNK     1       3.456   4.929  18.061  0.00  0.00    +0.000 OA
BRANCH   5   6
ATOM      6  C   UNK     1       2.271   4.860  18.858  0.00  0.00    +0.000 C 
BRANCH   6   7
ATOM      7  C   UNK     1       2.418   5.040  20.404  0.00  0.00    +0.000 C 
BRANCH   7   8
ATOM      8  N   UNK     1       1.898   6.304  20.976  0.00  0.00    +0.000 NA
ATOM      9  H   UNK     1       2.555   6.653  21.680  0.00  0.00    +0.000 HD
ATOM     10  H   UNK     1       1.054   6.071  21.508  0.00  0.00    +0.000 HD
ENDBRANCH   7   8
BRANCH   7  11
ATOM     11  C   UNK     1       1.728   3.837  21.074  0.00  0.00    +0.000 C 
ATOM     12  O   UNK     1       2.099   3.344  22.134  0.00  0.00    +0.000 OA
BRANCH  11  13
ATOM     13  O   UNK     1       0.641   3.359  20.405  0.00  0.00    +0.000 OA
ATOM     14  H   UNK     1       0.257   2.595  20.862  0.00  0.00    +0.000 HD
ENDBRANCH  11  13
ENDBRANCH   7  11
ENDBRANCH   6   7
ENDBRANCH   5   6
ENDBRANCH   1   5
BRANCH   1  15
ATOM     15  C   UNK     1       5.289   3.886  16.159  0.00  0.00    +0.000 C 
BRANCH  15  16
ATOM     16  C   UNK     1       6.697   4.362  16.593  0.00  0.00    +0.000 C 
BRANCH  16  17
ATOM     17  C   UNK     1       7.109   5.824  16.367  0.00  0.00    +0.000 C 
BRANCH  17  18
ATOM     18  C   UNK     1       7.428   6.527  17.716  0.00  0.00    +0.000 C 
BRANCH  18  19
ATOM     19  C   UNK     1       7.458   8.061  17.621  0.00  0.00    +0.000 C 
BRANCH  19  20
ATOM     20  C   UNK     1       8.543   8.706  18.494  0.00  0.00    +0.000 C 
BRANCH  20  21
ATOM     21  C   UNK     1       8.878  10.143  18.059  0.00  0.00    +0.000 C 
BRANCH  21  22
ATOM     22  C   UNK     1       9.705  10.960  19.067  0.00  0.00    +0.000 C 
BRANCH  22  23
ATOM     23  C   UNK     1       9.985  12.413  18.629  0.00  0.00    +0.000 C 
BRANCH  23  24
ATOM     24  C   UNK     1       8.837  12.994  17.790  0.00  0.00    +0.000 C 
BRANCH  24  26
ATOM     25  C   UNK     1       6.827  14.657  17.679  0.00  0.00    +0.000 C 
ATOM     26  C   UNK     1       8.030  14.123  18.454  0.00  0.00    +0.000 C 
ENDBRANCH  24  26
ENDBRANCH  23  24
ENDBRANCH  22  23
ENDBRANCH  21  22
ENDBRANCH  20  21
ENDBRANCH  19  20
ENDBRANCH  18  19
ENDBRANCH  17  18
ENDBRANCH  16  17
ENDBRANCH  15  16
ENDBRANCH   1  15
TORSDOF 18
ENDMDL
MODEL 9
REMARK VINA RESULT:      -5.3      2.013      2.873
REMARK  Name = 
REMARK  19 active torsions:
REMARK  status: ('A' for Active; 'I' for Inactive)
REMARK    1  A    between atoms: C_1  and  C_2
REMARK    2  A    between atoms: C_2  and  C_3
REMARK    3  A    between atoms: C_3  and  C_4
REMARK    4  A    between atoms: C_4  and  C_5
REMARK    5  A    between atoms: C_5  and  C_6
REMARK    6  A    between atoms: C_6  and  C_7
REMARK    7  A    between atoms: C_7  and  C_8
REMARK    8  A    between atoms: C_8  and  C_9
REMARK    9  A    between atoms: C_9  and  C_10
REMARK   10  A    between atoms: C_10  and  C_11
REMARK   11  A    between atoms: C_11  and  C_12
REMARK   12  A    between atoms: C_12  and  P_13
REMARK   13  A    between atoms: P_13  and  O_15
REMARK   14  A    between atoms: P_13  and  O_16
REMARK   15  A    between atoms: O_16  and  C_17
REMARK   16  A    between atoms: C_17  and  C_18
REMARK   17  A    between atoms: C_18  and  N_19
REMARK   18  A    between atoms: C_18  and  C_20
REMARK   19  A    between atoms: C_20  and  O_22
REMARK                            x       y       z     vdW  Elec       q    Type
REMARK                         _______ _______ _______ _____ _____    ______ ____
ROOT
ATOM      1  P   UNK     1       6.393   4.690  14.803  0.00  0.00    +0.000 P 
ATOM      2  O   UNK     1       5.560   5.902  14.681  0.00  0.00    +0.000 OA
ENDROOT
BRANCH   1   3
ATOM      3  O   UNK     1       7.734   4.945  15.674  0.00  0.00    +0.000 OA
ATOM      4  H   UNK     1       8.005   5.873  15.791  0.00  0.00    +0.000 HD
ENDBRANCH   1   3
BRANCH   1   5
ATOM      5  O   UNK     1       7.043   4.165  13.423  0.00  0.00    +0.000 OA
BRANCH   5   6
ATOM      6  C   UNK     1       6.282   4.069  12.216  0.00  0.00    +0.000 C 
BRANCH   6   7
ATOM      7  C   UNK     1       5.355   2.823  12.033  0.00  0.00    +0.000 C 
BRANCH   7   8
ATOM      8  N   UNK     1       4.148   3.014  11.196  0.00  0.00    +0.000 NA
ATOM      9  H   UNK     1       3.791   3.966  11.326  0.00  0.00    +0.000 HD
ATOM     10  H   UNK     1       3.414   2.412  11.581  0.00  0.00    +0.000 HD
ENDBRANCH   7   8
BRANCH   7  11
ATOM     11  C   UNK     1       6.221   1.689  11.454  0.00  0.00    +0.000 C 
ATOM     12  O   UNK     1       5.776   0.596  11.121  0.00  0.00    +0.000 OA
BRANCH  11  13
ATOM     13  O   UNK     1       7.543   1.994  11.315  0.00  0.00    +0.000 OA
ATOM     14  H   UNK     1       7.662   2.920  11.057  0.00  0.00    +0.000 HD
ENDBRANCH  11  13
ENDBRANCH   7  11
ENDBRANCH   6   7
ENDBRANCH   5   6
ENDBRANCH   1   5
BRANCH   1  15
ATOM     15  C   UNK     1       5.597   3.326  15.719  0.00  0.00    +0.000 C 
BRANCH  15  16
ATOM     16  C   UNK     1       4.863   3.936  16.937  0.00  0.00    +0.000 C 
BRANCH  16  17
ATOM     17  C   UNK     1       5.667   4.373  18.171  0.00  0.00    +0.000 C 
BRANCH  17  18
ATOM     18  C   UNK     1       4.898   5.449  18.985  0.00  0.00    +0.000 C 
BRANCH  18  19
ATOM     19  C   UNK     1       3.833   6.198  18.168  0.00  0.00    +0.000 C 
BRANCH  19  20
ATOM     20  C   UNK     1       2.408   6.017  18.709  0.00  0.00    +0.000 C 
BRANCH  20  21
ATOM     21  C   UNK     1       2.385   5.461  20.144  0.00  0.00    +0.000 C 
BRANCH  21  22
ATOM     22  C   UNK     1       1.083   4.749  20.553  0.00  0.00    +0.000 C 
BRANCH  22  23
ATOM     23  C   UNK     1       1.205   3.214  20.652  0.00  0.00    +0.000 C 
BRANCH  23  24
ATOM     24  C   UNK     1       2.659   2.740  20.508  0.00  0.00    +0.000 C 
BRANCH  24  26
ATOM     25  C   UNK     1       2.103   2.218  18.011  0.00  0.00    +0.000 C 
ATOM     26  C   UNK     1       2.977   1.940  19.232  0.00  0.00    +0.000 C 
ENDBRANCH  24  26
ENDBRANCH  23  24
ENDBRANCH  22  23
ENDBRANCH  21  22
ENDBRANCH  20  21
ENDBRANCH  19  20
ENDBRANCH  18  19
ENDBRANCH  17  18
ENDBRANCH  16  17
ENDBRANCH  15  16
ENDBRANCH   1  15
TORSDOF 18
ENDMDL
