MODEL 1
REMARK VINA RESULT:      -8.0      0.000      0.000
REMARK  Name = 
REMARK  5 active torsions:
REMARK  status: ('A' for Active; 'I' for Inactive)
REMARK    1  A    between atoms: C_1  and  N_2
REMARK    2  A    between atoms: C_3  and  C_5
REMARK    3  A    between atoms: C_5  and  C_6
REMARK    4  A    between atoms: C_6  and  C_7
REMARK    5  A    between atoms: C_12  and  C_13
REMARK                            x       y       z     vdW  Elec       q    Type
REMARK                         _______ _______ _______ _____ _____    ______ ____
ROOT
ATOM      1  C   UNL     1       6.586   4.586  15.526  0.00  0.00    +0.000 C 
ATOM      2  O   UNL     1       7.750   4.954  15.357  0.00  0.00    +0.000 OA
ATOM      3  N   UNL     1       6.001   4.493  16.775  0.00  0.00    +0.000 N 
ATOM      4  C   UNL     1       6.654   4.793  18.040  0.00  0.00    +0.000 C 
ATOM      5  C   UNL     1       5.527   4.740  19.053  0.00  0.00    +0.000 C 
ATOM      6  C   UNL     1       4.414   4.225  18.181  0.00  0.00    +0.000 C 
ATOM      7  N   UNL     1       4.700   4.120  16.924  0.00  0.00    +0.000 NA
ENDROOT
BRANCH   6   8
ATOM      8  C   UNL     1       3.093   3.864  18.726  0.00  0.00    +0.000 A 
ATOM      9  C   UNL     1       2.574   4.544  19.828  0.00  0.00    +0.000 A 
ATOM     10  C   UNL     1       1.359   4.142  20.379  0.00  0.00    +0.000 A 
ATOM     11  C   UNL     1       0.662   3.068  19.826  0.00  0.00    +0.000 A 
ATOM     12  C   UNL     1       1.168   2.401  18.710  0.00  0.00    +0.000 A 
ATOM     13  C   UNL     1       2.383   2.798  18.156  0.00  0.00    +0.000 A 
ENDBRANCH   6   8
BRANCH   1  14
ATOM     14  C   UNL     1       5.654   4.271  14.362  0.00  0.00    +0.000 C 
BRANCH  14  15
ATOM     15  C   UNL     1       6.402   4.140  13.044  0.00  0.00    +0.000 C 
BRANCH  15  18
ATOM     16  C   UNL     1       6.145   1.025  10.917  0.00  0.00    +0.000 C 
ATOM     17  N   UNL     1       6.591   2.082  11.793  0.00  0.00    +0.000 N 
ATOM     18  C   UNL     1       5.752   3.114  12.137  0.00  0.00    +0.000 C 
ATOM     19  O   UNL     1       4.587   3.184  11.744  0.00  0.00    +0.000 OA
ATOM     20  H   UNL     1       7.556   2.095  12.100  0.00  0.00    +0.000 HD
ENDBRANCH  15  18
ENDBRANCH  14  15
ENDBRANCH   1  14
TORSDOF 4
ENDMDL
MODEL 2
REMARK VINA RESULT:      -7.9      0.318      1.153
REMARK  Name = 
REMARK  5 active torsions:
REMARK  status: ('A' for Active; 'I' for Inactive)
REMARK    1  A    between atoms: C_1  and  N_2
REMARK    2  A    between atoms: C_3  and  C_5
REMARK    3  A    between atoms: C_5  and  C_6
REMARK    4  A    between atoms: C_6  and  C_7
REMARK    5  A    between atoms: C_12  and  C_13
REMARK                            x       y       z     vdW  Elec       q    Type
REMARK                         _______ _______ _______ _____ _____    ______ ____
ROOT
ATOM      1  C   UNL     1       6.542   5.037  15.594  0.00  0.00    +0.000 C 
ATOM      2  O   UNL     1       7.636   5.574  15.408  0.00  0.00    +0.000 OA
ATOM      3  N   UNL     1       5.970   4.911  16.846  0.00  0.00    +0.000 N 
ATOM      4  C   UNL     1       6.558   5.367  18.096  0.00  0.00    +0.000 C 
ATOM      5  C   UNL     1       5.446   5.186  19.110  0.00  0.00    +0.000 C 
ATOM      6  C   UNL     1       4.433   4.464  18.263  0.00  0.00    +0.000 C 
ATOM      7  N   UNL     1       4.741   4.348  17.011  0.00  0.00    +0.000 NA
ENDROOT
BRANCH   6   8
ATOM      8  C   UNL     1       3.180   3.928  18.824  0.00  0.00    +0.000 A 
ATOM      9  C   UNL     1       2.597   2.782  18.282  0.00  0.00    +0.000 A 
ATOM     10  C   UNL     1       1.374   2.331  18.773  0.00  0.00    +0.000 A 
ATOM     11  C   UNL     1       0.737   3.020  19.805  0.00  0.00    +0.000 A 
ATOM     12  C   UNL     1       1.329   4.155  20.363  0.00  0.00    +0.000 A 
ATOM     13  C   UNL     1       2.552   4.610  19.876  0.00  0.00    +0.000 A 
ENDBRANCH   6   8
BRANCH   1  14
ATOM     14  C   UNL     1       5.679   4.528  14.445  0.00  0.00    +0.000 C 
BRANCH  14  15
ATOM     15  C   UNL     1       6.495   4.241  13.195  0.00  0.00    +0.000 C 
BRANCH  15  18
ATOM     16  C   UNL     1       6.053   1.196  10.997  0.00  0.00    +0.000 C 
ATOM     17  N   UNL     1       6.565   2.209  11.889  0.00  0.00    +0.000 N 
ATOM     18  C   UNL     1       5.780   3.268  12.278  0.00  0.00    +0.000 C 
ATOM     19  O   UNL     1       4.612   3.400  11.913  0.00  0.00    +0.000 OA
ATOM     20  H   UNL     1       7.536   2.172  12.174  0.00  0.00    +0.000 HD
ENDBRANCH  15  18
ENDBRANCH  14  15
ENDBRANCH   1  14
TORSDOF 4
ENDMDL
MODEL 3
REMARK VINA RESULT:      -7.8      1.116      1.576
REMARK  Name = 
REMARK  5 active torsions:
REMARK  status: ('A' for Active; 'I' for Inactive)
REMARK    1  A    between atoms: C_1  and  N_2
REMARK    2  A    between atoms: C_3  and  C_5
REMARK    3  A    between atoms: C_5  and  C_6
REMARK    4  A    between atoms: C_6  and  C_7
REMARK    5  A    between atoms: C_12  and  C_13
REMARK                            x       y       z     vdW  Elec       q    Type
REMARK                         _______ _______ _______ _____ _____    ______ ____
ROOT
ATOM      1  C   UNL     1       6.462   4.997  15.541  0.00  0.00    +0.000 C 
ATOM      2  O   UNL     1       7.330   5.785  15.161  0.00  0.00    +0.000 OA
ATOM      3  N   UNL     1       5.611   5.267  16.597  0.00  0.00    +0.000 N 
ATOM      4  C   UNL     1       5.618   6.479  17.402  0.00  0.00    +0.000 C 
ATOM      5  C   UNL     1       4.371   6.357  18.254  0.00  0.00    +0.000 C 
ATOM      6  C   UNL     1       3.946   4.958  17.901  0.00  0.00    +0.000 C 
ATOM      7  N   UNL     1       4.636   4.390  16.965  0.00  0.00    +0.000 NA
ENDROOT
BRANCH   6   8
ATOM      8  C   UNL     1       2.822   4.285  18.576  0.00  0.00    +0.000 A 
ATOM      9  C   UNL     1       2.195   3.190  17.981  0.00  0.00    +0.000 A 
ATOM     10  C   UNL     1       1.086   2.612  18.595  0.00  0.00    +0.000 A 
ATOM     11  C   UNL     1       0.608   3.122  19.801  0.00  0.00    +0.000 A 
ATOM     12  C   UNL     1       1.247   4.204  20.409  0.00  0.00    +0.000 A 
ATOM     13  C   UNL     1       2.356   4.786  19.799  0.00  0.00    +0.000 A 
ENDBRANCH   6   8
BRANCH   1  14
ATOM     14  C   UNL     1       6.194   3.675  14.830  0.00  0.00    +0.000 C 
BRANCH  14  15
ATOM     15  C   UNL     1       5.511   3.872  13.486  0.00  0.00    +0.000 C 
BRANCH  15  18
ATOM     16  C   UNL     1       6.900   1.500  10.891  0.00  0.00    +0.000 C 
ATOM     17  N   UNL     1       6.139   2.114  11.952  0.00  0.00    +0.000 N 
ATOM     18  C   UNL     1       6.391   3.408  12.343  0.00  0.00    +0.000 C 
ATOM     19  O   UNL     1       7.247   4.110  11.806  0.00  0.00    +0.000 OA
ATOM     20  H   UNL     1       5.459   1.560  12.459  0.00  0.00    +0.000 HD
ENDBRANCH  15  18
ENDBRANCH  14  15
ENDBRANCH   1  14
TORSDOF 4
ENDMDL
MODEL 4
REMARK VINA RESULT:      -7.8      1.217      1.509
REMARK  Name = 
REMARK  5 active torsions:
REMARK  status: ('A' for Active; 'I' for Inactive)
REMARK    1  A    between atoms: C_1  and  N_2
REMARK    2  A    between atoms: C_3  and  C_5
REMARK    3  A    between atoms: C_5  and  C_6
REMARK    4  A    between atoms: C_6  and  C_7
REMARK    5  A    between atoms: C_12  and  C_13
REMARK                            x       y       z     vdW  Elec       q    Type
REMARK                         _______ _______ _______ _____ _____    ______ ____
ROOT
ATOM      1  C   UNL     1       6.635   4.580  15.107  0.00  0.00    +0.000 C 
ATOM      2  O   UNL     1       7.723   5.091  14.834  0.00  0.00    +0.000 OA
ATOM      3  N   UNL     1       6.142   4.505  16.397  0.00  0.00    +0.000 N 
ATOM      4  C   UNL     1       6.816   4.991  17.591  0.00  0.00    +0.000 C 
ATOM      5  C   UNL     1       5.768   4.864  18.678  0.00  0.00    +0.000 C 
ATOM      6  C   UNL     1       4.692   4.132  17.922  0.00  0.00    +0.000 C 
ATOM      7  N   UNL     1       4.917   3.969  16.658  0.00  0.00    +0.000 NA
ENDROOT
BRANCH   6   8
ATOM      8  C   UNL     1       3.470   3.637  18.579  0.00  0.00    +0.000 A 
ATOM      9  C   UNL     1       2.241   3.693  17.920  0.00  0.00    +0.000 A 
ATOM     10  C   UNL     1       1.083   3.292  18.581  0.00  0.00    +0.000 A 
ATOM     11  C   UNL     1       1.152   2.831  19.895  0.00  0.00    +0.000 A 
ATOM     12  C   UNL     1       2.382   2.752  20.550  0.00  0.00    +0.000 A 
ATOM     13  C   UNL     1       3.543   3.153  19.893  0.00  0.00    +0.000 A 
ENDBRANCH   6   8
BRANCH   1  14
ATOM     14  C   UNL     1       5.692   4.048  14.033  0.00  0.00    +0.000 C 
BRANCH  14  15
ATOM     15  C   UNL     1       6.434   3.614  12.779  0.00  0.00    +0.000 C 
BRANCH  15  18
ATOM     16  C   UNL     1       3.378   3.049  10.626  0.00  0.00    +0.000 C 
ATOM     17  N   UNL     1       4.377   3.597  11.512  0.00  0.00    +0.000 N 
ATOM     18  C   UNL     1       5.516   2.891  11.814  0.00  0.00    +0.000 C 
ATOM     19  O   UNL     1       5.757   1.781  11.337  0.00  0.00    +0.000 OA
ATOM     20  H   UNL     1       4.199   4.483  11.970  0.00  0.00    +0.000 HD
ENDBRANCH  15  18
ENDBRANCH  14  15
ENDBRANCH   1  14
TORSDOF 4
ENDMDL
MODEL 5
REMARK VINA RESULT:      -7.5      3.924      6.626
REMARK  Name = 
REMARK  5 active torsions:
REMARK  status: ('A' for Active; 'I' for Inactive)
REMARK    1  A    between atoms: C_1  and  N_2
REMARK    2  A    between atoms: C_3  and  C_5
REMARK    3  A    between atoms: C_5  and  C_6
REMARK    4  A    between atoms: C_6  and  C_7
REMARK    5  A    between atoms: C_12  and  C_13
REMARK                            x       y       z     vdW  Elec       q    Type
REMARK                         _______ _______ _______ _____ _____    ______ ____
ROOT
ATOM      1  C   UNL     1       1.837   5.897  20.495  0.00  0.00    +0.000 C 
ATOM      2  O   UNL     1       0.965   6.588  21.025  0.00  0.00    +0.000 OA
ATOM      3  N   UNL     1       2.550   6.308  19.385  0.00  0.00    +0.000 N 
ATOM      4  C   UNL     1       2.377   7.573  18.687  0.00  0.00    +0.000 C 
ATOM      5  C   UNL     1       3.531   7.608  17.705  0.00  0.00    +0.000 C 
ATOM      6  C   UNL     1       4.082   6.222  17.897  0.00  0.00    +0.000 C 
ATOM      7  N   UNL     1       3.535   5.535  18.847  0.00  0.00    +0.000 NA
ENDROOT
BRANCH   6   8
ATOM      8  C   UNL     1       5.169   5.686  17.058  0.00  0.00    +0.000 A 
ATOM      9  C   UNL     1       5.088   5.757  15.666  0.00  0.00    +0.000 A 
ATOM     10  C   UNL     1       6.087   5.179  14.886  0.00  0.00    +0.000 A 
ATOM     11  C   UNL     1       7.165   4.537  15.493  0.00  0.00    +0.000 A 
ATOM     12  C   UNL     1       7.260   4.483  16.885  0.00  0.00    +0.000 A 
ATOM     13  C   UNL     1       6.264   5.059  17.669  0.00  0.00    +0.000 A 
ENDBRANCH   6   8
BRANCH   1  14
ATOM     14  C   UNL     1       2.266   4.548  21.064  0.00  0.00    +0.000 C 
BRANCH  14  15
ATOM     15  C   UNL     1       1.226   3.465  20.822  0.00  0.00    +0.000 C 
BRANCH  15  18
ATOM     16  C   UNL     1       3.240   1.897  18.033  0.00  0.00    +0.000 C 
ATOM     17  N   UNL     1       2.814   2.554  19.245  0.00  0.00    +0.000 N 
ATOM     18  C   UNL     1       1.479   2.734  19.519  0.00  0.00    +0.000 C 
ATOM     19  O   UNL     1       0.587   2.333  18.772  0.00  0.00    +0.000 OA
ATOM     20  H   UNL     1       3.512   2.948  19.865  0.00  0.00    +0.000 HD
ENDBRANCH  15  18
ENDBRANCH  14  15
ENDBRANCH   1  14
TORSDOF 4
ENDMDL
MODEL 6
REMARK VINA RESULT:      -7.4      1.228      1.249
REMARK  Name = 
REMARK  5 active torsions:
REMARK  status: ('A' for Active; 'I' for Inactive)
REMARK    1  A    between atoms: C_1  and  N_2
REMARK    2  A    between atoms: C_3  and  C_5
REMARK    3  A    between atoms: C_5  and  C_6
REMARK    4  A    between atoms: C_6  and  C_7
REMARK    5  A    between atoms: C_12  and  C_13
REMARK                            x       y       z     vdW  Elec       q    Type
REMARK                         _______ _______ _______ _____ _____    ______ ____
ROOT
ATOM      1  C   UNL     1       6.708   4.345  15.852  0.00  0.00    +0.000 C 
ATOM      2  O   UNL     1       7.769   4.825  15.452  0.00  0.00    +0.000 OA
ATOM      3  N   UNL     1       6.220   4.557  17.128  0.00  0.00    +0.000 N 
ATOM      4  C   UNL     1       6.873   5.343  18.164  0.00  0.00    +0.000 C 
ATOM      5  C   UNL     1       5.834   5.430  19.264  0.00  0.00    +0.000 C 
ATOM      6  C   UNL     1       4.793   4.492  18.717  0.00  0.00    +0.000 C 
ATOM      7  N   UNL     1       5.023   4.043  17.526  0.00  0.00    +0.000 NA
ENDROOT
BRANCH   6   8
ATOM      8  C   UNL     1       3.595   4.112  19.489  0.00  0.00    +0.000 A 
ATOM      9  C   UNL     1       2.542   5.013  19.648  0.00  0.00    +0.000 A 
ATOM     10  C   UNL     1       1.451   4.668  20.442  0.00  0.00    +0.000 A 
ATOM     11  C   UNL     1       1.410   3.424  21.072  0.00  0.00    +0.000 A 
ATOM     12  C   UNL     1       2.452   2.512  20.896  0.00  0.00    +0.000 A 
ATOM     13  C   UNL     1       3.545   2.853  20.103  0.00  0.00    +0.000 A 
ENDBRANCH   6   8
BRANCH   1  14
ATOM     14  C   UNL     1       5.789   3.530  14.947  0.00  0.00    +0.000 C 
BRANCH  14  15
ATOM     15  C   UNL     1       5.532   4.220  13.617  0.00  0.00    +0.000 C 
BRANCH  15  18
ATOM     16  C   UNL     1       6.574   1.559  11.141  0.00  0.00    +0.000 C 
ATOM     17  N   UNL     1       5.909   2.322  12.170  0.00  0.00    +0.000 N 
ATOM     18  C   UNL     1       6.335   3.586  12.499  0.00  0.00    +0.000 C 
ATOM     19  O   UNL     1       7.277   4.140  11.930  0.00  0.00    +0.000 OA
ATOM     20  H   UNL     1       5.162   1.890  12.702  0.00  0.00    +0.000 HD
ENDBRANCH  15  18
ENDBRANCH  14  15
ENDBRANCH   1  14
TORSDOF 4
ENDMDL
MODEL 7
REMARK VINA RESULT:      -7.4      1.044      1.060
REMARK  Name = 
REMARK  5 active torsions:
REMARK  status: ('A' for Active; 'I' for Inactive)
REMARK    1  A    between atoms: C_1  and  N_2
REMARK    2  A    between atoms: C_3  and  C_5
REMARK    3  A    between atoms: C_5  and  C_6
REMARK    4  A    between atoms: C_6  and  C_7
REMARK    5  A    between atoms: C_12  and  C_13
REMARK                            x       y       z     vdW  Elec       q    Type
REMARK                         _______ _______ _______ _____ _____    ______ ____
ROOT
ATOM      1  C   UNL     1       6.663   4.330  15.856  0.00  0.00    +0.000 C 
ATOM      2  O   UNL     1       7.723   4.878  15.550  0.00  0.00    +0.000 OA
ATOM      3  N   UNL     1       6.057   4.500  17.087  0.00  0.00    +0.000 N 
ATOM      4  C   UNL     1       6.569   5.314  18.178  0.00  0.00    +0.000 C 
ATOM      5  C   UNL     1       5.436   5.328  19.185  0.00  0.00    +0.000 C 
ATOM      6  C   UNL     1       4.505   4.333  18.548  0.00  0.00    +0.000 C 
ATOM      7  N   UNL     1       4.864   3.910  17.378  0.00  0.00    +0.000 NA
ENDROOT
BRANCH   6   8
ATOM      8  C   UNL     1       3.273   3.873  19.212  0.00  0.00    +0.000 A 
ATOM      9  C   UNL     1       3.288   3.517  20.561  0.00  0.00    +0.000 A 
ATOM     10  C   UNL     1       2.133   3.013  21.155  0.00  0.00    +0.000 A 
ATOM     11  C   UNL     1       0.966   2.869  20.406  0.00  0.00    +0.000 A 
ATOM     12  C   UNL     1       0.942   3.245  19.062  0.00  0.00    +0.000 A 
ATOM     13  C   UNL     1       2.094   3.750  18.463  0.00  0.00    +0.000 A 
ENDBRANCH   6   8
BRANCH   1  14
ATOM     14  C   UNL     1       5.877   3.470  14.873  0.00  0.00    +0.000 C 
BRANCH  14  15
ATOM     15  C   UNL     1       5.614   4.190  13.560  0.00  0.00    +0.000 C 
BRANCH  15  18
ATOM     16  C   UNL     1       6.824   1.612  11.073  0.00  0.00    +0.000 C 
ATOM     17  N   UNL     1       6.114   2.324  12.108  0.00  0.00    +0.000 N 
ATOM     18  C   UNL     1       6.451   3.616  12.435  0.00  0.00    +0.000 C 
ATOM     19  O   UNL     1       7.345   4.236  11.858  0.00  0.00    +0.000 OA
ATOM     20  H   UNL     1       5.405   1.839  12.646  0.00  0.00    +0.000 HD
ENDBRANCH  15  18
ENDBRANCH  14  15
ENDBRANCH   1  14
TORSDOF 4
ENDMDL
MODEL 8
REMARK VINA RESULT:      -7.4      3.272      4.920
REMARK  Name = 
REMARK  5 active torsions:
REMARK  status: ('A' for Active; 'I' for Inactive)
REMARK    1  A    between atoms: C_1  and  N_2
REMARK    2  A    between atoms: C_3  and  C_5
REMARK    3  A    between atoms: C_5  and  C_6
REMARK    4  A    between atoms: C_6  and  C_7
REMARK    5  A    between atoms: C_12  and  C_13
REMARK                            x       y       z     vdW  Elec       q    Type
REMARK                         _______ _______ _______ _____ _____    ______ ____
ROOT
ATOM      1  C   UNL     1       5.205   4.383  19.273  0.00  0.00    +0.000 C 
ATOM      2  O   UNL     1       5.450   3.199  19.509  0.00  0.00    +0.000 OA
ATOM      3  N   UNL     1       3.966   4.954  19.497  0.00  0.00    +0.000 N 
ATOM      4  C   UNL     1       2.797   4.262  20.017  0.00  0.00    +0.000 C 
ATOM      5  C   UNL     1       1.798   5.374  20.269  0.00  0.00    +0.000 C 
ATOM      6  C   UNL     1       2.536   6.534  19.659  0.00  0.00    +0.000 C 
ATOM      7  N   UNL     1       3.740   6.277  19.261  0.00  0.00    +0.000 NA
ENDROOT
BRANCH   6   8
ATOM      8  C   UNL     1       1.926   7.869  19.523  0.00  0.00    +0.000 A 
ATOM      9  C   UNL     1       1.264   8.456  20.602  0.00  0.00    +0.000 A 
ATOM     10  C   UNL     1       0.627   9.684  20.437  0.00  0.00    +0.000 A 
ATOM     11  C   UNL     1       0.657  10.326  19.199  0.00  0.00    +0.000 A 
ATOM     12  C   UNL     1       1.337   9.752  18.124  0.00  0.00    +0.000 A 
ATOM     13  C   UNL     1       1.975   8.524  18.284  0.00  0.00    +0.000 A 
ENDBRANCH   6   8
BRANCH   1  14
ATOM     14  C   UNL     1       6.273   5.354  18.780  0.00  0.00    +0.000 C 
BRANCH  14  15
ATOM     15  C   UNL     1       7.336   4.663  17.939  0.00  0.00    +0.000 C 
BRANCH  15  18
ATOM     16  C   UNL     1       6.097   3.869  14.457  0.00  0.00    +0.000 C 
ATOM     17  N   UNL     1       6.397   3.846  15.868  0.00  0.00    +0.000 N 
ATOM     18  C   UNL     1       7.094   4.873  16.458  0.00  0.00    +0.000 C 
ATOM     19  O   UNL     1       7.475   5.864  15.833  0.00  0.00    +0.000 OA
ATOM     20  H   UNL     1       6.150   3.029  16.414  0.00  0.00    +0.000 HD
ENDBRANCH  15  18
ENDBRANCH  14  15
ENDBRANCH   1  14
TORSDOF 4
ENDMDL
MODEL 9
REMARK VINA RESULT:      -7.3      1.403      1.773
REMARK  Name = 
REMARK  5 active torsions:
REMARK  status: ('A' for Active; 'I' for Inactive)
REMARK    1  A    between atoms: C_1  and  N_2
REMARK    2  A    between atoms: C_3  and  C_5
REMARK    3  A    between atoms: C_5  and  C_6
REMARK    4  A    between atoms: C_6  and  C_7
REMARK    5  A    between atoms: C_12  and  C_13
REMARK                            x       y       z     vdW  Elec       q    Type
REMARK                         _______ _______ _______ _____ _____    ______ ____
ROOT
ATOM      1  C   UNL     1       6.745   4.717  14.400  0.00  0.00    +0.000 C 
ATOM      2  O   UNL     1       7.715   5.403  14.076  0.00  0.00    +0.000 OA
ATOM      3  N   UNL     1       6.124   4.827  15.631  0.00  0.00    +0.000 N 
ATOM      4  C   UNL     1       6.518   5.732  16.700  0.00  0.00    +0.000 C 
ATOM      5  C   UNL     1       5.398   5.607  17.714  0.00  0.00    +0.000 C 
ATOM      6  C   UNL     1       4.617   4.475  17.105  0.00  0.00    +0.000 C 
ATOM      7  N   UNL     1       5.028   4.081  15.943  0.00  0.00    +0.000 NA
ENDROOT
BRANCH   6   8
ATOM      8  C   UNL     1       3.465   3.860  17.788  0.00  0.00    +0.000 A 
ATOM      9  C   UNL     1       3.302   2.474  17.790  0.00  0.00    +0.000 A 
ATOM     10  C   UNL     1       2.169   1.913  18.374  0.00  0.00    +0.000 A 
ATOM     11  C   UNL     1       1.203   2.732  18.957  0.00  0.00    +0.000 A 
ATOM     12  C   UNL     1       1.374   4.117  18.976  0.00  0.00    +0.000 A 
ATOM     13  C   UNL     1       2.505   4.684  18.393  0.00  0.00    +0.000 A 
ENDBRANCH   6   8
BRANCH   1  14
ATOM     14  C   UNL     1       6.086   3.731  13.442  0.00  0.00    +0.000 C 
BRANCH  14  15
ATOM     15  C   UNL     1       6.693   3.789  12.049  0.00  0.00    +0.000 C 
BRANCH  15  18
ATOM     16  C   UNL     1       5.953   0.185  11.179  0.00  0.00    +0.000 C 
ATOM     17  N   UNL     1       5.877   1.554  11.629  0.00  0.00    +0.000 N 
ATOM     18  C   UNL     1       6.951   2.401  11.498  0.00  0.00    +0.000 C 
ATOM     19  O   UNL     1       8.012   2.055  10.977  0.00  0.00    +0.000 OA
ATOM     20  H   UNL     1       5.044   1.870  12.111  0.00  0.00    +0.000 HD
ENDBRANCH  15  18
ENDBRANCH  14  15
ENDBRANCH   1  14
TORSDOF 4
ENDMDL
