MODEL 1
REMARK VINA RESULT:      -7.7      0.000      0.000
REMARK  Name = 
REMARK  14 active torsions:
REMARK  status: ('A' for Active; 'I' for Inactive)
REMARK    1  A    between atoms: C_1  and  C_2
REMARK    2  A    between atoms: C_2  and  C_3
REMARK    3  A    between atoms: C_3  and  C_4
REMARK    4  A    between atoms: C_5  and  O_6
REMARK    5  A    between atoms: O_6  and  C_7
REMARK    6  A    between atoms: C_7  and  C_8
REMARK    7  A    between atoms: C_11  and  C_12
REMARK    8  A    between atoms: C_13  and  C_14
REMARK    9  A    between atoms: C_14  and  O_16
REMARK   10  A    between atoms: C_18  and  O_19
REMARK   11  A    between atoms: O_19  and  C_20
REMARK   12  A    between atoms: C_23  and  C_24
REMARK   13  A    between atoms: C_24  and  C_25
REMARK   14  A    between atoms: C_27  and  O_28
REMARK                            x       y       z     vdW  Elec       q    Type
REMARK                         _______ _______ _______ _____ _____    ______ ____
ROOT
ATOM      1  O   UNL     1       2.258   7.155  19.189  0.00  0.00    +0.000 OA
ENDROOT
BRANCH   1   3
ATOM      2  C   UNL     1       3.812   5.352  19.068  0.00  0.00    +0.000 A 
ATOM      3  C   UNL     1       3.347   6.590  18.581  0.00  0.00    +0.000 A 
ATOM      4  C   UNL     1       3.999   7.188  17.494  0.00  0.00    +0.000 A 
ATOM      5  C   UNL     1       5.023   6.529  16.814  0.00  0.00    +0.000 A 
ATOM      6  C   UNL     1       5.459   5.272  17.232  0.00  0.00    +0.000 A 
ATOM      7  C   UNL     1       4.867   4.710  18.380  0.00  0.00    +0.000 A 
BRANCH   6   8
ATOM      8  C   UNL     1       6.527   4.531  16.491  0.00  0.00    +0.000 C 
ATOM      9  C   UNL     1       6.269   3.904  15.143  0.00  0.00    +0.000 C 
ATOM     10  O   UNL     1       7.640   4.427  17.014  0.00  0.00    +0.000 OA
ENDBRANCH   6   8
BRANCH   7  11
ATOM     11  O   UNL     1       5.281   3.496  18.879  0.00  0.00    +0.000 OA
ATOM     12  H   UNL     1       4.698   3.258  19.636  0.00  0.00    +0.000 HD
ENDBRANCH   7  11
BRANCH   2  13
ATOM     13  C   UNL     1       3.220   4.693  20.301  0.00  0.00    +0.000 C 
BRANCH  13  15
ATOM     14  C   UNL     1       1.512   3.054  21.209  0.00  0.00    +0.000 C 
ATOM     15  C   UNL     1       2.007   3.810  19.982  0.00  0.00    +0.000 C 
ENDBRANCH  13  15
ENDBRANCH   2  13
ENDBRANCH   1   3
BRANCH   1  16
ATOM     16  C   UNL     1       1.871   8.497  18.828  0.00  0.00    +0.000 C 
BRANCH  16  17
ATOM     17  C   UNL     1       1.014   9.163  19.888  0.00  0.00    +0.000 A 
ATOM     18  C   UNL     1       1.128   8.759  21.226  0.00  0.00    +0.000 A 
ATOM     19  C   UNL     1       0.367   9.359  22.225  0.00  0.00    +0.000 A 
ATOM     20  C   UNL     1      -0.519  10.392  21.917  0.00  0.00    +0.000 A 
ATOM     21  C   UNL     1      -0.703  10.746  20.572  0.00  0.00    +0.000 A 
ATOM     22  C   UNL     1       0.047  10.132  19.555  0.00  0.00    +0.000 A 
BRANCH  20  23
ATOM     23  C   UNL     1      -1.279  11.084  22.970  0.00  0.00    +0.000 C 
ATOM     24  C   UNL     1      -2.341  11.861  22.701  0.00  0.00    +0.000 C 
BRANCH  24  25
ATOM     25  C   UNL     1      -3.077  12.524  23.794  0.00  0.00    +0.000 C 
ATOM     26  O   UNL     1      -4.044  12.052  24.362  0.00  0.00    +0.000 OA
BRANCH  25  27
ATOM     27  O   UNL     1      -2.541  13.722  24.104  0.00  0.00    +0.000 OA
ATOM     28  H   UNL     1      -3.173  14.418  24.356  0.00  0.00    +0.000 HD
ENDBRANCH  25  27
ENDBRANCH  24  25
ENDBRANCH  20  23
BRANCH  22  29
ATOM     29  O   UNL     1      -0.092  10.397  18.217  0.00  0.00    +0.000 OA
ATOM     30  C   UNL     1      -1.343  10.109  17.607  0.00  0.00    +0.000 C 
ENDBRANCH  22  29
ENDBRANCH  16  17
ENDBRANCH   1  16
TORSDOF 11
ENDMDL
MODEL 2
REMARK VINA RESULT:      -7.5      2.334      5.091
REMARK  Name = 
REMARK  14 active torsions:
REMARK  status: ('A' for Active; 'I' for Inactive)
REMARK    1  A    between atoms: C_1  and  C_2
REMARK    2  A    between atoms: C_2  and  C_3
REMARK    3  A    between atoms: C_3  and  C_4
REMARK    4  A    between atoms: C_5  and  O_6
REMARK    5  A    between atoms: O_6  and  C_7
REMARK    6  A    between atoms: C_7  and  C_8
REMARK    7  A    between atoms: C_11  and  C_12
REMARK    8  A    between atoms: C_13  and  C_14
REMARK    9  A    between atoms: C_14  and  O_16
REMARK   10  A    between atoms: C_18  and  O_19
REMARK   11  A    between atoms: O_19  and  C_20
REMARK   12  A    between atoms: C_23  and  C_24
REMARK   13  A    between atoms: C_24  and  C_25
REMARK   14  A    between atoms: C_27  and  O_28
REMARK                            x       y       z     vdW  Elec       q    Type
REMARK                         _______ _______ _______ _____ _____    ______ ____
ROOT
ATOM      1  O   UNL     1       5.077   4.433  17.793  0.00  0.00    +0.000 OA
ENDROOT
BRANCH   1   3
ATOM      2  C   UNL     1       6.636   5.121  16.126  0.00  0.00    +0.000 A 
ATOM      3  C   UNL     1       5.463   4.424  16.479  0.00  0.00    +0.000 A 
ATOM      4  C   UNL     1       4.745   3.741  15.487  0.00  0.00    +0.000 A 
ATOM      5  C   UNL     1       5.232   3.643  14.183  0.00  0.00    +0.000 A 
ATOM      6  C   UNL     1       6.425   4.266  13.820  0.00  0.00    +0.000 A 
ATOM      7  C   UNL     1       7.100   5.030  14.794  0.00  0.00    +0.000 A 
BRANCH   6   8
ATOM      8  C   UNL     1       6.984   4.137  12.439  0.00  0.00    +0.000 C 
ATOM      9  C   UNL     1       6.834   2.868  11.636  0.00  0.00    +0.000 C 
ATOM     10  O   UNL     1       7.592   5.098  11.960  0.00  0.00    +0.000 OA
ENDBRANCH   6   8
BRANCH   7  11
ATOM     11  O   UNL     1       8.257   5.712  14.494  0.00  0.00    +0.000 OA
ATOM     12  H   UNL     1       8.099   6.671  14.653  0.00  0.00    +0.000 HD
ENDBRANCH   7  11
BRANCH   2  13
ATOM     13  C   UNL     1       7.408   5.964  17.125  0.00  0.00    +0.000 C 
BRANCH  13  15
ATOM     14  C   UNL     1       7.903   8.392  17.664  0.00  0.00    +0.000 C 
ATOM     15  C   UNL     1       6.832   7.377  17.287  0.00  0.00    +0.000 C 
ENDBRANCH  13  15
ENDBRANCH   2  13
ENDBRANCH   1   3
BRANCH   1  16
ATOM     16  C   UNL     1       3.692   4.195  18.118  0.00  0.00    +0.000 C 
BRANCH  16  17
ATOM     17  C   UNL     1       3.045   5.376  18.818  0.00  0.00    +0.000 A 
ATOM     18  C   UNL     1       3.054   6.635  18.201  0.00  0.00    +0.000 A 
ATOM     19  C   UNL     1       2.456   7.736  18.808  0.00  0.00    +0.000 A 
ATOM     20  C   UNL     1       1.819   7.606  20.043  0.00  0.00    +0.000 A 
ATOM     21  C   UNL     1       1.878   6.371  20.706  0.00  0.00    +0.000 A 
ATOM     22  C   UNL     1       2.495   5.260  20.109  0.00  0.00    +0.000 A 
BRANCH  20  23
ATOM     23  C   UNL     1       1.123   8.744  20.665  0.00  0.00    +0.000 C 
ATOM     24  C   UNL     1       0.897   8.814  21.987  0.00  0.00    +0.000 C 
BRANCH  24  25
ATOM     25  C   UNL     1       0.205   9.983  22.564  0.00  0.00    +0.000 C 
ATOM     26  O   UNL     1       0.189  11.093  22.067  0.00  0.00    +0.000 OA
BRANCH  25  27
ATOM     27  O   UNL     1      -0.426   9.671  23.715  0.00  0.00    +0.000 OA
ATOM     28  H   UNL     1      -0.032  10.033  24.528  0.00  0.00    +0.000 HD
ENDBRANCH  25  27
ENDBRANCH  24  25
ENDBRANCH  20  23
BRANCH  22  29
ATOM     29  O   UNL     1       2.623   4.030  20.700  0.00  0.00    +0.000 OA
ATOM     30  C   UNL     1       1.436   3.347  21.082  0.00  0.00    +0.000 C 
ENDBRANCH  22  29
ENDBRANCH  16  17
ENDBRANCH   1  16
TORSDOF 11
ENDMDL
MODEL 3
REMARK VINA RESULT:      -7.5      0.882      1.085
REMARK  Name = 
REMARK  14 active torsions:
REMARK  status: ('A' for Active; 'I' for Inactive)
REMARK    1  A    between atoms: C_1  and  C_2
REMARK    2  A    between atoms: C_2  and  C_3
REMARK    3  A    between atoms: C_3  and  C_4
REMARK    4  A    between atoms: C_5  and  O_6
REMARK    5  A    between atoms: O_6  and  C_7
REMARK    6  A    between atoms: C_7  and  C_8
REMARK    7  A    between atoms: C_11  and  C_12
REMARK    8  A    between atoms: C_13  and  C_14
REMARK    9  A    between atoms: C_14  and  O_16
REMARK   10  A    between atoms: C_18  and  O_19
REMARK   11  A    between atoms: O_19  and  C_20
REMARK   12  A    between atoms: C_23  and  C_24
REMARK   13  A    between atoms: C_24  and  C_25
REMARK   14  A    between atoms: C_27  and  O_28
REMARK                            x       y       z     vdW  Elec       q    Type
REMARK                         _______ _______ _______ _____ _____    ______ ____
ROOT
ATOM      1  O   UNL     1       1.818   7.427  19.529  0.00  0.00    +0.000 OA
ENDROOT
BRANCH   1   3
ATOM      2  C   UNL     1       3.201   5.490  19.396  0.00  0.00    +0.000 A 
ATOM      3  C   UNL     1       2.842   6.763  18.908  0.00  0.00    +0.000 A 
ATOM      4  C   UNL     1       3.528   7.295  17.808  0.00  0.00    +0.000 A 
ATOM      5  C   UNL     1       4.478   6.542  17.117  0.00  0.00    +0.000 A 
ATOM      6  C   UNL     1       4.806   5.253  17.536  0.00  0.00    +0.000 A 
ATOM      7  C   UNL     1       4.183   4.752  18.696  0.00  0.00    +0.000 A 
BRANCH   6   8
ATOM      8  C   UNL     1       5.790   4.414  16.783  0.00  0.00    +0.000 C 
ATOM      9  C   UNL     1       7.276   4.655  16.880  0.00  0.00    +0.000 C 
ATOM     10  O   UNL     1       5.359   3.512  16.060  0.00  0.00    +0.000 OA
ENDBRANCH   6   8
BRANCH   7  11
ATOM     11  O   UNL     1       4.493   3.508  19.196  0.00  0.00    +0.000 OA
ATOM     12  H   UNL     1       3.709   2.924  19.079  0.00  0.00    +0.000 HD
ENDBRANCH   7  11
BRANCH   2  13
ATOM     13  C   UNL     1       2.572   4.894  20.642  0.00  0.00    +0.000 C 
BRANCH  13  15
ATOM     14  C   UNL     1       1.240   2.810  21.203  0.00  0.00    +0.000 C 
ATOM     15  C   UNL     1       1.318   4.062  20.339  0.00  0.00    +0.000 C 
ENDBRANCH  13  15
ENDBRANCH   2  13
ENDBRANCH   1   3
BRANCH   1  16
ATOM     16  C   UNL     1       1.669   8.845  19.311  0.00  0.00    +0.000 C 
BRANCH  16  17
ATOM     17  C   UNL     1       0.757   9.500  20.332  0.00  0.00    +0.000 A 
ATOM     18  C   UNL     1       0.796   9.077  21.668  0.00  0.00    +0.000 A 
ATOM     19  C   UNL     1      -0.016   9.666  22.633  0.00  0.00    +0.000 A 
ATOM     20  C   UNL     1      -0.880  10.707  22.291  0.00  0.00    +0.000 A 
ATOM     21  C   UNL     1      -0.989  11.081  20.943  0.00  0.00    +0.000 A 
ATOM     22  C   UNL     1      -0.186  10.478  19.961  0.00  0.00    +0.000 A 
BRANCH  20  23
ATOM     23  C   UNL     1      -1.695  11.387  23.311  0.00  0.00    +0.000 C 
ATOM     24  C   UNL     1      -2.815  12.062  23.007  0.00  0.00    +0.000 C 
BRANCH  24  25
ATOM     25  C   UNL     1      -3.603  12.717  24.068  0.00  0.00    +0.000 C 
ATOM     26  O   UNL     1      -3.511  13.891  24.373  0.00  0.00    +0.000 OA
BRANCH  25  27
ATOM     27  O   UNL     1      -4.458  11.858  24.659  0.00  0.00    +0.000 OA
ATOM     28  H   UNL     1      -5.404  12.009  24.483  0.00  0.00    +0.000 HD
ENDBRANCH  25  27
ENDBRANCH  24  25
ENDBRANCH  20  23
BRANCH  22  29
ATOM     29  O   UNL     1      -0.251  10.762  18.621  0.00  0.00    +0.000 OA
ATOM     30  C   UNL     1      -1.504  10.609  17.967  0.00  0.00    +0.000 C 
ENDBRANCH  22  29
ENDBRANCH  16  17
ENDBRANCH   1  16
TORSDOF 11
ENDMDL
MODEL 4
REMARK VINA RESULT:      -7.4      2.388      3.238
REMARK  Name = 
REMARK  14 active torsions:
REMARK  status: ('A' for Active; 'I' for Inactive)
REMARK    1  A    between atoms: C_1  and  C_2
REMARK    2  A    between atoms: C_2  and  C_3
REMARK    3  A    between atoms: C_3  and  C_4
REMARK    4  A    between atoms: C_5  and  O_6
REMARK    5  A    between atoms: O_6  and  C_7
REMARK    6  A    between atoms: C_7  and  C_8
REMARK    7  A    between atoms: C_11  and  C_12
REMARK    8  A    between atoms: C_13  and  C_14
REMARK    9  A    between atoms: C_14  and  O_16
REMARK   10  A    between atoms: C_18  and  O_19
REMARK   11  A    between atoms: O_19  and  C_20
REMARK   12  A    between atoms: C_23  and  C_24
REMARK   13  A    between atoms: C_24  and  C_25
REMARK   14  A    between atoms: C_27  and  O_28
REMARK                            x       y       z     vdW  Elec       q    Type
REMARK                         _______ _______ _______ _____ _____    ______ ____
ROOT
ATOM      1  O   UNL     1       2.450   6.394  18.862  0.00  0.00    +0.000 OA
ENDROOT
BRANCH   1   3
ATOM      2  C   UNL     1       3.798   4.657  17.941  0.00  0.00    +0.000 A 
ATOM      3  C   UNL     1       3.468   6.025  18.023  0.00  0.00    +0.000 A 
ATOM      4  C   UNL     1       4.174   6.950  17.242  0.00  0.00    +0.000 A 
ATOM      5  C   UNL     1       5.117   6.530  16.303  0.00  0.00    +0.000 A 
ATOM      6  C   UNL     1       5.416   5.178  16.152  0.00  0.00    +0.000 A 
ATOM      7  C   UNL     1       4.774   4.254  17.000  0.00  0.00    +0.000 A 
BRANCH   6   8
ATOM      8  C   UNL     1       6.393   4.705  15.121  0.00  0.00    +0.000 C 
ATOM      9  C   UNL     1       5.939   4.106  13.813  0.00  0.00    +0.000 C 
ATOM     10  O   UNL     1       7.598   4.804  15.366  0.00  0.00    +0.000 OA
ENDBRANCH   6   8
BRANCH   7  11
ATOM     11  O   UNL     1       5.056   2.909  16.941  0.00  0.00    +0.000 OA
ATOM     12  H   UNL     1       4.230   2.430  16.699  0.00  0.00    +0.000 HD
ENDBRANCH   7  11
BRANCH   2  13
ATOM     13  C   UNL     1       3.146   3.611  18.828  0.00  0.00    +0.000 C 
BRANCH  13  15
ATOM     14  C   UNL     1       0.793   2.904  19.453  0.00  0.00    +0.000 C 
ATOM     15  C   UNL     1       1.771   3.167  18.314  0.00  0.00    +0.000 C 
ENDBRANCH  13  15
ENDBRANCH   2  13
ENDBRANCH   1   3
BRANCH   1  16
ATOM     16  C   UNL     1       2.584   7.602  19.638  0.00  0.00    +0.000 C 
BRANCH  16  17
ATOM     17  C   UNL     1       1.433   8.566  19.422  0.00  0.00    +0.000 A 
ATOM     18  C   UNL     1       1.165   9.047  18.132  0.00  0.00    +0.000 A 
ATOM     19  C   UNL     1       0.107   9.920  17.896  0.00  0.00    +0.000 A 
ATOM     20  C   UNL     1      -0.723  10.326  18.942  0.00  0.00    +0.000 A 
ATOM     21  C   UNL     1      -0.413   9.919  20.247  0.00  0.00    +0.000 A 
ATOM     22  C   UNL     1       0.664   9.052  20.497  0.00  0.00    +0.000 A 
BRANCH  20  23
ATOM     23  C   UNL     1      -1.887  11.194  18.698  0.00  0.00    +0.000 C 
ATOM     24  C   UNL     1      -2.911  10.822  17.914  0.00  0.00    +0.000 C 
BRANCH  24  25
ATOM     25  C   UNL     1      -4.061  11.724  17.710  0.00  0.00    +0.000 C 
ATOM     26  O   UNL     1      -4.792  11.704  16.737  0.00  0.00    +0.000 OA
BRANCH  25  27
ATOM     27  O   UNL     1      -4.219  12.575  18.744  0.00  0.00    +0.000 OA
ATOM     28  H   UNL     1      -5.128  12.882  18.907  0.00  0.00    +0.000 HD
ENDBRANCH  25  27
ENDBRANCH  24  25
ENDBRANCH  20  23
BRANCH  22  29
ATOM     29  O   UNL     1       1.052   8.631  21.742  0.00  0.00    +0.000 OA
ATOM     30  C   UNL     1       0.531   9.320  22.872  0.00  0.00    +0.000 C 
ENDBRANCH  22  29
ENDBRANCH  16  17
ENDBRANCH   1  16
TORSDOF 11
ENDMDL
MODEL 5
REMARK VINA RESULT:      -7.2      0.786      1.096
REMARK  Name = 
REMARK  14 active torsions:
REMARK  status: ('A' for Active; 'I' for Inactive)
REMARK    1  A    between atoms: C_1  and  C_2
REMARK    2  A    between atoms: C_2  and  C_3
REMARK    3  A    between atoms: C_3  and  C_4
REMARK    4  A    between atoms: C_5  and  O_6
REMARK    5  A    between atoms: O_6  and  C_7
REMARK    6  A    between atoms: C_7  and  C_8
REMARK    7  A    between atoms: C_11  and  C_12
REMARK    8  A    between atoms: C_13  and  C_14
REMARK    9  A    between atoms: C_14  and  O_16
REMARK   10  A    between atoms: C_18  and  O_19
REMARK   11  A    between atoms: O_19  and  C_20
REMARK   12  A    between atoms: C_23  and  C_24
REMARK   13  A    between atoms: C_24  and  C_25
REMARK   14  A    between atoms: C_27  and  O_28
REMARK                            x       y       z     vdW  Elec       q    Type
REMARK                         _______ _______ _______ _____ _____    ______ ____
ROOT
ATOM      1  O   UNL     1       2.303   7.445  19.278  0.00  0.00    +0.000 OA
ENDROOT
BRANCH   1   3
ATOM      2  C   UNL     1       3.594   5.485  18.858  0.00  0.00    +0.000 A 
ATOM      3  C   UNL     1       3.262   6.815  18.530  0.00  0.00    +0.000 A 
ATOM      4  C   UNL     1       3.909   7.438  17.454  0.00  0.00    +0.000 A 
ATOM      5  C   UNL     1       4.787   6.731  16.632  0.00  0.00    +0.000 A 
ATOM      6  C   UNL     1       5.082   5.394  16.892  0.00  0.00    +0.000 A 
ATOM      7  C   UNL     1       4.504   4.792  18.028  0.00  0.00    +0.000 A 
BRANCH   6   8
ATOM      8  C   UNL     1       5.988   4.606  15.998  0.00  0.00    +0.000 C 
ATOM      9  C   UNL     1       5.620   4.298  14.567  0.00  0.00    +0.000 C 
ATOM     10  O   UNL     1       7.055   4.195  16.460  0.00  0.00    +0.000 OA
ENDBRANCH   6   8
BRANCH   7  11
ATOM     11  O   UNL     1       4.788   3.491  18.373  0.00  0.00    +0.000 OA
ATOM     12  H   UNL     1       4.245   3.255  19.160  0.00  0.00    +0.000 HD
ENDBRANCH   7  11
BRANCH   2  13
ATOM     13  C   UNL     1       3.009   4.780  20.070  0.00  0.00    +0.000 C 
BRANCH  13  15
ATOM     14  C   UNL     1       1.637   2.715  20.599  0.00  0.00    +0.000 C 
ATOM     15  C   UNL     1       1.752   3.966  19.737  0.00  0.00    +0.000 C 
ENDBRANCH  13  15
ENDBRANCH   2  13
ENDBRANCH   1   3
BRANCH   1  16
ATOM     16  C   UNL     1       1.849   8.754  18.877  0.00  0.00    +0.000 C 
BRANCH  16  17
ATOM     17  C   UNL     1       0.959   9.408  19.918  0.00  0.00    +0.000 A 
ATOM     18  C   UNL     1       0.574   8.682  21.054  0.00  0.00    +0.000 A 
ATOM     19  C   UNL     1      -0.229   9.256  22.035  0.00  0.00    +0.000 A 
ATOM     20  C   UNL     1      -0.657  10.579  21.915  0.00  0.00    +0.000 A 
ATOM     21  C   UNL     1      -0.349  11.286  20.743  0.00  0.00    +0.000 A 
ATOM     22  C   UNL     1       0.446  10.707  19.740  0.00  0.00    +0.000 A 
BRANCH  20  23
ATOM     23  C   UNL     1      -1.449  11.223  22.976  0.00  0.00    +0.000 C 
ATOM     24  C   UNL     1      -2.443  12.086  22.711  0.00  0.00    +0.000 C 
BRANCH  24  25
ATOM     25  C   UNL     1      -3.215  12.696  23.810  0.00  0.00    +0.000 C 
ATOM     26  O   UNL     1      -3.056  13.830  24.221  0.00  0.00    +0.000 OA
BRANCH  25  27
ATOM     27  O   UNL     1      -4.140  11.847  24.303  0.00  0.00    +0.000 OA
ATOM     28  H   UNL     1      -4.956  12.256  24.640  0.00  0.00    +0.000 HD
ENDBRANCH  25  27
ENDBRANCH  24  25
ENDBRANCH  20  23
BRANCH  22  29
ATOM     29  O   UNL     1       0.768  11.316  18.555  0.00  0.00    +0.000 OA
ATOM     30  C   UNL     1       1.587  12.477  18.602  0.00  0.00    +0.000 C 
ENDBRANCH  22  29
ENDBRANCH  16  17
ENDBRANCH   1  16
TORSDOF 11
ENDMDL
MODEL 6
REMARK VINA RESULT:      -7.2      1.624      9.727
REMARK  Name = 
REMARK  14 active torsions:
REMARK  status: ('A' for Active; 'I' for Inactive)
REMARK    1  A    between atoms: C_1  and  C_2
REMARK    2  A    between atoms: C_2  and  C_3
REMARK    3  A    between atoms: C_3  and  C_4
REMARK    4  A    between atoms: C_5  and  O_6
REMARK    5  A    between atoms: O_6  and  C_7
REMARK    6  A    between atoms: C_7  and  C_8
REMARK    7  A    between atoms: C_11  and  C_12
REMARK    8  A    between atoms: C_13  and  C_14
REMARK    9  A    between atoms: C_14  and  O_16
REMARK   10  A    between atoms: C_18  and  O_19
REMARK   11  A    between atoms: O_19  and  C_20
REMARK   12  A    between atoms: C_23  and  C_24
REMARK   13  A    between atoms: C_24  and  C_25
REMARK   14  A    between atoms: C_27  and  O_28
REMARK                            x       y       z     vdW  Elec       q    Type
REMARK                         _______ _______ _______ _____ _____    ______ ____
ROOT
ATOM      1  O   UNL     1       1.617   8.911  20.903  0.00  0.00    +0.000 OA
ENDROOT
BRANCH   1   3
ATOM      2  C   UNL     1       0.182  10.759  20.449  0.00  0.00    +0.000 A 
ATOM      3  C   UNL     1       0.659   9.784  21.347  0.00  0.00    +0.000 A 
ATOM      4  C   UNL     1       0.135   9.730  22.646  0.00  0.00    +0.000 A 
ATOM      5  C   UNL     1      -0.930  10.547  23.028  0.00  0.00    +0.000 A 
ATOM      6  C   UNL     1      -1.468  11.476  22.139  0.00  0.00    +0.000 A 
ATOM      7  C   UNL     1      -0.881  11.594  20.863  0.00  0.00    +0.000 A 
BRANCH   6   8
ATOM      8  C   UNL     1      -2.637  12.331  22.516  0.00  0.00    +0.000 C 
ATOM      9  C   UNL     1      -2.738  12.985  23.872  0.00  0.00    +0.000 C 
ATOM     10  O   UNL     1      -3.540  12.487  21.690  0.00  0.00    +0.000 OA
ENDBRANCH   6   8
BRANCH   7  11
ATOM     11  O   UNL     1      -1.329  12.523  19.952  0.00  0.00    +0.000 OA
ATOM     12  H   UNL     1      -2.269  12.729  20.157  0.00  0.00    +0.000 HD
ENDBRANCH   7  11
BRANCH   2  13
ATOM     13  C   UNL     1       0.772  10.942  19.062  0.00  0.00    +0.000 C 
BRANCH  13  15
ATOM     14  C   UNL     1      -1.216  10.087  17.740  0.00  0.00    +0.000 C 
ATOM     15  C   UNL     1       0.263   9.902  18.055  0.00  0.00    +0.000 C 
ENDBRANCH  13  15
ENDBRANCH   2  13
ENDBRANCH   1   3
BRANCH   1  16
ATOM     16  C   UNL     1       1.296   7.509  20.804  0.00  0.00    +0.000 C 
BRANCH  16  17
ATOM     17  C   UNL     1       2.182   6.775  19.815  0.00  0.00    +0.000 A 
ATOM     18  C   UNL     1       2.673   7.452  18.689  0.00  0.00    +0.000 A 
ATOM     19  C   UNL     1       3.501   6.813  17.771  0.00  0.00    +0.000 A 
ATOM     20  C   UNL     1       3.875   5.482  17.961  0.00  0.00    +0.000 A 
ATOM     21  C   UNL     1       3.322   4.771  19.037  0.00  0.00    +0.000 A 
ATOM     22  C   UNL     1       2.471   5.404  19.958  0.00  0.00    +0.000 A 
BRANCH  20  23
ATOM     23  C   UNL     1       4.804   4.812  17.036  0.00  0.00    +0.000 C 
ATOM     24  C   UNL     1       5.592   5.493  16.189  0.00  0.00    +0.000 C 
BRANCH  24  25
ATOM     25  C   UNL     1       6.517   4.776  15.289  0.00  0.00    +0.000 C 
ATOM     26  O   UNL     1       7.509   5.266  14.783  0.00  0.00    +0.000 OA
BRANCH  25  27
ATOM     27  O   UNL     1       6.138   3.496  15.100  0.00  0.00    +0.000 OA
ATOM     28  H   UNL     1       5.753   3.048  15.874  0.00  0.00    +0.000 HD
ENDBRANCH  25  27
ENDBRANCH  24  25
ENDBRANCH  20  23
BRANCH  22  29
ATOM     29  O   UNL     1       1.867   4.776  21.016  0.00  0.00    +0.000 OA
ATOM     30  C   UNL     1       1.343   3.471  20.808  0.00  0.00    +0.000 C 
ENDBRANCH  22  29
ENDBRANCH  16  17
ENDBRANCH   1  16
TORSDOF 11
ENDMDL
MODEL 7
REMARK VINA RESULT:      -7.2      1.733      9.934
REMARK  Name = 
REMARK  14 active torsions:
REMARK  status: ('A' for Active; 'I' for Inactive)
REMARK    1  A    between atoms: C_1  and  C_2
REMARK    2  A    between atoms: C_2  and  C_3
REMARK    3  A    between atoms: C_3  and  C_4
REMARK    4  A    between atoms: C_5  and  O_6
REMARK    5  A    between atoms: O_6  and  C_7
REMARK    6  A    between atoms: C_7  and  C_8
REMARK    7  A    between atoms: C_11  and  C_12
REMARK    8  A    between atoms: C_13  and  C_14
REMARK    9  A    between atoms: C_14  and  O_16
REMARK   10  A    between atoms: C_18  and  O_19
REMARK   11  A    between atoms: O_19  and  C_20
REMARK   12  A    between atoms: C_23  and  C_24
REMARK   13  A    between atoms: C_24  and  C_25
REMARK   14  A    between atoms: C_27  and  O_28
REMARK                            x       y       z     vdW  Elec       q    Type
REMARK                         _______ _______ _______ _____ _____    ______ ____
ROOT
ATOM      1  O   UNL     1       0.853   8.766  20.077  0.00  0.00    +0.000 OA
ENDROOT
BRANCH   1   3
ATOM      2  C   UNL     1      -0.281  10.848  20.328  0.00  0.00    +0.000 A 
ATOM      3  C   UNL     1       0.199   9.650  20.894  0.00  0.00    +0.000 A 
ATOM      4  C   UNL     1      -0.017   9.399  22.255  0.00  0.00    +0.000 A 
ATOM      5  C   UNL     1      -0.797  10.256  23.032  0.00  0.00    +0.000 A 
ATOM      6  C   UNL     1      -1.342  11.416  22.483  0.00  0.00    +0.000 A 
ATOM      7  C   UNL     1      -1.048  11.716  21.137  0.00  0.00    +0.000 A 
BRANCH   6   8
ATOM      8  C   UNL     1      -2.216  12.326  23.288  0.00  0.00    +0.000 C 
ATOM      9  C   UNL     1      -1.754  13.697  23.714  0.00  0.00    +0.000 C 
ATOM     10  O   UNL     1      -3.337  11.925  23.613  0.00  0.00    +0.000 OA
ENDBRANCH   6   8
BRANCH   7  11
ATOM     11  O   UNL     1      -1.511  12.868  20.542  0.00  0.00    +0.000 OA
ATOM     12  H   UNL     1      -1.495  12.739  19.566  0.00  0.00    +0.000 HD
ENDBRANCH   7  11
BRANCH   2  13
ATOM     13  C   UNL     1       0.003  11.234  18.887  0.00  0.00    +0.000 C 
BRANCH  13  15
ATOM     14  C   UNL     1       1.350  13.349  18.516  0.00  0.00    +0.000 C 
ATOM     15  C   UNL     1       1.400  11.837  18.693  0.00  0.00    +0.000 C 
ENDBRANCH  13  15
ENDBRANCH   2  13
ENDBRANCH   1   3
BRANCH   1  16
ATOM     16  C   UNL     1       1.580   7.670  20.669  0.00  0.00    +0.000 C 
BRANCH  16  17
ATOM     17  C   UNL     1       2.423   6.915  19.658  0.00  0.00    +0.000 A 
ATOM     18  C   UNL     1       2.860   7.566  18.497  0.00  0.00    +0.000 A 
ATOM     19  C   UNL     1       3.648   6.908  17.557  0.00  0.00    +0.000 A 
ATOM     20  C   UNL     1       4.033   5.582  17.759  0.00  0.00    +0.000 A 
ATOM     21  C   UNL     1       3.531   4.896  18.875  0.00  0.00    +0.000 A 
ATOM     22  C   UNL     1       2.721   5.548  19.819  0.00  0.00    +0.000 A 
BRANCH  20  23
ATOM     23  C   UNL     1       4.922   4.893  16.810  0.00  0.00    +0.000 C 
ATOM     24  C   UNL     1       5.715   5.557  15.954  0.00  0.00    +0.000 C 
BRANCH  24  25
ATOM     25  C   UNL     1       6.598   4.820  15.029  0.00  0.00    +0.000 C 
ATOM     26  O   UNL     1       7.550   5.305  14.448  0.00  0.00    +0.000 OA
BRANCH  25  27
ATOM     27  O   UNL     1       6.230   3.528  14.910  0.00  0.00    +0.000 OA
ATOM     28  H   UNL     1       5.986   3.236  14.014  0.00  0.00    +0.000 HD
ENDBRANCH  25  27
ENDBRANCH  24  25
ENDBRANCH  20  23
BRANCH  22  29
ATOM     29  O   UNL     1       2.166   4.944  20.917  0.00  0.00    +0.000 OA
ATOM     30  C   UNL     1       1.292   3.843  20.704  0.00  0.00    +0.000 C 
ENDBRANCH  22  29
ENDBRANCH  16  17
ENDBRANCH   1  16
TORSDOF 11
ENDMDL
MODEL 8
REMARK VINA RESULT:      -7.2      2.580      5.206
REMARK  Name = 
REMARK  14 active torsions:
REMARK  status: ('A' for Active; 'I' for Inactive)
REMARK    1  A    between atoms: C_1  and  C_2
REMARK    2  A    between atoms: C_2  and  C_3
REMARK    3  A    between atoms: C_3  and  C_4
REMARK    4  A    between atoms: C_5  and  O_6
REMARK    5  A    between atoms: O_6  and  C_7
REMARK    6  A    between atoms: C_7  and  C_8
REMARK    7  A    between atoms: C_11  and  C_12
REMARK    8  A    between atoms: C_13  and  C_14
REMARK    9  A    between atoms: C_14  and  O_16
REMARK   10  A    between atoms: C_18  and  O_19
REMARK   11  A    between atoms: O_19  and  C_20
REMARK   12  A    between atoms: C_23  and  C_24
REMARK   13  A    between atoms: C_24  and  C_25
REMARK   14  A    between atoms: C_27  and  O_28
REMARK                            x       y       z     vdW  Elec       q    Type
REMARK                         _______ _______ _______ _____ _____    ______ ____
ROOT
ATOM      1  O   UNL     1       3.877   3.005  17.548  0.00  0.00    +0.000 OA
ENDROOT
BRANCH   1   3
ATOM      2  C   UNL     1       5.373   4.525  16.482  0.00  0.00    +0.000 A 
ATOM      3  C   UNL     1       4.852   3.960  17.664  0.00  0.00    +0.000 A 
ATOM      4  C   UNL     1       5.334   4.400  18.904  0.00  0.00    +0.000 A 
ATOM      5  C   UNL     1       6.232   5.463  18.994  0.00  0.00    +0.000 A 
ATOM      6  C   UNL     1       6.714   6.086  17.844  0.00  0.00    +0.000 A 
ATOM      7  C   UNL     1       6.301   5.585  16.593  0.00  0.00    +0.000 A 
BRANCH   6   8
ATOM      8  C   UNL     1       7.645   7.255  17.921  0.00  0.00    +0.000 C 
ATOM      9  C   UNL     1       8.581   7.450  19.088  0.00  0.00    +0.000 C 
ATOM     10  O   UNL     1       7.627   8.079  17.003  0.00  0.00    +0.000 OA
ENDBRANCH   6   8
BRANCH   7  11
ATOM     11  O   UNL     1       6.773   6.119  15.416  0.00  0.00    +0.000 OA
ATOM     12  H   UNL     1       6.995   5.376  14.808  0.00  0.00    +0.000 HD
ENDBRANCH   7  11
BRANCH   2  13
ATOM     13  C   UNL     1       4.972   4.030  15.103  0.00  0.00    +0.000 C 
BRANCH  13  15
ATOM     14  C   UNL     1       5.780   3.538  12.751  0.00  0.00    +0.000 C 
ATOM     15  C   UNL     1       6.178   3.708  14.211  0.00  0.00    +0.000 C 
ENDBRANCH  13  15
ENDBRANCH   2  13
ENDBRANCH   1   3
BRANCH   1  16
ATOM     16  C   UNL     1       2.493   3.409  17.588  0.00  0.00    +0.000 C 
BRANCH  16  17
ATOM     17  C   UNL     1       2.268   4.640  18.446  0.00  0.00    +0.000 A 
ATOM     18  C   UNL     1       2.437   5.915  17.886  0.00  0.00    +0.000 A 
ATOM     19  C   UNL     1       2.224   7.065  18.639  0.00  0.00    +0.000 A 
ATOM     20  C   UNL     1       1.821   6.974  19.973  0.00  0.00    +0.000 A 
ATOM     21  C   UNL     1       1.732   5.706  20.566  0.00  0.00    +0.000 A 
ATOM     22  C   UNL     1       1.963   4.541  19.817  0.00  0.00    +0.000 A 
BRANCH  20  23
ATOM     23  C   UNL     1       1.526   8.180  20.763  0.00  0.00    +0.000 C 
ATOM     24  C   UNL     1       0.473   8.257  21.593  0.00  0.00    +0.000 C 
BRANCH  24  25
ATOM     25  C   UNL     1       0.226   9.485  22.373  0.00  0.00    +0.000 C 
ATOM     26  O   UNL     1       0.776  10.552  22.177  0.00  0.00    +0.000 OA
BRANCH  25  27
ATOM     27  O   UNL     1      -0.701   9.289  23.333  0.00  0.00    +0.000 OA
ATOM     28  H   UNL     1      -1.449   8.715  23.091  0.00  0.00    +0.000 HD
ENDBRANCH  25  27
ENDBRANCH  24  25
ENDBRANCH  20  23
BRANCH  22  29
ATOM     29  O   UNL     1       1.926   3.269  20.326  0.00  0.00    +0.000 OA
ATOM     30  C   UNL     1       2.227   3.093  21.705  0.00  0.00    +0.000 C 
ENDBRANCH  22  29
ENDBRANCH  16  17
ENDBRANCH   1  16
TORSDOF 11
ENDMDL
MODEL 9
REMARK VINA RESULT:      -7.2      2.167      3.118
REMARK  Name = 
REMARK  14 active torsions:
REMARK  status: ('A' for Active; 'I' for Inactive)
REMARK    1  A    between atoms: C_1  and  C_2
REMARK    2  A    between atoms: C_2  and  C_3
REMARK    3  A    between atoms: C_3  and  C_4
REMARK    4  A    between atoms: C_5  and  O_6
REMARK    5  A    between atoms: O_6  and  C_7
REMARK    6  A    between atoms: C_7  and  C_8
REMARK    7  A    between atoms: C_11  and  C_12
REMARK    8  A    between atoms: C_13  and  C_14
REMARK    9  A    between atoms: C_14  and  O_16
REMARK   10  A    between atoms: C_18  and  O_19
REMARK   11  A    between atoms: O_19  and  C_20
REMARK   12  A    between atoms: C_23  and  C_24
REMARK   13  A    between atoms: C_24  and  C_25
REMARK   14  A    between atoms: C_27  and  O_28
REMARK                            x       y       z     vdW  Elec       q    Type
REMARK                         _______ _______ _______ _____ _____    ______ ____
ROOT
ATOM      1  O   UNL     1       2.217   6.731  19.104  0.00  0.00    +0.000 OA
ENDROOT
BRANCH   1   3
ATOM      2  C   UNL     1       3.906   5.057  18.938  0.00  0.00    +0.000 A 
ATOM      3  C   UNL     1       3.372   6.292  18.515  0.00  0.00    +0.000 A 
ATOM      4  C   UNL     1       4.027   7.013  17.507  0.00  0.00    +0.000 A 
ATOM      5  C   UNL     1       5.128   6.480  16.837  0.00  0.00    +0.000 A 
ATOM      6  C   UNL     1       5.638   5.231  17.188  0.00  0.00    +0.000 A 
ATOM      7  C   UNL     1       5.037   4.545  18.262  0.00  0.00    +0.000 A 
BRANCH   6   8
ATOM      8  C   UNL     1       6.791   4.624  16.453  0.00  0.00    +0.000 C 
ATOM      9  C   UNL     1       6.708   4.286  14.985  0.00  0.00    +0.000 C 
ATOM     10  O   UNL     1       7.828   4.389  17.080  0.00  0.00    +0.000 OA
ENDBRANCH   6   8
BRANCH   7  11
ATOM     11  O   UNL     1       5.518   3.330  18.695  0.00  0.00    +0.000 OA
ATOM     12  H   UNL     1       6.500   3.344  18.625  0.00  0.00    +0.000 HD
ENDBRANCH   7  11
BRANCH   2  13
ATOM     13  C   UNL     1       3.309   4.269  20.090  0.00  0.00    +0.000 C 
BRANCH  13  15
ATOM     14  C   UNL     1       1.938   3.093  18.311  0.00  0.00    +0.000 C 
ATOM     15  C   UNL     1       1.962   3.625  19.739  0.00  0.00    +0.000 C 
ENDBRANCH  13  15
ENDBRANCH   2  13
ENDBRANCH   1   3
BRANCH   1  16
ATOM     16  C   UNL     1       2.254   7.922  19.917  0.00  0.00    +0.000 C 
BRANCH  16  17
ATOM     17  C   UNL     1       1.115   8.876  19.608  0.00  0.00    +0.000 A 
ATOM     18  C   UNL     1       0.890   9.278  18.283  0.00  0.00    +0.000 A 
ATOM     19  C   UNL     1      -0.155  10.140  17.962  0.00  0.00    +0.000 A 
ATOM     20  C   UNL     1      -1.014  10.613  18.956  0.00  0.00    +0.000 A 
ATOM     21  C   UNL     1      -0.746  10.285  20.293  0.00  0.00    +0.000 A 
ATOM     22  C   UNL     1       0.317   9.430  20.627  0.00  0.00    +0.000 A 
BRANCH  20  23
ATOM     23  C   UNL     1      -2.164  11.470  18.624  0.00  0.00    +0.000 C 
ATOM     24  C   UNL     1      -3.340  10.969  18.213  0.00  0.00    +0.000 C 
BRANCH  24  25
ATOM     25  C   UNL     1      -4.467  11.870  17.903  0.00  0.00    +0.000 C 
ATOM     26  O   UNL     1      -5.241  12.318  18.728  0.00  0.00    +0.000 OA
BRANCH  25  27
ATOM     27  O   UNL     1      -4.534  12.153  16.586  0.00  0.00    +0.000 OA
ATOM     28  H   UNL     1      -3.712  12.480  16.179  0.00  0.00    +0.000 HD
ENDBRANCH  25  27
ENDBRANCH  24  25
ENDBRANCH  20  23
BRANCH  22  29
ATOM     29  O   UNL     1       0.665   9.085  21.907  0.00  0.00    +0.000 OA
ATOM     30  C   UNL     1      -0.226   9.435  22.958  0.00  0.00    +0.000 C 
ENDBRANCH  22  29
ENDBRANCH  16  17
ENDBRANCH   1  16
TORSDOF 11
ENDMDL
