MODEL 1
REMARK VINA RESULT:      -7.6      0.000      0.000
REMARK  Name = 
REMARK  6 active torsions:
REMARK  status: ('A' for Active; 'I' for Inactive)
REMARK    1  A    between atoms: C_1  and  O_2
REMARK    2  A    between atoms: O_2  and  C_3
REMARK    3  A    between atoms: C_6  and  C_7
REMARK    4  A    between atoms: C_9  and  N_10
REMARK    5  A    between atoms: N_10  and  C_11
REMARK    6  A    between atoms: C_17  and  C_18
REMARK                            x       y       z     vdW  Elec       q    Type
REMARK                         _______ _______ _______ _____ _____    ______ ____
ROOT
ATOM      1  C   UNL     1       2.683   6.682  18.966  0.00  0.00    +0.000 A 
ATOM      2  C   UNL     1       3.708   6.652  17.874  0.00  0.00    +0.000 A 
ATOM      3  C   UNL     1       4.266   5.464  17.582  0.00  0.00    +0.000 A 
ATOM      4  N   UNL     1       3.855   4.336  18.345  0.00  0.00    +0.000 N 
ATOM      5  N   UNL     1       4.242   3.032  18.186  0.00  0.00    +0.000 NA
ATOM      6  C   UNL     1       3.658   2.390  19.202  0.00  0.00    +0.000 A 
ATOM      7  C   UNL     1       2.899   3.239  20.019  0.00  0.00    +0.000 A 
ATOM      8  C   UNL     1       2.964   4.474  19.416  0.00  0.00    +0.000 A 
ATOM      9  N   UNL     1       2.365   5.661  19.711  0.00  0.00    +0.000 NA
ENDROOT
BRANCH   1  13
ATOM     10  C   UNL     1       0.614  10.362  19.724  0.00  0.00    +0.000 A 
ATOM     11  C   UNL     1       1.130  10.107  18.453  0.00  0.00    +0.000 A 
ATOM     12  C   UNL     1       1.805   8.916  18.187  0.00  0.00    +0.000 A 
ATOM     13  C   UNL     1       2.000   7.982  19.211  0.00  0.00    +0.000 A 
ATOM     14  C   UNL     1       1.493   8.244  20.490  0.00  0.00    +0.000 A 
ATOM     15  C   UNL     1       0.806   9.433  20.746  0.00  0.00    +0.000 A 
BRANCH  10  17
ATOM     16  C   UNL     1      -1.241  11.680  19.115  0.00  0.00    +0.000 C 
ATOM     17  O   UNL     1      -0.032  11.558  19.856  0.00  0.00    +0.000 OA
ENDBRANCH  10  17
ENDBRANCH   1  13
BRANCH   3  18
ATOM     18  N   UNL     1       5.266   5.265  16.628  0.00  0.00    +0.000 N 
ATOM     19  H   UNL     1       4.902   5.391  15.679  0.00  0.00    +0.000 HD
BRANCH  18  20
ATOM     20  C   UNL     1       6.655   5.658  16.878  0.00  0.00    +0.000 C 
ATOM     21  C   UNL     1       7.268   5.691  18.253  0.00  0.00    +0.000 C 
ATOM     22  C   UNL     1       7.628   4.588  17.305  0.00  0.00    +0.000 C 
ENDBRANCH  18  20
ENDBRANCH   3  18
BRANCH   7  23
ATOM     23  C   UNL     1       2.196   2.904  21.215  0.00  0.00    +0.000 C 
ATOM     24  N   UNL     1       1.606   2.597  22.166  0.00  0.00    +0.000 NA
ENDBRANCH   7  23
TORSDOF 5
ENDMDL
MODEL 2
REMARK VINA RESULT:      -7.6      0.514      1.136
REMARK  Name = 
REMARK  6 active torsions:
REMARK  status: ('A' for Active; 'I' for Inactive)
REMARK    1  A    between atoms: C_1  and  O_2
REMARK    2  A    between atoms: O_2  and  C_3
REMARK    3  A    between atoms: C_6  and  C_7
REMARK    4  A    between atoms: C_9  and  N_10
REMARK    5  A    between atoms: N_10  and  C_11
REMARK    6  A    between atoms: C_17  and  C_18
REMARK                            x       y       z     vdW  Elec       q    Type
REMARK                         _______ _______ _______ _____ _____    ______ ____
ROOT
ATOM      1  C   UNL     1       2.646   6.692  18.986  0.00  0.00    +0.000 A 
ATOM      2  C   UNL     1       3.662   6.701  17.886  0.00  0.00    +0.000 A 
ATOM      3  C   UNL     1       4.231   5.528  17.559  0.00  0.00    +0.000 A 
ATOM      4  N   UNL     1       3.839   4.376  18.297  0.00  0.00    +0.000 N 
ATOM      5  N   UNL     1       4.241   3.081  18.102  0.00  0.00    +0.000 NA
ATOM      6  C   UNL     1       3.672   2.407  19.105  0.00  0.00    +0.000 A 
ATOM      7  C   UNL     1       2.911   3.226  19.950  0.00  0.00    +0.000 A 
ATOM      8  C   UNL     1       2.956   4.476  19.378  0.00  0.00    +0.000 A 
ATOM      9  N   UNL     1       2.346   5.649  19.708  0.00  0.00    +0.000 NA
ENDROOT
BRANCH   1  13
ATOM     10  C   UNL     1       0.744  10.459  19.750  0.00  0.00    +0.000 A 
ATOM     11  C   UNL     1       0.846   9.515  20.773  0.00  0.00    +0.000 A 
ATOM     12  C   UNL     1       1.461   8.285  20.543  0.00  0.00    +0.000 A 
ATOM     13  C   UNL     1       1.950   7.977  19.269  0.00  0.00    +0.000 A 
ATOM     14  C   UNL     1       1.836   8.920  18.240  0.00  0.00    +0.000 A 
ATOM     15  C   UNL     1       1.230  10.156  18.479  0.00  0.00    +0.000 A 
BRANCH  10  17
ATOM     16  C   UNL     1      -0.381  11.669  21.430  0.00  0.00    +0.000 C 
ATOM     17  O   UNL     1       0.128  11.627  20.101  0.00  0.00    +0.000 OA
ENDBRANCH  10  17
ENDBRANCH   1  13
BRANCH   3  18
ATOM     18  N   UNL     1       5.226   5.364  16.593  0.00  0.00    +0.000 N 
ATOM     19  H   UNL     1       4.866   5.563  15.654  0.00  0.00    +0.000 HD
BRANCH  18  20
ATOM     20  C   UNL     1       6.626   5.701  16.866  0.00  0.00    +0.000 C 
ATOM     21  C   UNL     1       7.227   5.668  18.245  0.00  0.00    +0.000 C 
ATOM     22  C   UNL     1       7.557   4.585  17.264  0.00  0.00    +0.000 C 
ENDBRANCH  18  20
ENDBRANCH   3  18
BRANCH   7  23
ATOM     23  C   UNL     1       2.221   2.853  21.142  0.00  0.00    +0.000 C 
ATOM     24  N   UNL     1       1.685   2.579  22.134  0.00  0.00    +0.000 NA
ENDBRANCH   7  23
TORSDOF 5
ENDMDL
MODEL 3
REMARK VINA RESULT:      -7.6      1.395      1.554
REMARK  Name = 
REMARK  6 active torsions:
REMARK  status: ('A' for Active; 'I' for Inactive)
REMARK    1  A    between atoms: C_1  and  O_2
REMARK    2  A    between atoms: O_2  and  C_3
REMARK    3  A    between atoms: C_6  and  C_7
REMARK    4  A    between atoms: C_9  and  N_10
REMARK    5  A    between atoms: N_10  and  C_11
REMARK    6  A    between atoms: C_17  and  C_18
REMARK                            x       y       z     vdW  Elec       q    Type
REMARK                         _______ _______ _______ _____ _____    ______ ____
ROOT
ATOM      1  C   UNL     1       2.800   6.003  18.611  0.00  0.00    +0.000 A 
ATOM      2  C   UNL     1       3.735   5.709  17.480  0.00  0.00    +0.000 A 
ATOM      3  C   UNL     1       4.091   4.427  17.288  0.00  0.00    +0.000 A 
ATOM      4  N   UNL     1       3.569   3.456  18.188  0.00  0.00    +0.000 N 
ATOM      5  N   UNL     1       3.749   2.098  18.150  0.00  0.00    +0.000 NA
ATOM      6  C   UNL     1       3.144   1.656  19.256  0.00  0.00    +0.000 A 
ATOM      7  C   UNL     1       2.574   2.688  20.014  0.00  0.00    +0.000 A 
ATOM      8  C   UNL     1       2.780   3.833  19.281  0.00  0.00    +0.000 A 
ATOM      9  N   UNL     1       2.383   5.122  19.476  0.00  0.00    +0.000 NA
ENDROOT
BRANCH   1  13
ATOM     10  C   UNL     1       1.340  10.012  19.052  0.00  0.00    +0.000 A 
ATOM     11  C   UNL     1       1.937   9.621  17.853  0.00  0.00    +0.000 A 
ATOM     12  C   UNL     1       2.417   8.321  17.691  0.00  0.00    +0.000 A 
ATOM     13  C   UNL     1       2.333   7.410  18.749  0.00  0.00    +0.000 A 
ATOM     14  C   UNL     1       1.745   7.808  19.957  0.00  0.00    +0.000 A 
ATOM     15  C   UNL     1       1.254   9.107  20.109  0.00  0.00    +0.000 A 
BRANCH  10  17
ATOM     16  C   UNL     1       1.865  12.282  18.698  0.00  0.00    +0.000 C 
ATOM     17  O   UNL     1       0.903  11.306  19.084  0.00  0.00    +0.000 OA
ENDBRANCH  10  17
ENDBRANCH   1  13
BRANCH   3  18
ATOM     18  N   UNL     1       4.988   3.984  16.313  0.00  0.00    +0.000 N 
ATOM     19  H   UNL     1       4.766   3.029  16.015  0.00  0.00    +0.000 HD
BRANCH  18  20
ATOM     20  C   UNL     1       5.544   4.895  15.310  0.00  0.00    +0.000 C 
ATOM     21  C   UNL     1       7.001   4.917  14.934  0.00  0.00    +0.000 C 
ATOM     22  C   UNL     1       6.001   4.310  13.998  0.00  0.00    +0.000 C 
ENDBRANCH  18  20
ENDBRANCH   3  18
BRANCH   7  23
ATOM     23  C   UNL     1       1.908   2.584  21.272  0.00  0.00    +0.000 C 
ATOM     24  N   UNL     1       1.349   2.539  22.288  0.00  0.00    +0.000 NA
ENDBRANCH   7  23
TORSDOF 5
ENDMDL
MODEL 4
REMARK VINA RESULT:      -7.6      1.002      1.564
REMARK  Name = 
REMARK  6 active torsions:
REMARK  status: ('A' for Active; 'I' for Inactive)
REMARK    1  A    between atoms: C_1  and  O_2
REMARK    2  A    between atoms: O_2  and  C_3
REMARK    3  A    between atoms: C_6  and  C_7
REMARK    4  A    between atoms: C_9  and  N_10
REMARK    5  A    between atoms: N_10  and  C_11
REMARK    6  A    between atoms: C_17  and  C_18
REMARK                            x       y       z     vdW  Elec       q    Type
REMARK                         _______ _______ _______ _____ _____    ______ ____
ROOT
ATOM      1  C   UNL     1       3.033   6.323  19.069  0.00  0.00    +0.000 A 
ATOM      2  C   UNL     1       4.265   6.256  18.221  0.00  0.00    +0.000 A 
ATOM      3  C   UNL     1       4.909   5.077  18.157  0.00  0.00    +0.000 A 
ATOM      4  N   UNL     1       4.381   3.995  18.916  0.00  0.00    +0.000 N 
ATOM      5  N   UNL     1       4.834   2.703  18.957  0.00  0.00    +0.000 NA
ATOM      6  C   UNL     1       4.069   2.117  19.883  0.00  0.00    +0.000 A 
ATOM      7  C   UNL     1       3.129   2.991  20.446  0.00  0.00    +0.000 A 
ATOM      8  C   UNL     1       3.281   4.175  19.763  0.00  0.00    +0.000 A 
ATOM      9  N   UNL     1       2.597   5.352  19.820  0.00  0.00    +0.000 NA
ENDROOT
BRANCH   1  13
ATOM     10  C   UNL     1       0.952  10.072  18.967  0.00  0.00    +0.000 A 
ATOM     11  C   UNL     1       0.946   9.308  20.135  0.00  0.00    +0.000 A 
ATOM     12  C   UNL     1       1.617   8.087  20.187  0.00  0.00    +0.000 A 
ATOM     13  C   UNL     1       2.274   7.604  19.050  0.00  0.00    +0.000 A 
ATOM     14  C   UNL     1       2.269   8.365  17.875  0.00  0.00    +0.000 A 
ATOM     15  C   UNL     1       1.606   9.594  17.833  0.00  0.00    +0.000 A 
BRANCH  10  17
ATOM     16  C   UNL     1      -1.138  11.153  18.833  0.00  0.00    +0.000 C 
ATOM     17  O   UNL     1       0.267  11.252  19.044  0.00  0.00    +0.000 OA
ENDBRANCH  10  17
ENDBRANCH   1  13
BRANCH   3  18
ATOM     18  N   UNL     1       6.094   4.851  17.453  0.00  0.00    +0.000 N 
ATOM     19  H   UNL     1       6.855   4.588  18.087  0.00  0.00    +0.000 HD
BRANCH  18  20
ATOM     20  C   UNL     1       6.092   4.257  16.114  0.00  0.00    +0.000 C 
ATOM     21  C   UNL     1       5.630   4.994  14.886  0.00  0.00    +0.000 C 
ATOM     22  C   UNL     1       7.094   4.768  15.112  0.00  0.00    +0.000 C 
ENDBRANCH  18  20
ENDBRANCH   3  18
BRANCH   7  23
ATOM     23  C   UNL     1       2.200   2.720  21.495  0.00  0.00    +0.000 C 
ATOM     24  N   UNL     1       1.447   2.542  22.359  0.00  0.00    +0.000 NA
ENDBRANCH   7  23
TORSDOF 5
ENDMDL
MODEL 5
REMARK VINA RESULT:      -7.6      1.024      1.206
REMARK  Name = 
REMARK  6 active torsions:
REMARK  status: ('A' for Active; 'I' for Inactive)
REMARK    1  A    between atoms: C_1  and  O_2
REMARK    2  A    between atoms: O_2  and  C_3
REMARK    3  A    between atoms: C_6  and  C_7
REMARK    4  A    between atoms: C_9  and  N_10
REMARK    5  A    between atoms: N_10  and  C_11
REMARK    6  A    between atoms: C_17  and  C_18
REMARK                            x       y       z     vdW  Elec       q    Type
REMARK                         _______ _______ _______ _____ _____    ______ ____
ROOT
ATOM      1  C   UNL     1       3.013   6.322  19.076  0.00  0.00    +0.000 A 
ATOM      2  C   UNL     1       4.230   6.204  18.212  0.00  0.00    +0.000 A 
ATOM      3  C   UNL     1       4.830   5.002  18.149  0.00  0.00    +0.000 A 
ATOM      4  N   UNL     1       4.274   3.946  18.923  0.00  0.00    +0.000 N 
ATOM      5  N   UNL     1       4.681   2.639  18.969  0.00  0.00    +0.000 NA
ATOM      6  C   UNL     1       3.908   2.088  19.909  0.00  0.00    +0.000 A 
ATOM      7  C   UNL     1       3.008   2.999  20.478  0.00  0.00    +0.000 A 
ATOM      8  C   UNL     1       3.193   4.172  19.783  0.00  0.00    +0.000 A 
ATOM      9  N   UNL     1       2.553   5.373  19.840  0.00  0.00    +0.000 NA
ENDROOT
BRANCH   1  13
ATOM     10  C   UNL     1       0.854  10.028  19.071  0.00  0.00    +0.000 A 
ATOM     11  C   UNL     1       1.524   9.616  17.918  0.00  0.00    +0.000 A 
ATOM     12  C   UNL     1       2.231   8.414  17.901  0.00  0.00    +0.000 A 
ATOM     13  C   UNL     1       2.300   7.630  19.057  0.00  0.00    +0.000 A 
ATOM     14  C   UNL     1       1.638   8.051  20.217  0.00  0.00    +0.000 A 
ATOM     15  C   UNL     1       0.920   9.249  20.225  0.00  0.00    +0.000 A 
BRANCH  10  17
ATOM     16  C   UNL     1      -1.219  11.147  19.135  0.00  0.00    +0.000 C 
ATOM     17  O   UNL     1       0.191  11.218  18.960  0.00  0.00    +0.000 OA
ENDBRANCH  10  17
ENDBRANCH   1  13
BRANCH   3  18
ATOM     18  N   UNL     1       5.996   4.729  17.431  0.00  0.00    +0.000 N 
ATOM     19  H   UNL     1       6.736   4.379  18.048  0.00  0.00    +0.000 HD
BRANCH  18  20
ATOM     20  C   UNL     1       5.953   4.206  16.063  0.00  0.00    +0.000 C 
ATOM     21  C   UNL     1       5.561   5.042  14.874  0.00  0.00    +0.000 C 
ATOM     22  C   UNL     1       7.000   4.683  15.090  0.00  0.00    +0.000 C 
ENDBRANCH  18  20
ENDBRANCH   3  18
BRANCH   7  23
ATOM     23  C   UNL     1       2.084   2.769  21.541  0.00  0.00    +0.000 C 
ATOM     24  N   UNL     1       1.317   2.549  22.383  0.00  0.00    +0.000 NA
ENDBRANCH   7  23
TORSDOF 5
ENDMDL
MODEL 6
REMARK VINA RESULT:      -7.5      4.445      6.495
REMARK  Name = 
REMARK  6 active torsions:
REMARK  status: ('A' for Active; 'I' for Inactive)
REMARK    1  A    between atoms: C_1  and  O_2
REMARK    2  A    between atoms: O_2  and  C_3
REMARK    3  A    between atoms: C_6  and  C_7
REMARK    4  A    between atoms: C_9  and  N_10
REMARK    5  A    between atoms: N_10  and  C_11
REMARK    6  A    between atoms: C_17  and  C_18
REMARK                            x       y       z     vdW  Elec       q    Type
REMARK                         _______ _______ _______ _____ _____    ______ ____
ROOT
ATOM      1  C   UNL     1       4.935   4.286  16.301  0.00  0.00    +0.000 A 
ATOM      2  C   UNL     1       5.849   5.304  16.908  0.00  0.00    +0.000 A 
ATOM      3  C   UNL     1       6.821   5.807  16.126  0.00  0.00    +0.000 A 
ATOM      4  N   UNL     1       6.916   5.317  14.794  0.00  0.00    +0.000 N 
ATOM      5  N   UNL     1       7.782   5.723  13.813  0.00  0.00    +0.000 NA
ATOM      6  C   UNL     1       7.534   4.895  12.794  0.00  0.00    +0.000 A 
ATOM      7  C   UNL     1       6.531   3.960  13.083  0.00  0.00    +0.000 A 
ATOM      8  C   UNL     1       6.081   4.289  14.340  0.00  0.00    +0.000 A 
ATOM      9  N   UNL     1       5.072   3.786  15.105  0.00  0.00    +0.000 NA
ENDROOT
BRANCH   1  13
ATOM     10  C   UNL     1       1.701   3.017  18.817  0.00  0.00    +0.000 A 
ATOM     11  C   UNL     1       2.627   2.080  18.355  0.00  0.00    +0.000 A 
ATOM     12  C   UNL     1       3.685   2.474  17.536  0.00  0.00    +0.000 A 
ATOM     13  C   UNL     1       3.802   3.812  17.144  0.00  0.00    +0.000 A 
ATOM     14  C   UNL     1       2.865   4.749  17.598  0.00  0.00    +0.000 A 
ATOM     15  C   UNL     1       1.815   4.351  18.428  0.00  0.00    +0.000 A 
BRANCH  10  17
ATOM     16  C   UNL     1       0.878   2.755  21.009  0.00  0.00    +0.000 C 
ATOM     17  O   UNL     1       0.716   2.510  19.616  0.00  0.00    +0.000 OA
ENDBRANCH  10  17
ENDBRANCH   1  13
BRANCH   3  18
ATOM     18  N   UNL     1       7.785   6.728  16.543  0.00  0.00    +0.000 N 
ATOM     19  H   UNL     1       8.343   7.062  15.750  0.00  0.00    +0.000 HD
BRANCH  18  20
ATOM     20  C   UNL     1       7.528   7.669  17.636  0.00  0.00    +0.000 C 
ATOM     21  C   UNL     1       8.576   8.074  18.637  0.00  0.00    +0.000 C 
ATOM     22  C   UNL     1       8.166   9.032  17.560  0.00  0.00    +0.000 C 
ENDBRANCH  18  20
ENDBRANCH   3  18
BRANCH   7  23
ATOM     23  C   UNL     1       6.058   2.898  12.254  0.00  0.00    +0.000 C 
ATOM     24  N   UNL     1       5.670   2.010  11.617  0.00  0.00    +0.000 NA
ENDBRANCH   7  23
TORSDOF 5
ENDMDL
MODEL 7
REMARK VINA RESULT:      -7.4      1.227      1.706
REMARK  Name = 
REMARK  6 active torsions:
REMARK  status: ('A' for Active; 'I' for Inactive)
REMARK    1  A    between atoms: C_1  and  O_2
REMARK    2  A    between atoms: O_2  and  C_3
REMARK    3  A    between atoms: C_6  and  C_7
REMARK    4  A    between atoms: C_9  and  N_10
REMARK    5  A    between atoms: N_10  and  C_11
REMARK    6  A    between atoms: C_17  and  C_18
REMARK                            x       y       z     vdW  Elec       q    Type
REMARK                         _______ _______ _______ _____ _____    ______ ____
ROOT
ATOM      1  C   UNL     1       2.656   6.047  18.648  0.00  0.00    +0.000 A 
ATOM      2  C   UNL     1       3.569   5.786  17.490  0.00  0.00    +0.000 A 
ATOM      3  C   UNL     1       3.936   4.512  17.267  0.00  0.00    +0.000 A 
ATOM      4  N   UNL     1       3.446   3.518  18.159  0.00  0.00    +0.000 N 
ATOM      5  N   UNL     1       3.641   2.164  18.091  0.00  0.00    +0.000 NA
ATOM      6  C   UNL     1       3.067   1.694  19.202  0.00  0.00    +0.000 A 
ATOM      7  C   UNL     1       2.502   2.704  19.993  0.00  0.00    +0.000 A 
ATOM      8  C   UNL     1       2.678   3.865  19.277  0.00  0.00    +0.000 A 
ATOM      9  N   UNL     1       2.271   5.145  19.505  0.00  0.00    +0.000 NA
ENDROOT
BRANCH   1  13
ATOM     10  C   UNL     1       1.389  10.120  19.107  0.00  0.00    +0.000 A 
ATOM     11  C   UNL     1       1.252   9.227  20.172  0.00  0.00    +0.000 A 
ATOM     12  C   UNL     1       1.658   7.900  20.041  0.00  0.00    +0.000 A 
ATOM     13  C   UNL     1       2.176   7.446  18.823  0.00  0.00    +0.000 A 
ATOM     14  C   UNL     1       2.302   8.339  17.751  0.00  0.00    +0.000 A 
ATOM     15  C   UNL     1       1.905   9.671  17.892  0.00  0.00    +0.000 A 
BRANCH  10  17
ATOM     16  C   UNL     1       0.743  11.697  20.734  0.00  0.00    +0.000 C 
ATOM     17  O   UNL     1       0.963  11.392  19.361  0.00  0.00    +0.000 OA
ENDBRANCH  10  17
ENDBRANCH   1  13
BRANCH   3  18
ATOM     18  N   UNL     1       4.815   4.099  16.263  0.00  0.00    +0.000 N 
ATOM     19  H   UNL     1       4.464   3.261  15.787  0.00  0.00    +0.000 HD
BRANCH  18  20
ATOM     20  C   UNL     1       5.579   5.061  15.465  0.00  0.00    +0.000 C 
ATOM     21  C   UNL     1       7.082   5.072  15.406  0.00  0.00    +0.000 C 
ATOM     22  C   UNL     1       6.295   4.554  14.240  0.00  0.00    +0.000 C 
ENDBRANCH  18  20
ENDBRANCH   3  18
BRANCH   7  23
ATOM     23  C   UNL     1       1.867   2.569  21.264  0.00  0.00    +0.000 C 
ATOM     24  N   UNL     1       1.389   2.465  22.316  0.00  0.00    +0.000 NA
ENDBRANCH   7  23
TORSDOF 5
ENDMDL
MODEL 8
REMARK VINA RESULT:      -7.2      1.576      3.976
REMARK  Name = 
REMARK  6 active torsions:
REMARK  status: ('A' for Active; 'I' for Inactive)
REMARK    1  A    between atoms: C_1  and  O_2
REMARK    2  A    between atoms: O_2  and  C_3
REMARK    3  A    between atoms: C_6  and  C_7
REMARK    4  A    between atoms: C_9  and  N_10
REMARK    5  A    between atoms: N_10  and  C_11
REMARK    6  A    between atoms: C_17  and  C_18
REMARK                            x       y       z     vdW  Elec       q    Type
REMARK                         _______ _______ _______ _____ _____    ______ ____
ROOT
ATOM      1  C   UNL     1       2.826   6.934  18.280  0.00  0.00    +0.000 A 
ATOM      2  C   UNL     1       2.127   5.637  18.012  0.00  0.00    +0.000 A 
ATOM      3  C   UNL     1       2.884   4.594  17.627  0.00  0.00    +0.000 A 
ATOM      4  N   UNL     1       4.283   4.811  17.484  0.00  0.00    +0.000 N 
ATOM      5  N   UNL     1       5.244   3.889  17.162  0.00  0.00    +0.000 NA
ATOM      6  C   UNL     1       6.365   4.607  17.060  0.00  0.00    +0.000 A 
ATOM      7  C   UNL     1       6.164   5.972  17.306  0.00  0.00    +0.000 A 
ATOM      8  C   UNL     1       4.839   6.084  17.658  0.00  0.00    +0.000 A 
ATOM      9  N   UNL     1       4.096   7.147  18.077  0.00  0.00    +0.000 NA
ENDROOT
BRANCH   1  13
ATOM     10  C   UNL     1       0.345  10.064  19.841  0.00  0.00    +0.000 A 
ATOM     11  C   UNL     1       0.695  10.067  18.490  0.00  0.00    +0.000 A 
ATOM     12  C   UNL     1       1.500   9.058  17.964  0.00  0.00    +0.000 A 
ATOM     13  C   UNL     1       1.993   8.051  18.803  0.00  0.00    +0.000 A 
ATOM     14  C   UNL     1       1.651   8.056  20.161  0.00  0.00    +0.000 A 
ATOM     15  C   UNL     1       0.833   9.063  20.679  0.00  0.00    +0.000 A 
BRANCH  10  17
ATOM     16  C   UNL     1      -1.514  11.423  19.339  0.00  0.00    +0.000 C 
ATOM     17  O   UNL     1      -0.454  11.101  20.233  0.00  0.00    +0.000 OA
ENDBRANCH  10  17
ENDBRANCH   1  13
BRANCH   3  18
ATOM     18  N   UNL     1       2.391   3.331  17.293  0.00  0.00    +0.000 N 
ATOM     19  H   UNL     1       2.760   3.018  16.389  0.00  0.00    +0.000 HD
BRANCH  18  20
ATOM     20  C   UNL     1       2.141   2.309  18.312  0.00  0.00    +0.000 C 
ATOM     21  C   UNL     1       1.876   2.635  19.757  0.00  0.00    +0.000 C 
ATOM     22  C   UNL     1       0.747   2.198  18.875  0.00  0.00    +0.000 C 
ENDBRANCH  18  20
ENDBRANCH   3  18
BRANCH   7  23
ATOM     23  C   UNL     1       7.121   7.027  17.225  0.00  0.00    +0.000 C 
ATOM     24  N   UNL     1       7.880   7.904  17.195  0.00  0.00    +0.000 NA
ENDBRANCH   7  23
TORSDOF 5
ENDMDL
MODEL 9
REMARK VINA RESULT:      -7.2      4.457      6.474
REMARK  Name = 
REMARK  6 active torsions:
REMARK  status: ('A' for Active; 'I' for Inactive)
REMARK    1  A    between atoms: C_1  and  O_2
REMARK    2  A    between atoms: O_2  and  C_3
REMARK    3  A    between atoms: C_6  and  C_7
REMARK    4  A    between atoms: C_9  and  N_10
REMARK    5  A    between atoms: N_10  and  C_11
REMARK    6  A    between atoms: C_17  and  C_18
REMARK                            x       y       z     vdW  Elec       q    Type
REMARK                         _______ _______ _______ _____ _____    ______ ____
ROOT
ATOM      1  C   UNL     1       4.962   4.326  16.393  0.00  0.00    +0.000 A 
ATOM      2  C   UNL     1       5.877   5.355  16.982  0.00  0.00    +0.000 A 
ATOM      3  C   UNL     1       6.841   5.853  16.188  0.00  0.00    +0.000 A 
ATOM      4  N   UNL     1       6.928   5.349  14.861  0.00  0.00    +0.000 N 
ATOM      5  N   UNL     1       7.785   5.748  13.869  0.00  0.00    +0.000 NA
ATOM      6  C   UNL     1       7.534   4.909  12.861  0.00  0.00    +0.000 A 
ATOM      7  C   UNL     1       6.536   3.973  13.167  0.00  0.00    +0.000 A 
ATOM      8  C   UNL     1       6.094   4.313  14.424  0.00  0.00    +0.000 A 
ATOM      9  N   UNL     1       5.092   3.815  15.202  0.00  0.00    +0.000 NA
ENDROOT
BRANCH   1  13
ATOM     10  C   UNL     1       1.703   2.878  18.775  0.00  0.00    +0.000 A 
ATOM     11  C   UNL     1       1.749   4.224  18.411  0.00  0.00    +0.000 A 
ATOM     12  C   UNL     1       2.801   4.713  17.637  0.00  0.00    +0.000 A 
ATOM     13  C   UNL     1       3.838   3.857  17.249  0.00  0.00    +0.000 A 
ATOM     14  C   UNL     1       3.797   2.509  17.626  0.00  0.00    +0.000 A 
ATOM     15  C   UNL     1       2.734   2.022  18.391  0.00  0.00    +0.000 A 
BRANCH  10  17
ATOM     16  C   UNL     1       0.764   2.708  20.930  0.00  0.00    +0.000 C 
ATOM     17  O   UNL     1       0.619   2.520  19.527  0.00  0.00    +0.000 OA
ENDBRANCH  10  17
ENDBRANCH   1  13
BRANCH   3  18
ATOM     18  N   UNL     1       7.805   6.781  16.589  0.00  0.00    +0.000 N 
ATOM     19  H   UNL     1       8.351   7.115  15.788  0.00  0.00    +0.000 HD
BRANCH  18  20
ATOM     20  C   UNL     1       7.555   7.727  17.680  0.00  0.00    +0.000 C 
ATOM     21  C   UNL     1       8.627   8.192  18.628  0.00  0.00    +0.000 C 
ATOM     22  C   UNL     1       8.128   9.115  17.558  0.00  0.00    +0.000 C 
ENDBRANCH  18  20
ENDBRANCH   3  18
BRANCH   7  23
ATOM     23  C   UNL     1       6.062   2.901  12.353  0.00  0.00    +0.000 C 
ATOM     24  N   UNL     1       5.678   2.056  11.656  0.00  0.00    +0.000 NA
ENDBRANCH   7  23
TORSDOF 5
ENDMDL
