MODEL 1
REMARK VINA RESULT:      -6.9      0.000      0.000
REMARK  Name = 
REMARK  6 active torsions:
REMARK  status: ('A' for Active; 'I' for Inactive)
REMARK    1  A    between atoms: C_1  and  C_2
REMARK    2  A    between atoms: C_2  and  C_3
REMARK    3  A    between atoms: C_2  and  N_4
REMARK    4  A    between atoms: N_4  and  C_5
REMARK    5  A    between atoms: C_5  and  N_7
REMARK    6  A    between atoms: C_10  and  C_11
REMARK                            x       y       z     vdW  Elec       q    Type
REMARK                         _______ _______ _______ _____ _____    ______ ____
ROOT
ATOM      1  N   UNL     1       5.124   5.917  16.904  0.00  0.00    +0.000 N 
ATOM      2  C   UNL     1       4.314   7.127  16.970  0.00  0.00    +0.000 C 
ATOM      3  C   UNL     1       3.051   6.695  17.671  0.00  0.00    +0.000 C 
ATOM      4  C   UNL     1       3.388   5.267  18.003  0.00  0.00    +0.000 C 
ATOM      5  N   UNL     1       4.546   4.854  17.575  0.00  0.00    +0.000 NA
ENDROOT
BRANCH   4   6
ATOM      6  C   UNL     1       2.425   4.406  18.734  0.00  0.00    +0.000 A 
ATOM      7  C   UNL     1       1.799   3.325  18.098  0.00  0.00    +0.000 A 
ATOM      8  C   UNL     1       0.906   2.515  18.805  0.00  0.00    +0.000 A 
ATOM      9  C   UNL     1       0.637   2.778  20.145  0.00  0.00    +0.000 A 
ATOM     10  C   UNL     1       1.262   3.848  20.786  0.00  0.00    +0.000 A 
ATOM     11  C   UNL     1       2.155   4.661  20.082  0.00  0.00    +0.000 A 
ENDBRANCH   4   6
BRANCH   1  12
ATOM     12  C   UNL     1       6.278   5.731  16.136  0.00  0.00    +0.000 C 
ATOM     13  S   UNL     1       6.339   4.799  14.743  0.00  0.00    +0.000 S 
BRANCH  12  14
ATOM     14  N   UNL     1       7.356   6.410  16.672  0.00  0.00    +0.000 N 
ATOM     15  H   UNL     1       7.921   6.803  15.922  0.00  0.00    +0.000 HD
BRANCH  14  17
ATOM     16  C   UNL     1       8.098   6.141  18.995  0.00  0.00    +0.000 C 
ATOM     17  C   UNL     1       7.427   7.056  17.979  0.00  0.00    +0.000 C 
ATOM     18  C   UNL     1       8.193   8.371  17.840  0.00  0.00    +0.000 C 
ENDBRANCH  14  17
ENDBRANCH  12  14
ENDBRANCH   1  12
TORSDOF 4
ENDMDL
MODEL 2
REMARK VINA RESULT:      -6.9      0.049      1.173
REMARK  Name = 
REMARK  6 active torsions:
REMARK  status: ('A' for Active; 'I' for Inactive)
REMARK    1  A    between atoms: C_1  and  C_2
REMARK    2  A    between atoms: C_2  and  C_3
REMARK    3  A    between atoms: C_2  and  N_4
REMARK    4  A    between atoms: N_4  and  C_5
REMARK    5  A    between atoms: C_5  and  N_7
REMARK    6  A    between atoms: C_10  and  C_11
REMARK                            x       y       z     vdW  Elec       q    Type
REMARK                         _______ _______ _______ _____ _____    ______ ____
ROOT
ATOM      1  N   UNL     1       5.131   5.908  16.910  0.00  0.00    +0.000 N 
ATOM      2  C   UNL     1       4.305   7.108  16.957  0.00  0.00    +0.000 C 
ATOM      3  C   UNL     1       3.044   6.668  17.656  0.00  0.00    +0.000 C 
ATOM      4  C   UNL     1       3.397   5.248  18.007  0.00  0.00    +0.000 C 
ATOM      5  N   UNL     1       4.563   4.846  17.590  0.00  0.00    +0.000 NA
ENDROOT
BRANCH   4   6
ATOM      6  C   UNL     1       2.441   4.383  18.742  0.00  0.00    +0.000 A 
ATOM      7  C   UNL     1       2.131   4.634  20.086  0.00  0.00    +0.000 A 
ATOM      8  C   UNL     1       1.217   3.818  20.760  0.00  0.00    +0.000 A 
ATOM      9  C   UNL     1       0.610   2.755  20.096  0.00  0.00    +0.000 A 
ATOM     10  C   UNL     1       0.910   2.505  18.757  0.00  0.00    +0.000 A 
ATOM     11  C   UNL     1       1.824   3.317  18.080  0.00  0.00    +0.000 A 
ENDBRANCH   4   6
BRANCH   1  12
ATOM     12  C   UNL     1       6.292   5.728  16.151  0.00  0.00    +0.000 C 
ATOM     13  S   UNL     1       6.390   4.726  14.810  0.00  0.00    +0.000 S 
BRANCH  12  14
ATOM     14  N   UNL     1       7.341   6.479  16.647  0.00  0.00    +0.000 N 
ATOM     15  H   UNL     1       7.835   6.928  15.879  0.00  0.00    +0.000 HD
BRANCH  14  17
ATOM     16  C   UNL     1       8.103   6.168  18.958  0.00  0.00    +0.000 C 
ATOM     17  C   UNL     1       7.429   7.104  17.962  0.00  0.00    +0.000 C 
ATOM     18  C   UNL     1       8.205   8.415  17.836  0.00  0.00    +0.000 C 
ENDBRANCH  14  17
ENDBRANCH  12  14
ENDBRANCH   1  12
TORSDOF 4
ENDMDL
MODEL 3
REMARK VINA RESULT:      -6.8      0.834      1.211
REMARK  Name = 
REMARK  6 active torsions:
REMARK  status: ('A' for Active; 'I' for Inactive)
REMARK    1  A    between atoms: C_1  and  C_2
REMARK    2  A    between atoms: C_2  and  C_3
REMARK    3  A    between atoms: C_2  and  N_4
REMARK    4  A    between atoms: N_4  and  C_5
REMARK    5  A    between atoms: C_5  and  N_7
REMARK    6  A    between atoms: C_10  and  C_11
REMARK                            x       y       z     vdW  Elec       q    Type
REMARK                         _______ _______ _______ _____ _____    ______ ____
ROOT
ATOM      1  N   UNL     1       4.786   6.356  17.375  0.00  0.00    +0.000 N 
ATOM      2  C   UNL     1       3.792   7.421  17.419  0.00  0.00    +0.000 C 
ATOM      3  C   UNL     1       2.656   6.840  18.223  0.00  0.00    +0.000 C 
ATOM      4  C   UNL     1       3.241   5.512  18.619  0.00  0.00    +0.000 C 
ATOM      5  N   UNL     1       4.428   5.263  18.144  0.00  0.00    +0.000 NA
ENDROOT
BRANCH   4   6
ATOM      6  C   UNL     1       2.473   4.560  19.459  0.00  0.00    +0.000 A 
ATOM      7  C   UNL     1       1.474   3.751  18.900  0.00  0.00    +0.000 A 
ATOM      8  C   UNL     1       0.770   2.848  19.703  0.00  0.00    +0.000 A 
ATOM      9  C   UNL     1       1.062   2.748  21.061  0.00  0.00    +0.000 A 
ATOM     10  C   UNL     1       2.061   3.545  21.621  0.00  0.00    +0.000 A 
ATOM     11  C   UNL     1       2.766   4.449  20.822  0.00  0.00    +0.000 A 
ENDBRANCH   4   6
BRANCH   1  12
ATOM     12  C   UNL     1       5.914   6.306  16.549  0.00  0.00    +0.000 C 
ATOM     13  S   UNL     1       6.259   5.038  15.508  0.00  0.00    +0.000 S 
BRANCH  12  14
ATOM     14  N   UNL     1       6.702   7.431  16.703  0.00  0.00    +0.000 N 
ATOM     15  H   UNL     1       6.132   8.267  16.595  0.00  0.00    +0.000 HD
BRANCH  14  17
ATOM     16  C   UNL     1       8.106   8.972  17.996  0.00  0.00    +0.000 C 
ATOM     17  C   UNL     1       7.926   7.546  17.490  0.00  0.00    +0.000 C 
ATOM     18  C   UNL     1       7.859   6.559  18.655  0.00  0.00    +0.000 C 
ENDBRANCH  14  17
ENDBRANCH  12  14
ENDBRANCH   1  12
TORSDOF 4
ENDMDL
MODEL 4
REMARK VINA RESULT:      -6.7      0.787      1.623
REMARK  Name = 
REMARK  6 active torsions:
REMARK  status: ('A' for Active; 'I' for Inactive)
REMARK    1  A    between atoms: C_1  and  C_2
REMARK    2  A    between atoms: C_2  and  C_3
REMARK    3  A    between atoms: C_2  and  N_4
REMARK    4  A    between atoms: N_4  and  C_5
REMARK    5  A    between atoms: C_5  and  N_7
REMARK    6  A    between atoms: C_10  and  C_11
REMARK                            x       y       z     vdW  Elec       q    Type
REMARK                         _______ _______ _______ _____ _____    ______ ____
ROOT
ATOM      1  N   UNL     1       4.847   6.260  17.386  0.00  0.00    +0.000 N 
ATOM      2  C   UNL     1       3.862   7.332  17.430  0.00  0.00    +0.000 C 
ATOM      3  C   UNL     1       2.714   6.755  18.219  0.00  0.00    +0.000 C 
ATOM      4  C   UNL     1       3.285   5.419  18.609  0.00  0.00    +0.000 C 
ATOM      5  N   UNL     1       4.473   5.164  18.142  0.00  0.00    +0.000 NA
ENDROOT
BRANCH   4   6
ATOM      6  C   UNL     1       2.502   4.467  19.435  0.00  0.00    +0.000 A 
ATOM      7  C   UNL     1       2.687   4.397  20.823  0.00  0.00    +0.000 A 
ATOM      8  C   UNL     1       1.930   3.504  21.589  0.00  0.00    +0.000 A 
ATOM      9  C   UNL     1       0.988   2.684  20.974  0.00  0.00    +0.000 A 
ATOM     10  C   UNL     1       0.795   2.754  19.594  0.00  0.00    +0.000 A 
ATOM     11  C   UNL     1       1.550   3.644  18.825  0.00  0.00    +0.000 A 
ENDBRANCH   4   6
BRANCH   1  12
ATOM     12  C   UNL     1       5.982   6.207  16.568  0.00  0.00    +0.000 C 
ATOM     13  S   UNL     1       6.364   4.909  15.577  0.00  0.00    +0.000 S 
BRANCH  12  14
ATOM     14  N   UNL     1       6.741   7.355  16.683  0.00  0.00    +0.000 N 
ATOM     15  H   UNL     1       6.156   8.171  16.517  0.00  0.00    +0.000 HD
BRANCH  14  17
ATOM     16  C   UNL     1       8.057   8.986  17.958  0.00  0.00    +0.000 C 
ATOM     17  C   UNL     1       7.939   7.539  17.497  0.00  0.00    +0.000 C 
ATOM     18  C   UNL     1       7.876   6.589  18.692  0.00  0.00    +0.000 C 
ENDBRANCH  14  17
ENDBRANCH  12  14
ENDBRANCH   1  12
TORSDOF 4
ENDMDL
MODEL 5
REMARK VINA RESULT:      -6.7      0.861      1.011
REMARK  Name = 
REMARK  6 active torsions:
REMARK  status: ('A' for Active; 'I' for Inactive)
REMARK    1  A    between atoms: C_1  and  C_2
REMARK    2  A    between atoms: C_2  and  C_3
REMARK    3  A    between atoms: C_2  and  N_4
REMARK    4  A    between atoms: N_4  and  C_5
REMARK    5  A    between atoms: C_5  and  N_7
REMARK    6  A    between atoms: C_10  and  C_11
REMARK                            x       y       z     vdW  Elec       q    Type
REMARK                         _______ _______ _______ _____ _____    ______ ____
ROOT
ATOM      1  N   UNL     1       5.142   5.771  17.114  0.00  0.00    +0.000 N 
ATOM      2  C   UNL     1       4.148   6.833  17.024  0.00  0.00    +0.000 C 
ATOM      3  C   UNL     1       3.014   6.362  17.899  0.00  0.00    +0.000 C 
ATOM      4  C   UNL     1       3.599   5.095  18.460  0.00  0.00    +0.000 C 
ATOM      5  N   UNL     1       4.785   4.786  18.018  0.00  0.00    +0.000 NA
ENDROOT
BRANCH   4   6
ATOM      6  C   UNL     1       2.833   4.260  19.418  0.00  0.00    +0.000 A 
ATOM      7  C   UNL     1       1.433   4.301  19.449  0.00  0.00    +0.000 A 
ATOM      8  C   UNL     1       0.726   3.496  20.347  0.00  0.00    +0.000 A 
ATOM      9  C   UNL     1       1.412   2.649  21.213  0.00  0.00    +0.000 A 
ATOM     10  C   UNL     1       2.806   2.598  21.182  0.00  0.00    +0.000 A 
ATOM     11  C   UNL     1       3.516   3.402  20.286  0.00  0.00    +0.000 A 
ENDBRANCH   4   6
BRANCH   1  12
ATOM     12  C   UNL     1       6.267   5.614  16.298  0.00  0.00    +0.000 C 
ATOM     13  S   UNL     1       6.348   4.547  15.007  0.00  0.00    +0.000 S 
BRANCH  12  14
ATOM     14  N   UNL     1       7.297   6.447  16.692  0.00  0.00    +0.000 N 
ATOM     15  H   UNL     1       7.712   6.888  15.875  0.00  0.00    +0.000 HD
BRANCH  14  17
ATOM     16  C   UNL     1       8.144   6.253  18.987  0.00  0.00    +0.000 C 
ATOM     17  C   UNL     1       7.429   7.137  17.972  0.00  0.00    +0.000 C 
ATOM     18  C   UNL     1       8.191   8.443  17.753  0.00  0.00    +0.000 C 
ENDBRANCH  14  17
ENDBRANCH  12  14
ENDBRANCH   1  12
TORSDOF 4
ENDMDL
MODEL 6
REMARK VINA RESULT:      -6.7      1.607      2.286
REMARK  Name = 
REMARK  6 active torsions:
REMARK  status: ('A' for Active; 'I' for Inactive)
REMARK    1  A    between atoms: C_1  and  C_2
REMARK    2  A    between atoms: C_2  and  C_3
REMARK    3  A    between atoms: C_2  and  N_4
REMARK    4  A    between atoms: N_4  and  C_5
REMARK    5  A    between atoms: C_5  and  N_7
REMARK    6  A    between atoms: C_10  and  C_11
REMARK                            x       y       z     vdW  Elec       q    Type
REMARK                         _______ _______ _______ _____ _____    ______ ____
ROOT
ATOM      1  N   UNL     1       4.865   6.676  17.489  0.00  0.00    +0.000 N 
ATOM      2  C   UNL     1       3.835   7.706  17.456  0.00  0.00    +0.000 C 
ATOM      3  C   UNL     1       2.601   7.021  17.987  0.00  0.00    +0.000 C 
ATOM      4  C   UNL     1       3.163   5.674  18.354  0.00  0.00    +0.000 C 
ATOM      5  N   UNL     1       4.424   5.503  18.076  0.00  0.00    +0.000 NA
ENDROOT
BRANCH   4   6
ATOM      6  C   UNL     1       2.301   4.625  18.951  0.00  0.00    +0.000 A 
ATOM      7  C   UNL     1       1.725   3.627  18.153  0.00  0.00    +0.000 A 
ATOM      8  C   UNL     1       0.927   2.636  18.734  0.00  0.00    +0.000 A 
ATOM      9  C   UNL     1       0.704   2.637  20.109  0.00  0.00    +0.000 A 
ATOM     10  C   UNL     1       1.280   3.625  20.908  0.00  0.00    +0.000 A 
ATOM     11  C   UNL     1       2.078   4.617  20.331  0.00  0.00    +0.000 A 
ENDBRANCH   4   6
BRANCH   1  12
ATOM     12  C   UNL     1       6.120   6.736  16.876  0.00  0.00    +0.000 C 
ATOM     13  S   UNL     1       7.464   7.474  17.557  0.00  0.00    +0.000 S 
BRANCH  12  14
ATOM     14  N   UNL     1       6.110   6.113  15.642  0.00  0.00    +0.000 N 
ATOM     15  H   UNL     1       5.981   6.806  14.909  0.00  0.00    +0.000 HD
BRANCH  14  17
ATOM     16  C   UNL     1       5.858   3.675  15.527  0.00  0.00    +0.000 C 
ATOM     17  C   UNL     1       6.777   4.866  15.282  0.00  0.00    +0.000 C 
ATOM     18  C   UNL     1       7.199   4.936  13.815  0.00  0.00    +0.000 C 
ENDBRANCH  14  17
ENDBRANCH  12  14
ENDBRANCH   1  12
TORSDOF 4
ENDMDL
MODEL 7
REMARK VINA RESULT:      -6.7      2.185      3.562
REMARK  Name = 
REMARK  6 active torsions:
REMARK  status: ('A' for Active; 'I' for Inactive)
REMARK    1  A    between atoms: C_1  and  C_2
REMARK    2  A    between atoms: C_2  and  C_3
REMARK    3  A    between atoms: C_2  and  N_4
REMARK    4  A    between atoms: N_4  and  C_5
REMARK    5  A    between atoms: C_5  and  N_7
REMARK    6  A    between atoms: C_10  and  C_11
REMARK                            x       y       z     vdW  Elec       q    Type
REMARK                         _______ _______ _______ _____ _____    ______ ____
ROOT
ATOM      1  N   UNL     1       4.554   5.835  16.989  0.00  0.00    +0.000 N 
ATOM      2  C   UNL     1       3.716   4.725  17.424  0.00  0.00    +0.000 C 
ATOM      3  C   UNL     1       2.641   5.371  18.260  0.00  0.00    +0.000 C 
ATOM      4  C   UNL     1       2.984   6.826  18.086  0.00  0.00    +0.000 C 
ATOM      5  N   UNL     1       4.047   7.064  17.372  0.00  0.00    +0.000 NA
ENDROOT
BRANCH   4   6
ATOM      6  C   UNL     1       2.171   7.885  18.733  0.00  0.00    +0.000 A 
ATOM      7  C   UNL     1       1.688   8.973  17.994  0.00  0.00    +0.000 A 
ATOM      8  C   UNL     1       0.909   9.954  18.615  0.00  0.00    +0.000 A 
ATOM      9  C   UNL     1       0.610   9.852  19.971  0.00  0.00    +0.000 A 
ATOM     10  C   UNL     1       1.083   8.767  20.710  0.00  0.00    +0.000 A 
ATOM     11  C   UNL     1       1.861   7.784  20.093  0.00  0.00    +0.000 A 
ENDBRANCH   4   6
BRANCH   1  12
ATOM     12  C   UNL     1       5.817   5.741  16.395  0.00  0.00    +0.000 C 
ATOM     13  S   UNL     1       6.367   4.388  15.570  0.00  0.00    +0.000 S 
BRANCH  12  14
ATOM     14  N   UNL     1       6.548   6.899  16.576  0.00  0.00    +0.000 N 
ATOM     15  H   UNL     1       5.946   7.709  16.443  0.00  0.00    +0.000 HD
BRANCH  14  17
ATOM     16  C   UNL     1       7.914   8.533  17.794  0.00  0.00    +0.000 C 
ATOM     17  C   UNL     1       7.733   7.070  17.412  0.00  0.00    +0.000 C 
ATOM     18  C   UNL     1       7.589   6.196  18.658  0.00  0.00    +0.000 C 
ENDBRANCH  14  17
ENDBRANCH  12  14
ENDBRANCH   1  12
TORSDOF 4
ENDMDL
MODEL 8
REMARK VINA RESULT:      -6.7      3.016      4.445
REMARK  Name = 
REMARK  6 active torsions:
REMARK  status: ('A' for Active; 'I' for Inactive)
REMARK    1  A    between atoms: C_1  and  C_2
REMARK    2  A    between atoms: C_2  and  C_3
REMARK    3  A    between atoms: C_2  and  N_4
REMARK    4  A    between atoms: N_4  and  C_5
REMARK    5  A    between atoms: C_5  and  N_7
REMARK    6  A    between atoms: C_10  and  C_11
REMARK                            x       y       z     vdW  Elec       q    Type
REMARK                         _______ _______ _______ _____ _____    ______ ____
ROOT
ATOM      1  N   UNL     1       6.387   4.195  15.368  0.00  0.00    +0.000 N 
ATOM      2  C   UNL     1       7.293   4.579  16.442  0.00  0.00    +0.000 C 
ATOM      3  C   UNL     1       6.403   4.728  17.650  0.00  0.00    +0.000 C 
ATOM      4  C   UNL     1       5.081   4.290  17.080  0.00  0.00    +0.000 C 
ATOM      5  N   UNL     1       5.093   3.992  15.813  0.00  0.00    +0.000 NA
ENDROOT
BRANCH   4   6
ATOM      6  C   UNL     1       3.861   4.252  17.924  0.00  0.00    +0.000 A 
ATOM      7  C   UNL     1       3.897   4.673  19.260  0.00  0.00    +0.000 A 
ATOM      8  C   UNL     1       2.735   4.646  20.038  0.00  0.00    +0.000 A 
ATOM      9  C   UNL     1       1.537   4.201  19.485  0.00  0.00    +0.000 A 
ATOM     10  C   UNL     1       1.493   3.788  18.153  0.00  0.00    +0.000 A 
ATOM     11  C   UNL     1       2.653   3.813  17.373  0.00  0.00    +0.000 A 
ENDBRANCH   4   6
BRANCH   1  12
ATOM     12  C   UNL     1       6.681   4.173  14.000  0.00  0.00    +0.000 C 
ATOM     13  S   UNL     1       7.751   5.227  13.254  0.00  0.00    +0.000 S 
BRANCH  12  14
ATOM     14  N   UNL     1       5.979   3.177  13.349  0.00  0.00    +0.000 N 
ATOM     15  H   UNL     1       5.252   2.813  13.961  0.00  0.00    +0.000 HD
BRANCH  14  17
ATOM     16  C   UNL     1       6.163   1.642  11.444  0.00  0.00    +0.000 C 
ATOM     17  C   UNL     1       5.778   3.041  11.909  0.00  0.00    +0.000 C 
ATOM     18  C   UNL     1       4.316   3.340  11.583  0.00  0.00    +0.000 C 
ENDBRANCH  14  17
ENDBRANCH  12  14
ENDBRANCH   1  12
TORSDOF 4
ENDMDL
MODEL 9
REMARK VINA RESULT:      -6.7      3.055      4.204
REMARK  Name = 
REMARK  6 active torsions:
REMARK  status: ('A' for Active; 'I' for Inactive)
REMARK    1  A    between atoms: C_1  and  C_2
REMARK    2  A    between atoms: C_2  and  C_3
REMARK    3  A    between atoms: C_2  and  N_4
REMARK    4  A    between atoms: N_4  and  C_5
REMARK    5  A    between atoms: C_5  and  N_7
REMARK    6  A    between atoms: C_10  and  C_11
REMARK                            x       y       z     vdW  Elec       q    Type
REMARK                         _______ _______ _______ _____ _____    ______ ____
ROOT
ATOM      1  N   UNL     1       5.911   4.664  15.049  0.00  0.00    +0.000 N 
ATOM      2  C   UNL     1       5.787   5.979  15.664  0.00  0.00    +0.000 C 
ATOM      3  C   UNL     1       4.703   5.809  16.698  0.00  0.00    +0.000 C 
ATOM      4  C   UNL     1       4.431   4.334  16.581  0.00  0.00    +0.000 C 
ATOM      5  N   UNL     1       5.116   3.713  15.663  0.00  0.00    +0.000 NA
ENDROOT
BRANCH   4   6
ATOM      6  C   UNL     1       3.415   3.674  17.439  0.00  0.00    +0.000 A 
ATOM      7  C   UNL     1       3.640   2.395  17.965  0.00  0.00    +0.000 A 
ATOM      8  C   UNL     1       2.679   1.794  18.784  0.00  0.00    +0.000 A 
ATOM      9  C   UNL     1       1.497   2.467  19.081  0.00  0.00    +0.000 A 
ATOM     10  C   UNL     1       1.271   3.743  18.566  0.00  0.00    +0.000 A 
ATOM     11  C   UNL     1       2.229   4.347  17.746  0.00  0.00    +0.000 A 
ENDBRANCH   4   6
BRANCH   1  12
ATOM     12  C   UNL     1       6.605   4.359  13.873  0.00  0.00    +0.000 C 
ATOM     13  S   UNL     1       7.880   5.268  13.274  0.00  0.00    +0.000 S 
BRANCH  12  14
ATOM     14  N   UNL     1       6.106   3.218  13.274  0.00  0.00    +0.000 N 
ATOM     15  H   UNL     1       5.545   2.697  13.944  0.00  0.00    +0.000 HD
BRANCH  14  17
ATOM     16  C   UNL     1       6.180   1.609  11.424  0.00  0.00    +0.000 C 
ATOM     17  C   UNL     1       5.818   3.024  11.857  0.00  0.00    +0.000 C 
ATOM     18  C   UNL     1       4.336   3.307  11.610  0.00  0.00    +0.000 C 
ENDBRANCH  14  17
ENDBRANCH  12  14
ENDBRANCH   1  12
TORSDOF 4
ENDMDL
