MODEL 1
REMARK VINA RESULT:      -6.9      0.000      0.000
REMARK  Name = 
REMARK  5 active torsions:
REMARK  status: ('A' for Active; 'I' for Inactive)
REMARK    1  A    between atoms: C_1  and  N_2
REMARK    2  A    between atoms: C_4  and  C_5
REMARK    3  A    between atoms: C_5  and  N_6
REMARK    4  A    between atoms: N_14  and  C_15
REMARK    5  A    between atoms: C_15  and  C_16
REMARK                            x       y       z     vdW  Elec       q    Type
REMARK                         _______ _______ _______ _____ _____    ______ ____
ROOT
ATOM      1  N   UNL     1       1.935   7.421  20.366  0.00  0.00    +0.000 NA
ATOM      2  C   UNL     1       2.050   8.077  19.027  0.00  0.00    +0.000 C 
ATOM      3  C   UNL     1       2.490   6.988  18.020  0.00  0.00    +0.000 C 
ATOM      4  C   UNL     1       2.949   5.903  18.952  0.00  0.00    +0.000 C 
ATOM      5  C   UNL     1       1.906   5.993  20.048  0.00  0.00    +0.000 C 
ATOM      6  C   UNL     1       2.378   4.854  20.943  0.00  0.00    +0.000 C 
ATOM      7  C   UNL     1       2.787   3.827  19.873  0.00  0.00    +0.000 C 
ATOM      8  O   UNL     1       3.000   2.645  20.071  0.00  0.00    +0.000 OA
ATOM      9  N   UNL     1       2.916   4.510  18.649  0.00  0.00    +0.000 N 
ENDROOT
BRANCH   1  10
ATOM     10  C   UNL     1       0.725   7.833  21.093  0.00  0.00    +0.000 C 
BRANCH  10  14
ATOM     11  C   UNL     1      -0.663  12.434  19.598  0.00  0.00    +0.000 C 
ATOM     12  N   UNL     1      -0.131  11.322  20.349  0.00  0.00    +0.000 N 
ATOM     13  C   UNL     1      -0.374   9.994  20.145  0.00  0.00    +0.000 A 
ATOM     14  C   UNL     1       0.476   9.303  20.988  0.00  0.00    +0.000 A 
ATOM     15  C   UNL     1       1.145  10.333  21.697  0.00  0.00    +0.000 A 
ATOM     16  N   UNL     1       0.768  11.555  21.320  0.00  0.00    +0.000 NA
ENDBRANCH  10  14
ENDBRANCH   1  10
BRANCH   9  17
ATOM     17  C   UNL     1       3.476   3.944  17.438  0.00  0.00    +0.000 C 
BRANCH  17  18
ATOM     18  C   UNL     1       4.885   4.425  17.187  0.00  0.00    +0.000 A 
ATOM     19  C   UNL     1       5.883   4.298  18.158  0.00  0.00    +0.000 A 
ATOM     20  C   UNL     1       7.164   4.745  17.865  0.00  0.00    +0.000 A 
ATOM     21  N   UNL     1       7.516   5.305  16.691  0.00  0.00    +0.000 NA
ATOM     22  C   UNL     1       6.545   5.415  15.760  0.00  0.00    +0.000 A 
ATOM     23  C   UNL     1       5.240   4.993  15.957  0.00  0.00    +0.000 A 
ENDBRANCH  17  18
ENDBRANCH   9  17
TORSDOF 4
ENDMDL
MODEL 2
REMARK VINA RESULT:      -6.8      0.505      1.335
REMARK  Name = 
REMARK  5 active torsions:
REMARK  status: ('A' for Active; 'I' for Inactive)
REMARK    1  A    between atoms: C_1  and  N_2
REMARK    2  A    between atoms: C_4  and  C_5
REMARK    3  A    between atoms: C_5  and  N_6
REMARK    4  A    between atoms: N_14  and  C_15
REMARK    5  A    between atoms: C_15  and  C_16
REMARK                            x       y       z     vdW  Elec       q    Type
REMARK                         _______ _______ _______ _____ _____    ______ ____
ROOT
ATOM      1  N   UNL     1       2.032   7.558  20.232  0.00  0.00    +0.000 NA
ATOM      2  C   UNL     1       2.104   8.169  18.869  0.00  0.00    +0.000 C 
ATOM      3  C   UNL     1       2.496   7.045  17.882  0.00  0.00    +0.000 C 
ATOM      4  C   UNL     1       2.977   5.984  18.830  0.00  0.00    +0.000 C 
ATOM      5  C   UNL     1       1.976   6.121  19.960  0.00  0.00    +0.000 C 
ATOM      6  C   UNL     1       2.468   5.005  20.873  0.00  0.00    +0.000 C 
ATOM      7  C   UNL     1       2.827   3.939  19.822  0.00  0.00    +0.000 C 
ATOM      8  O   UNL     1       3.034   2.762  20.050  0.00  0.00    +0.000 OA
ATOM      9  N   UNL     1       2.918   4.583  18.573  0.00  0.00    +0.000 N 
ENDROOT
BRANCH   1  10
ATOM     10  C   UNL     1       0.854   8.007  20.989  0.00  0.00    +0.000 C 
BRANCH  10  14
ATOM     11  C   UNL     1       0.365  13.009  21.240  0.00  0.00    +0.000 C 
ATOM     12  N   UNL     1       0.309  11.631  20.817  0.00  0.00    +0.000 N 
ATOM     13  C   UNL     1       1.034  10.584  21.310  0.00  0.00    +0.000 A 
ATOM     14  C   UNL     1       0.525   9.440  20.723  0.00  0.00    +0.000 A 
ATOM     15  C   UNL     1      -0.470   9.937  19.844  0.00  0.00    +0.000 A 
ATOM     16  N   UNL     1      -0.592  11.264  19.891  0.00  0.00    +0.000 NA
ENDBRANCH  10  14
ENDBRANCH   1  10
BRANCH   9  17
ATOM     17  C   UNL     1       3.426   3.972  17.361  0.00  0.00    +0.000 C 
BRANCH  17  18
ATOM     18  C   UNL     1       4.856   4.372  17.082  0.00  0.00    +0.000 A 
ATOM     19  C   UNL     1       5.249   4.844  15.827  0.00  0.00    +0.000 A 
ATOM     20  C   UNL     1       6.573   5.210  15.634  0.00  0.00    +0.000 A 
ATOM     21  N   UNL     1       7.522   5.137  16.587  0.00  0.00    +0.000 NA
ATOM     22  C   UNL     1       7.128   4.687  17.797  0.00  0.00    +0.000 A 
ATOM     23  C   UNL     1       5.828   4.303  18.088  0.00  0.00    +0.000 A 
ENDBRANCH  17  18
ENDBRANCH   9  17
TORSDOF 4
ENDMDL
MODEL 3
REMARK VINA RESULT:      -6.8      0.437      1.071
REMARK  Name = 
REMARK  5 active torsions:
REMARK  status: ('A' for Active; 'I' for Inactive)
REMARK    1  A    between atoms: C_1  and  N_2
REMARK    2  A    between atoms: C_4  and  C_5
REMARK    3  A    between atoms: C_5  and  N_6
REMARK    4  A    between atoms: N_14  and  C_15
REMARK    5  A    between atoms: C_15  and  C_16
REMARK                            x       y       z     vdW  Elec       q    Type
REMARK                         _______ _______ _______ _____ _____    ______ ____
ROOT
ATOM      1  N   UNL     1       1.959   7.739  20.260  0.00  0.00    +0.000 NA
ATOM      2  C   UNL     1       2.054   8.334  18.891  0.00  0.00    +0.000 C 
ATOM      3  C   UNL     1       2.453   7.196  17.923  0.00  0.00    +0.000 C 
ATOM      4  C   UNL     1       2.915   6.144  18.890  0.00  0.00    +0.000 C 
ATOM      5  C   UNL     1       1.899   6.299  20.004  0.00  0.00    +0.000 C 
ATOM      6  C   UNL     1       2.372   5.191  20.936  0.00  0.00    +0.000 C 
ATOM      7  C   UNL     1       2.739   4.112  19.902  0.00  0.00    +0.000 C 
ATOM      8  O   UNL     1       2.937   2.936  20.147  0.00  0.00    +0.000 OA
ATOM      9  N   UNL     1       2.852   4.741  18.648  0.00  0.00    +0.000 N 
ENDROOT
BRANCH   1  10
ATOM     10  C   UNL     1       0.773   8.202  20.995  0.00  0.00    +0.000 C 
BRANCH  10  14
ATOM     11  C   UNL     1      -1.060  12.302  18.723  0.00  0.00    +0.000 C 
ATOM     12  N   UNL     1      -0.411  11.402  19.646  0.00  0.00    +0.000 N 
ATOM     13  C   UNL     1      -0.540  10.044  19.706  0.00  0.00    +0.000 A 
ATOM     14  C   UNL     1       0.391   9.600  20.627  0.00  0.00    +0.000 A 
ATOM     15  C   UNL     1       0.983  10.797  21.100  0.00  0.00    +0.000 A 
ATOM     16  N   UNL     1       0.489  11.890  20.516  0.00  0.00    +0.000 NA
ENDBRANCH  10  14
ENDBRANCH   1  10
BRANCH   9  17
ATOM     17  C   UNL     1       3.374   4.114  17.450  0.00  0.00    +0.000 C 
BRANCH  17  18
ATOM     18  C   UNL     1       4.811   4.499  17.190  0.00  0.00    +0.000 A 
ATOM     19  C   UNL     1       5.209   5.046  15.967  0.00  0.00    +0.000 A 
ATOM     20  C   UNL     1       6.540   5.395  15.790  0.00  0.00    +0.000 A 
ATOM     21  N   UNL     1       7.492   5.237  16.730  0.00  0.00    +0.000 NA
ATOM     22  C   UNL     1       7.093   4.714  17.909  0.00  0.00    +0.000 A 
ATOM     23  C   UNL     1       5.786   4.341  18.182  0.00  0.00    +0.000 A 
ENDBRANCH  17  18
ENDBRANCH   9  17
TORSDOF 4
ENDMDL
MODEL 4
REMARK VINA RESULT:      -6.8      2.415      7.871
REMARK  Name = 
REMARK  5 active torsions:
REMARK  status: ('A' for Active; 'I' for Inactive)
REMARK    1  A    between atoms: C_1  and  N_2
REMARK    2  A    between atoms: C_4  and  C_5
REMARK    3  A    between atoms: C_5  and  N_6
REMARK    4  A    between atoms: N_14  and  C_15
REMARK    5  A    between atoms: C_15  and  C_16
REMARK                            x       y       z     vdW  Elec       q    Type
REMARK                         _______ _______ _______ _____ _____    ______ ____
ROOT
ATOM      1  N   UNL     1       2.719   5.972  19.427  0.00  0.00    +0.000 NA
ATOM      2  C   UNL     1       1.837   5.813  20.625  0.00  0.00    +0.000 C 
ATOM      3  C   UNL     1       1.073   7.145  20.811  0.00  0.00    +0.000 C 
ATOM      4  C   UNL     1       1.871   8.061  19.928  0.00  0.00    +0.000 C 
ATOM      5  C   UNL     1       2.175   7.152  18.754  0.00  0.00    +0.000 C 
ATOM      6  C   UNL     1       2.941   8.126  17.869  0.00  0.00    +0.000 C 
ATOM      7  C   UNL     1       2.119   9.406  18.108  0.00  0.00    +0.000 C 
ATOM      8  O   UNL     1       2.173  10.417  17.433  0.00  0.00    +0.000 OA
ATOM      9  N   UNL     1       1.344   9.207  19.265  0.00  0.00    +0.000 N 
ENDROOT
BRANCH   1  10
ATOM     10  C   UNL     1       2.693   4.794  18.548  0.00  0.00    +0.000 C 
BRANCH  10  14
ATOM     11  C   UNL     1       7.619   4.580  17.540  0.00  0.00    +0.000 C 
ATOM     12  N   UNL     1       6.189   4.393  17.508  0.00  0.00    +0.000 N 
ATOM     13  C   UNL     1       5.293   4.687  18.497  0.00  0.00    +0.000 A 
ATOM     14  C   UNL     1       4.034   4.500  17.957  0.00  0.00    +0.000 A 
ATOM     15  C   UNL     1       4.303   4.033  16.646  0.00  0.00    +0.000 A 
ATOM     16  N   UNL     1       5.608   3.956  16.378  0.00  0.00    +0.000 NA
ENDBRANCH  10  14
ENDBRANCH   1  10
BRANCH   9  17
ATOM     17  C   UNL     1       0.583  10.240  19.941  0.00  0.00    +0.000 C 
BRANCH  17  18
ATOM     18  C   UNL     1      -0.716  10.542  19.232  0.00  0.00    +0.000 A 
ATOM     19  C   UNL     1      -1.513  11.629  19.602  0.00  0.00    +0.000 A 
ATOM     20  C   UNL     1      -2.689  11.865  18.904  0.00  0.00    +0.000 A 
ATOM     21  N   UNL     1      -3.124  11.104  17.881  0.00  0.00    +0.000 NA
ATOM     22  C   UNL     1      -2.341  10.062  17.529  0.00  0.00    +0.000 A 
ATOM     23  C   UNL     1      -1.148   9.749  18.161  0.00  0.00    +0.000 A 
ENDBRANCH  17  18
ENDBRANCH   9  17
TORSDOF 4
ENDMDL
MODEL 5
REMARK VINA RESULT:      -6.8      1.840      2.331
REMARK  Name = 
REMARK  5 active torsions:
REMARK  status: ('A' for Active; 'I' for Inactive)
REMARK    1  A    between atoms: C_1  and  N_2
REMARK    2  A    between atoms: C_4  and  C_5
REMARK    3  A    between atoms: C_5  and  N_6
REMARK    4  A    between atoms: N_14  and  C_15
REMARK    5  A    between atoms: C_15  and  C_16
REMARK                            x       y       z     vdW  Elec       q    Type
REMARK                         _______ _______ _______ _____ _____    ______ ____
ROOT
ATOM      1  N   UNL     1       1.246   9.431  19.615  0.00  0.00    +0.000 NA
ATOM      2  C   UNL     1       1.612   9.783  18.209  0.00  0.00    +0.000 C 
ATOM      3  C   UNL     1       2.280   8.536  17.583  0.00  0.00    +0.000 C 
ATOM      4  C   UNL     1       2.570   7.718  18.809  0.00  0.00    +0.000 C 
ATOM      5  C   UNL     1       1.324   7.969  19.634  0.00  0.00    +0.000 C 
ATOM      6  C   UNL     1       1.636   7.093  20.840  0.00  0.00    +0.000 C 
ATOM      7  C   UNL     1       2.285   5.889  20.134  0.00  0.00    +0.000 C 
ATOM      8  O   UNL     1       2.487   4.799  20.636  0.00  0.00    +0.000 OA
ATOM      9  N   UNL     1       2.640   6.295  18.834  0.00  0.00    +0.000 N 
ENDROOT
BRANCH   1  10
ATOM     10  C   UNL     1      -0.098   9.900  19.982  0.00  0.00    +0.000 C 
BRANCH  10  14
ATOM     11  C   UNL     1      -1.188  13.559  23.261  0.00  0.00    +0.000 C 
ATOM     12  N   UNL     1      -0.516  12.698  22.319  0.00  0.00    +0.000 N 
ATOM     13  C   UNL     1      -0.911  11.459  21.902  0.00  0.00    +0.000 A 
ATOM     14  C   UNL     1      -0.054  11.094  20.880  0.00  0.00    +0.000 A 
ATOM     15  C   UNL     1       0.857  12.178  20.811  0.00  0.00    +0.000 A 
ATOM     16  N   UNL     1       0.586  13.143  21.691  0.00  0.00    +0.000 NA
ENDBRANCH  10  14
ENDBRANCH   1  10
BRANCH   9  17
ATOM     17  C   UNL     1       3.451   5.521  17.916  0.00  0.00    +0.000 C 
BRANCH  17  18
ATOM     18  C   UNL     1       4.923   5.826  18.064  0.00  0.00    +0.000 A 
ATOM     19  C   UNL     1       5.588   6.663  17.163  0.00  0.00    +0.000 A 
ATOM     20  C   UNL     1       6.938   6.919  17.358  0.00  0.00    +0.000 A 
ATOM     21  N   UNL     1       7.664   6.406  18.371  0.00  0.00    +0.000 NA
ATOM     22  C   UNL     1       7.008   5.605  19.237  0.00  0.00    +0.000 A 
ATOM     23  C   UNL     1       5.661   5.295  19.129  0.00  0.00    +0.000 A 
ENDBRANCH  17  18
ENDBRANCH   9  17
TORSDOF 4
ENDMDL
MODEL 6
REMARK VINA RESULT:      -6.7      3.232      8.310
REMARK  Name = 
REMARK  5 active torsions:
REMARK  status: ('A' for Active; 'I' for Inactive)
REMARK    1  A    between atoms: C_1  and  N_2
REMARK    2  A    between atoms: C_4  and  C_5
REMARK    3  A    between atoms: C_5  and  N_6
REMARK    4  A    between atoms: N_14  and  C_15
REMARK    5  A    between atoms: C_15  and  C_16
REMARK                            x       y       z     vdW  Elec       q    Type
REMARK                         _______ _______ _______ _____ _____    ______ ____
ROOT
ATOM      1  N   UNL     1       1.603   7.965  19.033  0.00  0.00    +0.000 NA
ATOM      2  C   UNL     1       1.777   8.989  17.957  0.00  0.00    +0.000 C 
ATOM      3  C   UNL     1       1.436  10.366  18.574  0.00  0.00    +0.000 C 
ATOM      4  C   UNL     1       0.737   9.950  19.837  0.00  0.00    +0.000 C 
ATOM      5  C   UNL     1       1.575   8.761  20.261  0.00  0.00    +0.000 C 
ATOM      6  C   UNL     1       0.866   8.400  21.560  0.00  0.00    +0.000 C 
ATOM      7  C   UNL     1       0.571   9.810  22.103  0.00  0.00    +0.000 C 
ATOM      8  O   UNL     1       0.234  10.073  23.243  0.00  0.00    +0.000 OA
ATOM      9  N   UNL     1       0.713  10.718  21.037  0.00  0.00    +0.000 N 
ENDROOT
BRANCH   1  10
ATOM     10  C   UNL     1       2.695   6.981  19.057  0.00  0.00    +0.000 C 
BRANCH  10  14
ATOM     11  C   UNL     1       1.554   2.712  21.465  0.00  0.00    +0.000 C 
ATOM     12  N   UNL     1       1.704   3.742  20.466  0.00  0.00    +0.000 N 
ATOM     13  C   UNL     1       2.014   5.056  20.671  0.00  0.00    +0.000 A 
ATOM     14  C   UNL     1       2.215   5.614  19.422  0.00  0.00    +0.000 A 
ATOM     15  C   UNL     1       1.937   4.544  18.534  0.00  0.00    +0.000 A 
ATOM     16  N   UNL     1       1.615   3.414  19.166  0.00  0.00    +0.000 NA
ENDBRANCH  10  14
ENDBRANCH   1  10
BRANCH   9  17
ATOM     17  C   UNL     1       0.332  12.116  21.083  0.00  0.00    +0.000 C 
BRANCH  17  18
ATOM     18  C   UNL     1      -1.166  12.296  21.032  0.00  0.00    +0.000 A 
ATOM     19  C   UNL     1      -1.915  12.512  22.192  0.00  0.00    +0.000 A 
ATOM     20  C   UNL     1      -3.287  12.686  22.081  0.00  0.00    +0.000 A 
ATOM     21  N   UNL     1      -3.958  12.657  20.914  0.00  0.00    +0.000 NA
ATOM     22  C   UNL     1      -3.223  12.455  19.800  0.00  0.00    +0.000 A 
ATOM     23  C   UNL     1      -1.848  12.277  19.809  0.00  0.00    +0.000 A 
ENDBRANCH  17  18
ENDBRANCH   9  17
TORSDOF 4
ENDMDL
MODEL 7
REMARK VINA RESULT:      -6.7      2.772      4.446
REMARK  Name = 
REMARK  5 active torsions:
REMARK  status: ('A' for Active; 'I' for Inactive)
REMARK    1  A    between atoms: C_1  and  N_2
REMARK    2  A    between atoms: C_4  and  C_5
REMARK    3  A    between atoms: C_5  and  N_6
REMARK    4  A    between atoms: N_14  and  C_15
REMARK    5  A    between atoms: C_15  and  C_16
REMARK                            x       y       z     vdW  Elec       q    Type
REMARK                         _______ _______ _______ _____ _____    ______ ____
ROOT
ATOM      1  N   UNL     1       0.327   9.622  19.779  0.00  0.00    +0.000 NA
ATOM      2  C   UNL     1       0.258   9.036  21.153  0.00  0.00    +0.000 C 
ATOM      3  C   UNL     1       1.286   7.882  21.210  0.00  0.00    +0.000 C 
ATOM      4  C   UNL     1       1.573   7.678  19.750  0.00  0.00    +0.000 C 
ATOM      5  C   UNL     1       1.591   9.108  19.249  0.00  0.00    +0.000 C 
ATOM      6  C   UNL     1       1.928   8.861  17.785  0.00  0.00    +0.000 C 
ATOM      7  C   UNL     1       2.947   7.717  17.935  0.00  0.00    +0.000 C 
ATOM      8  O   UNL     1       3.705   7.326  17.067  0.00  0.00    +0.000 OA
ATOM      9  N   UNL     1       2.805   7.184  19.230  0.00  0.00    +0.000 N 
ENDROOT
BRANCH   1  10
ATOM     10  C   UNL     1       0.311  11.093  19.793  0.00  0.00    +0.000 C 
BRANCH  10  14
ATOM     11  C   UNL     1      -4.192  13.144  20.712  0.00  0.00    +0.000 C 
ATOM     12  N   UNL     1      -3.047  12.545  20.070  0.00  0.00    +0.000 N 
ATOM     13  C   UNL     1      -1.783  12.428  20.573  0.00  0.00    +0.000 A 
ATOM     14  C   UNL     1      -1.075  11.643  19.682  0.00  0.00    +0.000 A 
ATOM     15  C   UNL     1      -2.009  11.395  18.646  0.00  0.00    +0.000 A 
ATOM     16  N   UNL     1      -3.200  11.952  18.874  0.00  0.00    +0.000 NA
ENDBRANCH  10  14
ENDBRANCH   1  10
BRANCH   9  17
ATOM     17  C   UNL     1       3.439   5.969  19.700  0.00  0.00    +0.000 C 
BRANCH  17  18
ATOM     18  C   UNL     1       2.501   4.786  19.656  0.00  0.00    +0.000 A 
ATOM     19  C   UNL     1       2.093   4.223  18.444  0.00  0.00    +0.000 A 
ATOM     20  C   UNL     1       1.241   3.128  18.467  0.00  0.00    +0.000 A 
ATOM     21  N   UNL     1       0.769   2.564  19.596  0.00  0.00    +0.000 NA
ATOM     22  C   UNL     1       1.176   3.113  20.759  0.00  0.00    +0.000 A 
ATOM     23  C   UNL     1       2.029   4.203  20.839  0.00  0.00    +0.000 A 
ENDBRANCH  17  18
ENDBRANCH   9  17
TORSDOF 4
ENDMDL
MODEL 8
REMARK VINA RESULT:      -6.7      2.297      7.750
REMARK  Name = 
REMARK  5 active torsions:
REMARK  status: ('A' for Active; 'I' for Inactive)
REMARK    1  A    between atoms: C_1  and  N_2
REMARK    2  A    between atoms: C_4  and  C_5
REMARK    3  A    between atoms: C_5  and  N_6
REMARK    4  A    between atoms: N_14  and  C_15
REMARK    5  A    between atoms: C_15  and  C_16
REMARK                            x       y       z     vdW  Elec       q    Type
REMARK                         _______ _______ _______ _____ _____    ______ ____
ROOT
ATOM      1  N   UNL     1       3.075   5.647  19.340  0.00  0.00    +0.000 NA
ATOM      2  C   UNL     1       2.204   5.399  20.531  0.00  0.00    +0.000 C 
ATOM      3  C   UNL     1       1.348   6.669  20.745  0.00  0.00    +0.000 C 
ATOM      4  C   UNL     1       2.080   7.659  19.886  0.00  0.00    +0.000 C 
ATOM      5  C   UNL     1       2.449   6.801  18.693  0.00  0.00    +0.000 C 
ATOM      6  C   UNL     1       3.145   7.847  17.832  0.00  0.00    +0.000 C 
ATOM      7  C   UNL     1       2.235   9.060  18.097  0.00  0.00    +0.000 C 
ATOM      8  O   UNL     1       2.218  10.088  17.446  0.00  0.00    +0.000 OA
ATOM      9  N   UNL     1       1.474   8.780  19.248  0.00  0.00    +0.000 N 
ENDROOT
BRANCH   1  10
ATOM     10  C   UNL     1       3.133   4.491  18.434  0.00  0.00    +0.000 C 
BRANCH  10  14
ATOM     11  C   UNL     1       6.475   4.027  14.700  0.00  0.00    +0.000 C 
ATOM     12  N   UNL     1       5.843   4.299  15.968  0.00  0.00    +0.000 N 
ATOM     13  C   UNL     1       4.504   4.386  16.224  0.00  0.00    +0.000 A 
ATOM     14  C   UNL     1       4.370   4.491  17.596  0.00  0.00    +0.000 A 
ATOM     15  C   UNL     1       5.711   4.516  18.057  0.00  0.00    +0.000 A 
ATOM     16  N   UNL     1       6.603   4.413  17.071  0.00  0.00    +0.000 NA
ENDBRANCH  10  14
ENDBRANCH   1  10
BRANCH   9  17
ATOM     17  C   UNL     1       0.642   9.741  19.944  0.00  0.00    +0.000 C 
BRANCH  17  18
ATOM     18  C   UNL     1      -0.369  10.385  19.026  0.00  0.00    +0.000 A 
ATOM     19  C   UNL     1      -1.273   9.619  18.284  0.00  0.00    +0.000 A 
ATOM     20  C   UNL     1      -2.188  10.268  17.468  0.00  0.00    +0.000 A 
ATOM     21  N   UNL     1      -2.265  11.606  17.337  0.00  0.00    +0.000 NA
ATOM     22  C   UNL     1      -1.392  12.335  18.064  0.00  0.00    +0.000 A 
ATOM     23  C   UNL     1      -0.445  11.779  18.911  0.00  0.00    +0.000 A 
ENDBRANCH  17  18
ENDBRANCH   9  17
TORSDOF 4
ENDMDL
MODEL 9
REMARK VINA RESULT:      -6.7      2.906      8.257
REMARK  Name = 
REMARK  5 active torsions:
REMARK  status: ('A' for Active; 'I' for Inactive)
REMARK    1  A    between atoms: C_1  and  N_2
REMARK    2  A    between atoms: C_4  and  C_5
REMARK    3  A    between atoms: C_5  and  N_6
REMARK    4  A    between atoms: N_14  and  C_15
REMARK    5  A    between atoms: C_15  and  C_16
REMARK                            x       y       z     vdW  Elec       q    Type
REMARK                         _______ _______ _______ _____ _____    ______ ____
ROOT
ATOM      1  N   UNL     1       1.970   7.477  18.956  0.00  0.00    +0.000 NA
ATOM      2  C   UNL     1       2.227   8.279  17.720  0.00  0.00    +0.000 C 
ATOM      3  C   UNL     1       1.809   9.736  18.023  0.00  0.00    +0.000 C 
ATOM      4  C   UNL     1       1.003   9.550  19.277  0.00  0.00    +0.000 C 
ATOM      5  C   UNL     1       1.817   8.494  19.998  0.00  0.00    +0.000 C 
ATOM      6  C   UNL     1       0.997   8.368  21.275  0.00  0.00    +0.000 C 
ATOM      7  C   UNL     1       0.631   9.846  21.504  0.00  0.00    +0.000 C 
ATOM      8  O   UNL     1       0.187  10.313  22.536  0.00  0.00    +0.000 OA
ATOM      9  N   UNL     1       0.856  10.535  20.297  0.00  0.00    +0.000 N 
ENDROOT
BRANCH   1  10
ATOM     10  C   UNL     1       3.071   6.554  19.267  0.00  0.00    +0.000 C 
BRANCH  10  14
ATOM     11  C   UNL     1       3.345   1.658  18.133  0.00  0.00    +0.000 C 
ATOM     12  N   UNL     1       2.893   3.018  18.304  0.00  0.00    +0.000 N 
ATOM     13  C   UNL     1       3.460   3.987  19.082  0.00  0.00    +0.000 A 
ATOM     14  C   UNL     1       2.789   5.162  18.800  0.00  0.00    +0.000 A 
ATOM     15  C   UNL     1       1.793   4.759  17.875  0.00  0.00    +0.000 A 
ATOM     16  N   UNL     1       1.848   3.459  17.584  0.00  0.00    +0.000 NA
ENDBRANCH  10  14
ENDBRANCH   1  10
BRANCH   9  17
ATOM     17  C   UNL     1       0.451  11.901  20.035  0.00  0.00    +0.000 C 
BRANCH  17  18
ATOM     18  C   UNL     1      -1.038  12.016  19.807  0.00  0.00    +0.000 A 
ATOM     19  C   UNL     1      -1.641  11.506  18.654  0.00  0.00    +0.000 A 
ATOM     20  C   UNL     1      -3.016  11.629  18.507  0.00  0.00    +0.000 A 
ATOM     21  N   UNL     1      -3.821  12.219  19.413  0.00  0.00    +0.000 NA
ATOM     22  C   UNL     1      -3.226  12.700  20.525  0.00  0.00    +0.000 A 
ATOM     23  C   UNL     1      -1.863  12.620  20.764  0.00  0.00    +0.000 A 
ENDBRANCH  17  18
ENDBRANCH   9  17
TORSDOF 4
ENDMDL
