MODEL 1
REMARK VINA RESULT:      -7.0      0.000      0.000
REMARK  Name = 
REMARK  5 active torsions:
REMARK  status: ('A' for Active; 'I' for Inactive)
REMARK    1  A    between atoms: C_1  and  N_2
REMARK    2  A    between atoms: C_8  and  N_9
REMARK    3  A    between atoms: C_10  and  C_12
REMARK    4  A    between atoms: C_12  and  C_13
REMARK    5  A    between atoms: C_19  and  C_20
REMARK                            x       y       z     vdW  Elec       q    Type
REMARK                         _______ _______ _______ _____ _____    ______ ____
ROOT
ATOM      1  C   UNL     1      -0.229  14.397  20.135  0.00  0.00    +0.000 C 
ATOM      2  N   UNL     1      -1.265  13.348  19.515  0.00  0.00    +0.000 NA
ATOM      3  C   UNL     1      -1.925  12.637  20.628  0.00  0.00    +0.000 C 
ATOM      4  C   UNL     1      -0.910  11.750  21.277  0.00  0.00    +0.000 C 
ATOM      5  C   UNL     1      -0.238  10.855  20.317  0.00  0.00    +0.000 A 
ATOM      6  C   UNL     1      -0.304  10.996  18.972  0.00  0.00    +0.000 A 
ATOM      7  S   UNL     1       0.645   9.736  18.278  0.00  0.00    +0.000 S 
ATOM      8  C   UNL     1       1.141   9.040  19.779  0.00  0.00    +0.000 A 
ATOM      9  C   UNL     1       0.536   9.836  20.794  0.00  0.00    +0.000 A 
ATOM     10  C   UNL     1      -1.052  12.205  18.428  0.00  0.00    +0.000 C 
ENDROOT
BRANCH   8  11
ATOM     11  N   UNL     1       1.912   7.807  19.953  0.00  0.00    +0.000 N 
ATOM     12  C   UNL     1       2.766   7.332  18.997  0.00  0.00    +0.000 C 
ATOM     13  O   UNL     1       2.875   7.960  18.012  0.00  0.00    +0.000 OA
ATOM     14  H   UNL     1       1.837   7.283  20.827  0.00  0.00    +0.000 HD
BRANCH  12  15
ATOM     15  C   UNL     1       3.486   6.002  18.932  0.00  0.00    +0.000 C 
BRANCH  15  16
ATOM     16  C   UNL     1       2.569   4.768  19.207  0.00  0.00    +0.000 A 
ATOM     17  C   UNL     1       1.987   3.926  18.206  0.00  0.00    +0.000 A 
ATOM     18  C   UNL     1       1.031   2.986  18.493  0.00  0.00    +0.000 A 
ATOM     19  C   UNL     1       0.718   2.710  19.799  0.00  0.00    +0.000 A 
ATOM     20  C   UNL     1       1.337   3.426  20.825  0.00  0.00    +0.000 A 
ATOM     21  C   UNL     1       2.237   4.464  20.534  0.00  0.00    +0.000 A 
ENDBRANCH  15  16
ENDBRANCH  12  15
ENDBRANCH   8  11
BRANCH   9  22
ATOM     22  C   UNL     1       0.551   9.719  22.242  0.00  0.00    +0.000 C 
ATOM     23  N   UNL     1       0.592   9.648  23.400  0.00  0.00    +0.000 NA
ENDBRANCH   9  22
TORSDOF 4
ENDMDL
MODEL 2
REMARK VINA RESULT:      -7.0      0.676      1.227
REMARK  Name = 
REMARK  5 active torsions:
REMARK  status: ('A' for Active; 'I' for Inactive)
REMARK    1  A    between atoms: C_1  and  N_2
REMARK    2  A    between atoms: C_8  and  N_9
REMARK    3  A    between atoms: C_10  and  C_12
REMARK    4  A    between atoms: C_12  and  C_13
REMARK    5  A    between atoms: C_19  and  C_20
REMARK                            x       y       z     vdW  Elec       q    Type
REMARK                         _______ _______ _______ _____ _____    ______ ____
ROOT
ATOM      1  C   UNL     1       0.887  14.699  20.530  0.00  0.00    +0.000 C 
ATOM      2  N   UNL     1      -0.365  13.950  19.875  0.00  0.00    +0.000 NA
ATOM      3  C   UNL     1      -1.123  13.285  20.953  0.00  0.00    +0.000 C 
ATOM      4  C   UNL     1      -0.295  12.150  21.468  0.00  0.00    +0.000 C 
ATOM      5  C   UNL     1       0.143  11.233  20.399  0.00  0.00    +0.000 A 
ATOM      6  C   UNL     1       0.064  11.515  19.076  0.00  0.00    +0.000 A 
ATOM      7  S   UNL     1       0.705  10.161  18.226  0.00  0.00    +0.000 S 
ATOM      8  C   UNL     1       1.093   9.235  19.632  0.00  0.00    +0.000 A 
ATOM      9  C   UNL     1       0.701  10.035  20.743  0.00  0.00    +0.000 A 
ATOM     10  C   UNL     1      -0.432  12.900  18.682  0.00  0.00    +0.000 C 
ENDROOT
BRANCH   8  11
ATOM     11  N   UNL     1       1.593   7.859  19.655  0.00  0.00    +0.000 N 
ATOM     12  C   UNL     1       2.565   7.414  18.803  0.00  0.00    +0.000 C 
ATOM     13  O   UNL     1       3.005   8.188  18.038  0.00  0.00    +0.000 OA
ATOM     14  H   UNL     1       1.229   7.200  20.347  0.00  0.00    +0.000 HD
BRANCH  12  15
ATOM     15  C   UNL     1       3.059   6.003  18.566  0.00  0.00    +0.000 C 
BRANCH  15  16
ATOM     16  C   UNL     1       2.344   4.924  19.440  0.00  0.00    +0.000 A 
ATOM     17  C   UNL     1       2.544   4.726  20.844  0.00  0.00    +0.000 A 
ATOM     18  C   UNL     1       2.048   3.641  21.518  0.00  0.00    +0.000 A 
ATOM     19  C   UNL     1       1.191   2.779  20.883  0.00  0.00    +0.000 A 
ATOM     20  C   UNL     1       0.873   2.984  19.540  0.00  0.00    +0.000 A 
ATOM     21  C   UNL     1       1.462   4.034  18.815  0.00  0.00    +0.000 A 
ENDBRANCH  15  16
ENDBRANCH  12  15
ENDBRANCH   8  11
BRANCH   9  22
ATOM     22  C   UNL     1       0.738   9.778  22.172  0.00  0.00    +0.000 C 
ATOM     23  N   UNL     1       0.803   9.567  23.311  0.00  0.00    +0.000 NA
ENDBRANCH   9  22
TORSDOF 4
ENDMDL
MODEL 3
REMARK VINA RESULT:      -6.8      2.600      7.630
REMARK  Name = 
REMARK  5 active torsions:
REMARK  status: ('A' for Active; 'I' for Inactive)
REMARK    1  A    between atoms: C_1  and  N_2
REMARK    2  A    between atoms: C_8  and  N_9
REMARK    3  A    between atoms: C_10  and  C_12
REMARK    4  A    between atoms: C_12  and  C_13
REMARK    5  A    between atoms: C_19  and  C_20
REMARK                            x       y       z     vdW  Elec       q    Type
REMARK                         _______ _______ _______ _____ _____    ______ ____
ROOT
ATOM      1  C   UNL     1       6.483   5.597  18.421  0.00  0.00    +0.000 C 
ATOM      2  N   UNL     1       5.202   4.672  18.175  0.00  0.00    +0.000 NA
ATOM      3  C   UNL     1       4.413   5.257  17.072  0.00  0.00    +0.000 C 
ATOM      4  C   UNL     1       3.806   6.533  17.564  0.00  0.00    +0.000 C 
ATOM      5  C   UNL     1       3.040   6.356  18.812  0.00  0.00    +0.000 A 
ATOM      6  C   UNL     1       3.101   5.250  19.591  0.00  0.00    +0.000 A 
ATOM      7  S   UNL     1       2.054   5.512  20.933  0.00  0.00    +0.000 S 
ATOM      8  C   UNL     1       1.556   7.098  20.464  0.00  0.00    +0.000 A 
ATOM      9  C   UNL     1       2.243   7.376  19.247  0.00  0.00    +0.000 A 
ATOM     10  C   UNL     1       4.087   4.161  19.189  0.00  0.00    +0.000 C 
ENDROOT
BRANCH   8  11
ATOM     11  N   UNL     1       0.536   7.918  21.120  0.00  0.00    +0.000 N 
ATOM     12  C   UNL     1       0.843   8.885  22.035  0.00  0.00    +0.000 C 
ATOM     13  O   UNL     1       1.980   9.050  22.282  0.00  0.00    +0.000 OA
ATOM     14  H   UNL     1      -0.449   7.791  20.875  0.00  0.00    +0.000 HD
BRANCH  12  15
ATOM     15  C   UNL     1      -0.078   9.683  22.933  0.00  0.00    +0.000 C 
BRANCH  15  16
ATOM     16  C   UNL     1      -0.797  10.868  22.215  0.00  0.00    +0.000 A 
ATOM     17  C   UNL     1      -1.787  11.718  22.802  0.00  0.00    +0.000 A 
ATOM     18  C   UNL     1      -2.529  12.609  22.070  0.00  0.00    +0.000 A 
ATOM     19  C   UNL     1      -2.222  12.829  20.752  0.00  0.00    +0.000 A 
ATOM     20  C   UNL     1      -1.190  12.105  20.152  0.00  0.00    +0.000 A 
ATOM     21  C   UNL     1      -0.497  11.114  20.868  0.00  0.00    +0.000 A 
ENDBRANCH  15  16
ENDBRANCH  12  15
ENDBRANCH   8  11
BRANCH   9  22
ATOM     22  C   UNL     1       2.199   8.525  18.360  0.00  0.00    +0.000 C 
ATOM     23  N   UNL     1       2.128   9.447  17.659  0.00  0.00    +0.000 NA
ENDBRANCH   9  22
TORSDOF 4
ENDMDL
MODEL 4
REMARK VINA RESULT:      -6.8      1.839      2.735
REMARK  Name = 
REMARK  5 active torsions:
REMARK  status: ('A' for Active; 'I' for Inactive)
REMARK    1  A    between atoms: C_1  and  N_2
REMARK    2  A    between atoms: C_8  and  N_9
REMARK    3  A    between atoms: C_10  and  C_12
REMARK    4  A    between atoms: C_12  and  C_13
REMARK    5  A    between atoms: C_19  and  C_20
REMARK                            x       y       z     vdW  Elec       q    Type
REMARK                         _______ _______ _______ _____ _____    ______ ____
ROOT
ATOM      1  C   UNL     1      -3.609  12.839  20.894  0.00  0.00    +0.000 C 
ATOM      2  N   UNL     1      -2.714  12.937  22.217  0.00  0.00    +0.000 NA
ATOM      3  C   UNL     1      -1.506  13.724  21.901  0.00  0.00    +0.000 C 
ATOM      4  C   UNL     1      -0.649  12.909  20.985  0.00  0.00    +0.000 C 
ATOM      5  C   UNL     1      -0.358  11.567  21.521  0.00  0.00    +0.000 A 
ATOM      6  C   UNL     1      -1.007  11.011  22.572  0.00  0.00    +0.000 A 
ATOM      7  S   UNL     1      -0.336   9.443  22.816  0.00  0.00    +0.000 S 
ATOM      8  C   UNL     1       0.790   9.525  21.508  0.00  0.00    +0.000 A 
ATOM      9  C   UNL     1       0.597  10.804  20.910  0.00  0.00    +0.000 A 
ATOM     10  C   UNL     1      -2.163  11.795  23.178  0.00  0.00    +0.000 C 
ENDROOT
BRANCH   8  11
ATOM     11  N   UNL     1       1.815   8.533  21.181  0.00  0.00    +0.000 N 
ATOM     12  C   UNL     1       1.924   7.966  19.942  0.00  0.00    +0.000 C 
ATOM     13  O   UNL     1       1.156   8.312  19.123  0.00  0.00    +0.000 OA
ATOM     14  H   UNL     1       2.501   8.262  21.889  0.00  0.00    +0.000 HD
BRANCH  12  15
ATOM     15  C   UNL     1       2.788   6.809  19.489  0.00  0.00    +0.000 C 
BRANCH  15  16
ATOM     16  C   UNL     1       2.051   5.432  19.478  0.00  0.00    +0.000 A 
ATOM     17  C   UNL     1       1.514   4.767  20.627  0.00  0.00    +0.000 A 
ATOM     18  C   UNL     1       1.061   3.474  20.591  0.00  0.00    +0.000 A 
ATOM     19  C   UNL     1       0.958   2.822  19.389  0.00  0.00    +0.000 A 
ATOM     20  C   UNL     1       1.366   3.462  18.218  0.00  0.00    +0.000 A 
ATOM     21  C   UNL     1       1.931   4.747  18.261  0.00  0.00    +0.000 A 
ENDBRANCH  15  16
ENDBRANCH  12  15
ENDBRANCH   8  11
BRANCH   9  22
ATOM     22  C   UNL     1       1.274  11.460  19.806  0.00  0.00    +0.000 C 
ATOM     23  N   UNL     1       1.840  11.957  18.922  0.00  0.00    +0.000 NA
ENDBRANCH   9  22
TORSDOF 4
ENDMDL
MODEL 5
REMARK VINA RESULT:      -6.8      2.204      3.088
REMARK  Name = 
REMARK  5 active torsions:
REMARK  status: ('A' for Active; 'I' for Inactive)
REMARK    1  A    between atoms: C_1  and  N_2
REMARK    2  A    between atoms: C_8  and  N_9
REMARK    3  A    between atoms: C_10  and  C_12
REMARK    4  A    between atoms: C_12  and  C_13
REMARK    5  A    between atoms: C_19  and  C_20
REMARK                            x       y       z     vdW  Elec       q    Type
REMARK                         _______ _______ _______ _____ _____    ______ ____
ROOT
ATOM      1  C   UNL     1      -2.683  14.737  23.915  0.00  0.00    +0.000 C 
ATOM      2  N   UNL     1      -3.486  13.955  22.774  0.00  0.00    +0.000 NA
ATOM      3  C   UNL     1      -3.618  12.543  23.185  0.00  0.00    +0.000 C 
ATOM      4  C   UNL     1      -2.263  11.914  23.120  0.00  0.00    +0.000 C 
ATOM      5  C   UNL     1      -1.614  12.092  21.808  0.00  0.00    +0.000 A 
ATOM      6  C   UNL     1      -2.043  12.956  20.858  0.00  0.00    +0.000 A 
ATOM      7  S   UNL     1      -0.968  12.821  19.519  0.00  0.00    +0.000 S 
ATOM      8  C   UNL     1       0.060  11.632  20.236  0.00  0.00    +0.000 A 
ATOM      9  C   UNL     1      -0.484  11.376  21.527  0.00  0.00    +0.000 A 
ATOM     10  C   UNL     1      -3.221  13.856  21.208  0.00  0.00    +0.000 C 
ENDROOT
BRANCH   8  11
ATOM     11  N   UNL     1       1.174  10.941  19.584  0.00  0.00    +0.000 N 
ATOM     12  C   UNL     1       0.996  10.068  18.547  0.00  0.00    +0.000 C 
ATOM     13  O   UNL     1      -0.105   9.890  18.178  0.00  0.00    +0.000 OA
ATOM     14  H   UNL     1       2.133  11.127  19.890  0.00  0.00    +0.000 HD
BRANCH  12  15
ATOM     15  C   UNL     1       1.996   9.140  17.892  0.00  0.00    +0.000 C 
BRANCH  15  16
ATOM     16  C   UNL     1       2.161   7.768  18.619  0.00  0.00    +0.000 A 
ATOM     17  C   UNL     1       2.571   6.544  18.000  0.00  0.00    +0.000 A 
ATOM     18  C   UNL     1       2.504   5.332  18.637  0.00  0.00    +0.000 A 
ATOM     19  C   UNL     1       2.188   5.281  19.971  0.00  0.00    +0.000 A 
ATOM     20  C   UNL     1       1.885   6.458  20.656  0.00  0.00    +0.000 A 
ATOM     21  C   UNL     1       1.848   7.691  19.982  0.00  0.00    +0.000 A 
ENDBRANCH  15  16
ENDBRANCH  12  15
ENDBRANCH   8  11
BRANCH   9  22
ATOM     22  C   UNL     1      -0.085  10.450  22.572  0.00  0.00    +0.000 C 
ATOM     23  N   UNL     1       0.270   9.714  23.396  0.00  0.00    +0.000 NA
ENDBRANCH   9  22
TORSDOF 4
ENDMDL
MODEL 6
REMARK VINA RESULT:      -6.8      2.666      7.689
REMARK  Name = 
REMARK  5 active torsions:
REMARK  status: ('A' for Active; 'I' for Inactive)
REMARK    1  A    between atoms: C_1  and  N_2
REMARK    2  A    between atoms: C_8  and  N_9
REMARK    3  A    between atoms: C_10  and  C_12
REMARK    4  A    between atoms: C_12  and  C_13
REMARK    5  A    between atoms: C_19  and  C_20
REMARK                            x       y       z     vdW  Elec       q    Type
REMARK                         _______ _______ _______ _____ _____    ______ ____
ROOT
ATOM      1  C   UNL     1       6.754   5.664  18.542  0.00  0.00    +0.000 C 
ATOM      2  N   UNL     1       5.548   4.653  18.256  0.00  0.00    +0.000 NA
ATOM      3  C   UNL     1       4.762   5.180  17.123  0.00  0.00    +0.000 C 
ATOM      4  C   UNL     1       4.053   6.413  17.586  0.00  0.00    +0.000 C 
ATOM      5  C   UNL     1       3.256   6.189  18.807  0.00  0.00    +0.000 A 
ATOM      6  C   UNL     1       3.364   5.092  19.594  0.00  0.00    +0.000 A 
ATOM      7  S   UNL     1       2.254   5.286  20.897  0.00  0.00    +0.000 S 
ATOM      8  C   UNL     1       1.667   6.833  20.402  0.00  0.00    +0.000 A 
ATOM      9  C   UNL     1       2.376   7.153  19.208  0.00  0.00    +0.000 A 
ATOM     10  C   UNL     1       4.435   4.071  19.233  0.00  0.00    +0.000 C 
ENDROOT
BRANCH   8  11
ATOM     11  N   UNL     1       0.571   7.584  21.017  0.00  0.00    +0.000 N 
ATOM     12  C   UNL     1       0.782   8.619  21.884  0.00  0.00    +0.000 C 
ATOM     13  O   UNL     1       1.896   8.903  22.121  0.00  0.00    +0.000 OA
ATOM     14  H   UNL     1      -0.396   7.352  20.779  0.00  0.00    +0.000 HD
BRANCH  12  15
ATOM     15  C   UNL     1      -0.215   9.369  22.741  0.00  0.00    +0.000 C 
BRANCH  15  16
ATOM     16  C   UNL     1      -0.661  10.742  22.145  0.00  0.00    +0.000 A 
ATOM     17  C   UNL     1      -0.428  11.180  20.802  0.00  0.00    +0.000 A 
ATOM     18  C   UNL     1      -0.660  12.467  20.391  0.00  0.00    +0.000 A 
ATOM     19  C   UNL     1      -1.288  13.348  21.234  0.00  0.00    +0.000 A 
ATOM     20  C   UNL     1      -1.638  12.942  22.523  0.00  0.00    +0.000 A 
ATOM     21  C   UNL     1      -1.307  11.657  22.986  0.00  0.00    +0.000 A 
ENDBRANCH  15  16
ENDBRANCH  12  15
ENDBRANCH   8  11
BRANCH   9  22
ATOM     22  C   UNL     1       2.287   8.294  18.314  0.00  0.00    +0.000 C 
ATOM     23  N   UNL     1       2.249   9.199  17.589  0.00  0.00    +0.000 NA
ENDBRANCH   9  22
TORSDOF 4
ENDMDL
MODEL 7
REMARK VINA RESULT:      -6.8      5.659      8.482
REMARK  Name = 
REMARK  5 active torsions:
REMARK  status: ('A' for Active; 'I' for Inactive)
REMARK    1  A    between atoms: C_1  and  N_2
REMARK    2  A    between atoms: C_8  and  N_9
REMARK    3  A    between atoms: C_10  and  C_12
REMARK    4  A    between atoms: C_12  and  C_13
REMARK    5  A    between atoms: C_19  and  C_20
REMARK                            x       y       z     vdW  Elec       q    Type
REMARK                         _______ _______ _______ _____ _____    ______ ____
ROOT
ATOM      1  C   UNL     1       0.798   4.885  20.699  0.00  0.00    +0.000 C 
ATOM      2  N   UNL     1       1.264   3.357  20.624  0.00  0.00    +0.000 NA
ATOM      3  C   UNL     1       2.545   3.228  21.346  0.00  0.00    +0.000 C 
ATOM      4  C   UNL     1       3.598   3.930  20.549  0.00  0.00    +0.000 C 
ATOM      5  C   UNL     1       3.657   3.469  19.149  0.00  0.00    +0.000 A 
ATOM      6  C   UNL     1       2.702   2.713  18.558  0.00  0.00    +0.000 A 
ATOM      7  S   UNL     1       3.199   2.441  16.931  0.00  0.00    +0.000 S 
ATOM      8  C   UNL     1       4.665   3.350  17.039  0.00  0.00    +0.000 A 
ATOM      9  C   UNL     1       4.715   3.848  18.373  0.00  0.00    +0.000 A 
ATOM     10  C   UNL     1       1.454   2.395  19.370  0.00  0.00    +0.000 C 
ENDROOT
BRANCH   8  11
ATOM     11  N   UNL     1       5.696   3.461  16.006  0.00  0.00    +0.000 N 
ATOM     12  C   UNL     1       5.840   4.574  15.225  0.00  0.00    +0.000 C 
ATOM     13  O   UNL     1       5.099   5.465  15.416  0.00  0.00    +0.000 OA
ATOM     14  H   UNL     1       6.358   2.694  15.867  0.00  0.00    +0.000 HD
BRANCH  12  15
ATOM     15  C   UNL     1       6.713   4.783  14.006  0.00  0.00    +0.000 C 
BRANCH  15  16
ATOM     16  C   UNL     1       6.414   3.797  12.833  0.00  0.00    +0.000 A 
ATOM     17  C   UNL     1       5.110   3.425  12.371  0.00  0.00    +0.000 A 
ATOM     18  C   UNL     1       4.903   2.407  11.478  0.00  0.00    +0.000 A 
ATOM     19  C   UNL     1       5.975   1.810  10.865  0.00  0.00    +0.000 A 
ATOM     20  C   UNL     1       7.271   2.208  11.196  0.00  0.00    +0.000 A 
ATOM     21  C   UNL     1       7.493   3.177  12.189  0.00  0.00    +0.000 A 
ENDBRANCH  15  16
ENDBRANCH  12  15
ENDBRANCH   8  11
BRANCH   9  22
ATOM     22  C   UNL     1       5.718   4.636  19.067  0.00  0.00    +0.000 C 
ATOM     23  N   UNL     1       6.533   5.276  19.589  0.00  0.00    +0.000 NA
ENDBRANCH   9  22
TORSDOF 4
ENDMDL
MODEL 8
REMARK VINA RESULT:      -6.7      1.895      2.865
REMARK  Name = 
REMARK  5 active torsions:
REMARK  status: ('A' for Active; 'I' for Inactive)
REMARK    1  A    between atoms: C_1  and  N_2
REMARK    2  A    between atoms: C_8  and  N_9
REMARK    3  A    between atoms: C_10  and  C_12
REMARK    4  A    between atoms: C_12  and  C_13
REMARK    5  A    between atoms: C_19  and  C_20
REMARK                            x       y       z     vdW  Elec       q    Type
REMARK                         _______ _______ _______ _____ _____    ______ ____
ROOT
ATOM      1  C   UNL     1      -2.915  11.645  18.794  0.00  0.00    +0.000 C 
ATOM      2  N   UNL     1      -1.885  12.255  19.855  0.00  0.00    +0.000 NA
ATOM      3  C   UNL     1      -0.643  12.612  19.143  0.00  0.00    +0.000 C 
ATOM      4  C   UNL     1       0.031  11.345  18.724  0.00  0.00    +0.000 C 
ATOM      5  C   UNL     1       0.240  10.412  19.847  0.00  0.00    +0.000 A 
ATOM      6  C   UNL     1      -0.352  10.537  21.059  0.00  0.00    +0.000 A 
ATOM      7  S   UNL     1       0.181   9.215  22.027  0.00  0.00    +0.000 S 
ATOM      8  C   UNL     1       1.171   8.491  20.811  0.00  0.00    +0.000 A 
ATOM      9  C   UNL     1       1.047   9.325  19.663  0.00  0.00    +0.000 A 
ATOM     10  C   UNL     1      -1.357  11.667  21.237  0.00  0.00    +0.000 C 
ENDROOT
BRANCH   8  11
ATOM     11  N   UNL     1       2.054   7.336  20.983  0.00  0.00    +0.000 N 
ATOM     12  C   UNL     1       1.615   6.047  20.859  0.00  0.00    +0.000 C 
ATOM     13  O   UNL     1       0.482   5.888  20.595  0.00  0.00    +0.000 OA
ATOM     14  H   UNL     1       3.047   7.483  21.180  0.00  0.00    +0.000 HD
BRANCH  12  15
ATOM     15  C   UNL     1       2.333   4.755  21.183  0.00  0.00    +0.000 C 
BRANCH  15  16
ATOM     16  C   UNL     1       2.467   3.780  19.970  0.00  0.00    +0.000 A 
ATOM     17  C   UNL     1       3.607   3.673  19.111  0.00  0.00    +0.000 A 
ATOM     18  C   UNL     1       3.593   2.951  17.947  0.00  0.00    +0.000 A 
ATOM     19  C   UNL     1       2.512   2.162  17.648  0.00  0.00    +0.000 A 
ATOM     20  C   UNL     1       1.412   2.142  18.507  0.00  0.00    +0.000 A 
ATOM     21  C   UNL     1       1.376   2.962  19.647  0.00  0.00    +0.000 A 
ENDBRANCH  15  16
ENDBRANCH  12  15
ENDBRANCH   8  11
BRANCH   9  22
ATOM     22  C   UNL     1       1.671   9.256  18.353  0.00  0.00    +0.000 C 
ATOM     23  N   UNL     1       2.183   9.235  17.312  0.00  0.00    +0.000 NA
ENDBRANCH   9  22
TORSDOF 4
ENDMDL
MODEL 9
REMARK VINA RESULT:      -6.7      2.155      3.013
REMARK  Name = 
REMARK  5 active torsions:
REMARK  status: ('A' for Active; 'I' for Inactive)
REMARK    1  A    between atoms: C_1  and  N_2
REMARK    2  A    between atoms: C_8  and  N_9
REMARK    3  A    between atoms: C_10  and  C_12
REMARK    4  A    between atoms: C_12  and  C_13
REMARK    5  A    between atoms: C_19  and  C_20
REMARK                            x       y       z     vdW  Elec       q    Type
REMARK                         _______ _______ _______ _____ _____    ______ ____
ROOT
ATOM      1  C   UNL     1      -2.755  12.464  22.829  0.00  0.00    +0.000 C 
ATOM      2  N   UNL     1      -2.085  13.542  21.856  0.00  0.00    +0.000 NA
ATOM      3  C   UNL     1      -2.839  13.552  20.587  0.00  0.00    +0.000 C 
ATOM      4  C   UNL     1      -2.572  12.261  19.879  0.00  0.00    +0.000 C 
ATOM      5  C   UNL     1      -1.132  11.991  19.711  0.00  0.00    +0.000 A 
ATOM      6  C   UNL     1      -0.151  12.665  20.358  0.00  0.00    +0.000 A 
ATOM      7  S   UNL     1       1.352  11.990  19.854  0.00  0.00    +0.000 S 
ATOM      8  C   UNL     1       0.669  10.802  18.802  0.00  0.00    +0.000 A 
ATOM      9  C   UNL     1      -0.742  10.976  18.884  0.00  0.00    +0.000 A 
ATOM     10  C   UNL     1      -0.574  13.709  21.383  0.00  0.00    +0.000 C 
ENDROOT
BRANCH   8  11
ATOM     11  N   UNL     1       1.407   9.901  17.914  0.00  0.00    +0.000 N 
ATOM     12  C   UNL     1       1.940   8.717  18.342  0.00  0.00    +0.000 C 
ATOM     13  O   UNL     1       1.778   8.431  19.470  0.00  0.00    +0.000 OA
ATOM     14  H   UNL     1       1.515  10.142  16.926  0.00  0.00    +0.000 HD
BRANCH  12  15
ATOM     15  C   UNL     1       2.876   7.771  17.621  0.00  0.00    +0.000 C 
BRANCH  15  16
ATOM     16  C   UNL     1       2.908   6.329  18.221  0.00  0.00    +0.000 A 
ATOM     17  C   UNL     1       3.929   5.809  19.079  0.00  0.00    +0.000 A 
ATOM     18  C   UNL     1       4.015   4.482  19.410  0.00  0.00    +0.000 A 
ATOM     19  C   UNL     1       3.007   3.625  19.050  0.00  0.00    +0.000 A 
ATOM     20  C   UNL     1       1.928   4.100  18.304  0.00  0.00    +0.000 A 
ATOM     21  C   UNL     1       1.888   5.436  17.870  0.00  0.00    +0.000 A 
ENDBRANCH  15  16
ENDBRANCH  12  15
ENDBRANCH   8  11
BRANCH   9  22
ATOM     22  C   UNL     1      -1.834  10.305  18.201  0.00  0.00    +0.000 C 
ATOM     23  N   UNL     1      -2.719   9.757  17.687  0.00  0.00    +0.000 NA
ENDBRANCH   9  22
TORSDOF 4
ENDMDL
