MODEL 1
REMARK VINA RESULT:      -7.5      0.000      0.000
REMARK  Name = 
REMARK  11 active torsions:
REMARK  status: ('A' for Active; 'I' for Inactive)
REMARK    1  A    between atoms: C_1  and  C_2
REMARK    2  A    between atoms: N_4  and  CA_5
REMARK    3  A    between atoms: CA_5  and  C_6
REMARK    4  A    between atoms: CA_5  and  C_14
REMARK    5  A    between atoms: C_10  and  N_11
REMARK    6  A    between atoms: N_16  and  CA_17
REMARK    7  A    between atoms: CA_17  and  C_18
REMARK    8  A    between atoms: CA_17  and  C_29
REMARK    9  A    between atoms: C_22  and  N_23
REMARK   10  A    between atoms: C_24  and  C_25
REMARK   11  A    between atoms: C_29  and  OXT_31
REMARK                            x       y       z     vdW  Elec       q    Type
REMARK                         _______ _______ _______ _____ _____    ______ ____
ROOT
ATOM      1  C   UNL     1       1.199  12.292  20.816  0.00  0.00    +0.000 C 
ATOM      2  O   UNL     1       2.194  13.013  20.920  0.00  0.00    +0.000 OA
ATOM      3  N   UNL     1       1.240  11.028  21.330  0.00  0.00    +0.000 N 
ATOM      4  H   UNL     1       2.054  10.925  21.921  0.00  0.00    +0.000 HD
ENDROOT
BRANCH   1   5
ATOM      5  CA  UNL     1      -0.039  12.713  20.014  0.00  0.00    +0.000 C 
BRANCH   5   6
ATOM      6  C   UNL     1      -0.305  11.665  18.957  0.00  0.00    +0.000 C 
ATOM      7  C   UNL     1      -1.525  11.338  18.506  0.00  0.00    +0.000 C 
ATOM      8  C   UNL     1      -1.667  10.277  17.537  0.00  0.00    +0.000 C 
ATOM      9  C   UNL     1      -2.849   9.917  17.029  0.00  0.00    +0.000 C 
ATOM     10  C   UNL     1      -4.164  10.518  17.412  0.00  0.00    +0.000 C 
ATOM     11  C   UNL     1      -4.117  11.452  18.625  0.00  0.00    +0.000 C 
ATOM     12  C   UNL     1      -2.759  12.078  18.950  0.00  0.00    +0.000 C 
BRANCH  10  13
ATOM     13  N   UNL     1      -4.712  11.185  16.234  0.00  0.00    +0.000 NA
ATOM     14  H   UNL     1      -4.204  12.052  16.078  0.00  0.00    +0.000 HD
ATOM     15  H   UNL     1      -5.676  11.452  16.420  0.00  0.00    +0.000 HD
ENDBRANCH  10  13
ENDBRANCH   5   6
BRANCH   5  19
ATOM     16  C   UNL     1      -0.293  16.340  18.993  0.00  0.00    +0.000 C 
ATOM     17  C   UNL     1      -0.607  15.070  19.729  0.00  0.00    +0.000 C 
ATOM     18  O   UNL     1      -1.502  15.017  20.568  0.00  0.00    +0.000 OA
ATOM     19  N   UNL     1       0.150  13.986  19.356  0.00  0.00    +0.000 N 
ATOM     20  H   UNL     1       1.021  14.126  18.858  0.00  0.00    +0.000 HD
ENDBRANCH   5  19
ENDBRANCH   1   5
BRANCH   3  21
ATOM     21  CA  UNL     1       0.138  10.087  21.540  0.00  0.00    +0.000 C 
BRANCH  21  22
ATOM     22  C   UNL     1       0.690   8.680  21.448  0.00  0.00    +0.000 C 
ATOM     23  C   UNL     1       1.363   8.140  20.410  0.00  0.00    +0.000 C 
ATOM     24  C   UNL     1       1.928   6.806  20.501  0.00  0.00    +0.000 C 
ATOM     25  C   UNL     1       2.591   6.236  19.483  0.00  0.00    +0.000 C 
ATOM     26  C   UNL     1       2.767   6.836  18.124  0.00  0.00    +0.000 C 
ATOM     27  C   UNL     1       1.950   8.104  17.884  0.00  0.00    +0.000 C 
ATOM     28  C   UNL     1       1.615   8.902  19.133  0.00  0.00    +0.000 C 
BRANCH  26  29
ATOM     29  N   UNL     1       4.181   7.065  17.909  0.00  0.00    +0.000 N 
ATOM     30  C   UNL     1       4.914   6.162  17.168  0.00  0.00    +0.000 C 
ATOM     31  C   UNL     1       6.350   6.545  16.951  0.00  0.00    +0.000 C 
ATOM     32  O   UNL     1       4.458   5.107  16.736  0.00  0.00    +0.000 OA
ATOM     33  H   UNL     1       4.547   7.996  18.057  0.00  0.00    +0.000 HD
ENDBRANCH  26  29
ENDBRANCH  21  22
BRANCH  21  34
ATOM     34  C   UNL     1      -0.585  10.353  22.889  0.00  0.00    +0.000 C 
ATOM     35  O   UNL     1      -1.433  11.219  23.058  0.00  0.00    +0.000 OA
BRANCH  34  36
ATOM     36  OXT UNL     1      -0.171   9.556  23.906  0.00  0.00    +0.000 OA
ATOM     37  HXT UNL     1       0.708   9.779  24.268  0.00  0.00    +0.000 HD
ENDBRANCH  34  36
ENDBRANCH  21  34
ENDBRANCH   3  21
TORSDOF 9
ENDMDL
MODEL 2
REMARK VINA RESULT:      -6.9      1.054      1.193
REMARK  Name = 
REMARK  11 active torsions:
REMARK  status: ('A' for Active; 'I' for Inactive)
REMARK    1  A    between atoms: C_1  and  C_2
REMARK    2  A    between atoms: N_4  and  CA_5
REMARK    3  A    between atoms: CA_5  and  C_6
REMARK    4  A    between atoms: CA_5  and  C_14
REMARK    5  A    between atoms: C_10  and  N_11
REMARK    6  A    between atoms: N_16  and  CA_17
REMARK    7  A    between atoms: CA_17  and  C_18
REMARK    8  A    between atoms: CA_17  and  C_29
REMARK    9  A    between atoms: C_22  and  N_23
REMARK   10  A    between atoms: C_24  and  C_25
REMARK   11  A    between atoms: C_29  and  OXT_31
REMARK                            x       y       z     vdW  Elec       q    Type
REMARK                         _______ _______ _______ _____ _____    ______ ____
ROOT
ATOM      1  C   UNL     1       0.845  11.929  20.552  0.00  0.00    +0.000 C 
ATOM      2  O   UNL     1       1.809  12.662  20.322  0.00  0.00    +0.000 OA
ATOM      3  N   UNL     1       1.070  10.646  20.959  0.00  0.00    +0.000 N 
ATOM      4  H   UNL     1       2.042  10.531  21.210  0.00  0.00    +0.000 HD
ENDROOT
BRANCH   1   5
ATOM      5  CA  UNL     1      -0.600  12.363  20.273  0.00  0.00    +0.000 C 
BRANCH   5   6
ATOM      6  C   UNL     1      -0.958  11.956  18.861  0.00  0.00    +0.000 C 
ATOM      7  C   UNL     1      -2.212  11.785  18.418  0.00  0.00    +0.000 C 
ATOM      8  C   UNL     1      -2.436  11.335  17.065  0.00  0.00    +0.000 C 
ATOM      9  C   UNL     1      -3.659  11.167  16.553  0.00  0.00    +0.000 C 
ATOM     10  C   UNL     1      -4.936  11.376  17.302  0.00  0.00    +0.000 C 
ATOM     11  C   UNL     1      -4.773  11.587  18.811  0.00  0.00    +0.000 C 
ATOM     12  C   UNL     1      -3.407  12.091  19.283  0.00  0.00    +0.000 C 
BRANCH  10  13
ATOM     13  N   UNL     1      -5.649  12.485  16.674  0.00  0.00    +0.000 NA
ATOM     14  H   UNL     1      -6.536  12.146  16.311  0.00  0.00    +0.000 HD
ATOM     15  H   UNL     1      -5.118  12.809  15.868  0.00  0.00    +0.000 HD
ENDBRANCH  10  13
ENDBRANCH   5   6
BRANCH   5  19
ATOM     16  C   UNL     1      -1.200  15.845  21.606  0.00  0.00    +0.000 C 
ATOM     17  C   UNL     1      -1.086  14.348  21.607  0.00  0.00    +0.000 C 
ATOM     18  O   UNL     1      -1.300  13.688  22.620  0.00  0.00    +0.000 OA
ATOM     19  N   UNL     1      -0.768  13.793  20.392  0.00  0.00    +0.000 N 
ATOM     20  H   UNL     1      -0.363  14.370  19.664  0.00  0.00    +0.000 HD
ENDBRANCH   5  19
ENDBRANCH   1   5
BRANCH   3  21
ATOM     21  CA  UNL     1       0.119   9.678  21.511  0.00  0.00    +0.000 C 
BRANCH  21  22
ATOM     22  C   UNL     1       0.710   8.292  21.360  0.00  0.00    +0.000 C 
ATOM     23  C   UNL     1       1.439   7.830  20.323  0.00  0.00    +0.000 C 
ATOM     24  C   UNL     1       2.033   6.506  20.360  0.00  0.00    +0.000 C 
ATOM     25  C   UNL     1       2.752   6.013  19.340  0.00  0.00    +0.000 C 
ATOM     26  C   UNL     1       2.968   6.696  18.026  0.00  0.00    +0.000 C 
ATOM     27  C   UNL     1       2.131   7.957  17.826  0.00  0.00    +0.000 C 
ATOM     28  C   UNL     1       1.724   8.672  19.104  0.00  0.00    +0.000 C 
BRANCH  26  29
ATOM     29  N   UNL     1       4.384   6.969  17.886  0.00  0.00    +0.000 N 
ATOM     30  C   UNL     1       5.154   6.179  17.059  0.00  0.00    +0.000 C 
ATOM     31  C   UNL     1       6.588   6.606  16.936  0.00  0.00    +0.000 C 
ATOM     32  O   UNL     1       4.729   5.182  16.482  0.00  0.00    +0.000 OA
ATOM     33  H   UNL     1       4.730   7.879  18.163  0.00  0.00    +0.000 HD
ENDBRANCH  26  29
ENDBRANCH  21  22
BRANCH  21  34
ATOM     34  C   UNL     1      -0.239  10.013  22.984  0.00  0.00    +0.000 C 
ATOM     35  O   UNL     1       0.430   9.675  23.951  0.00  0.00    +0.000 OA
BRANCH  34  36
ATOM     36  OXT UNL     1      -1.403  10.696  23.129  0.00  0.00    +0.000 OA
ATOM     37  HXT UNL     1      -1.297  11.634  23.379  0.00  0.00    +0.000 HD
ENDBRANCH  34  36
ENDBRANCH  21  34
ENDBRANCH   3  21
TORSDOF 9
ENDMDL
MODEL 3
REMARK VINA RESULT:      -6.8      3.139      7.227
REMARK  Name = 
REMARK  11 active torsions:
REMARK  status: ('A' for Active; 'I' for Inactive)
REMARK    1  A    between atoms: C_1  and  C_2
REMARK    2  A    between atoms: N_4  and  CA_5
REMARK    3  A    between atoms: CA_5  and  C_6
REMARK    4  A    between atoms: CA_5  and  C_14
REMARK    5  A    between atoms: C_10  and  N_11
REMARK    6  A    between atoms: N_16  and  CA_17
REMARK    7  A    between atoms: CA_17  and  C_18
REMARK    8  A    between atoms: CA_17  and  C_29
REMARK    9  A    between atoms: C_22  and  N_23
REMARK   10  A    between atoms: C_24  and  C_25
REMARK   11  A    between atoms: C_29  and  OXT_31
REMARK                            x       y       z     vdW  Elec       q    Type
REMARK                         _______ _______ _______ _____ _____    ______ ____
ROOT
ATOM      1  C   UNL     1       0.529  12.519  19.631  0.00  0.00    +0.000 C 
ATOM      2  O   UNL     1       1.123  13.596  19.553  0.00  0.00    +0.000 OA
ATOM      3  N   UNL     1       0.553  11.670  18.562  0.00  0.00    +0.000 N 
ATOM      4  H   UNL     1       1.248  11.978  17.896  0.00  0.00    +0.000 HD
ENDROOT
BRANCH   1   5
ATOM      5  CA  UNL     1      -0.347  12.151  20.836  0.00  0.00    +0.000 C 
BRANCH   5   6
ATOM      6  C   UNL     1      -0.843  13.428  21.476  0.00  0.00    +0.000 C 
ATOM      7  C   UNL     1      -2.096  13.617  21.915  0.00  0.00    +0.000 C 
ATOM      8  C   UNL     1      -2.477  14.900  22.455  0.00  0.00    +0.000 C 
ATOM      9  C   UNL     1      -3.701  15.149  22.931  0.00  0.00    +0.000 C 
ATOM     10  C   UNL     1      -4.833  14.171  22.933  0.00  0.00    +0.000 C 
ATOM     11  C   UNL     1      -4.581  12.890  22.131  0.00  0.00    +0.000 C 
ATOM     12  C   UNL     1      -3.117  12.510  21.900  0.00  0.00    +0.000 C 
BRANCH  10  13
ATOM     13  N   UNL     1      -5.173  13.883  24.324  0.00  0.00    +0.000 NA
ATOM     14  H   UNL     1      -4.482  13.245  24.709  0.00  0.00    +0.000 HD
ATOM     15  H   UNL     1      -6.062  13.388  24.354  0.00  0.00    +0.000 HD
ENDBRANCH  10  13
ENDBRANCH   5   6
BRANCH   5  19
ATOM     16  C   UNL     1       0.946   9.395  23.071  0.00  0.00    +0.000 C 
ATOM     17  C   UNL     1       0.093  10.073  22.038  0.00  0.00    +0.000 C 
ATOM     18  O   UNL     1      -0.816   9.479  21.465  0.00  0.00    +0.000 OA
ATOM     19  N   UNL     1       0.386  11.398  21.828  0.00  0.00    +0.000 N 
ATOM     20  H   UNL     1       1.280  11.771  22.126  0.00  0.00    +0.000 HD
ENDBRANCH   5  19
ENDBRANCH   1   5
BRANCH   3  21
ATOM     21  CA  UNL     1       0.137  10.268  18.495  0.00  0.00    +0.000 C 
BRANCH  21  22
ATOM     22  C   UNL     1      -0.822  10.111  17.335  0.00  0.00    +0.000 C 
ATOM     23  C   UNL     1      -2.101  10.537  17.277  0.00  0.00    +0.000 C 
ATOM     24  C   UNL     1      -2.874  10.411  16.055  0.00  0.00    +0.000 C 
ATOM     25  C   UNL     1      -4.152  10.813  15.968  0.00  0.00    +0.000 C 
ATOM     26  C   UNL     1      -4.965  11.354  17.102  0.00  0.00    +0.000 C 
ATOM     27  C   UNL     1      -4.294  11.240  18.470  0.00  0.00    +0.000 C 
ATOM     28  C   UNL     1      -2.775  11.214  18.444  0.00  0.00    +0.000 C 
BRANCH  26  29
ATOM     29  N   UNL     1      -5.315  12.725  16.794  0.00  0.00    +0.000 N 
ATOM     30  C   UNL     1      -6.558  13.208  17.146  0.00  0.00    +0.000 C 
ATOM     31  C   UNL     1      -6.777  14.663  16.843  0.00  0.00    +0.000 C 
ATOM     32  O   UNL     1      -7.442  12.515  17.640  0.00  0.00    +0.000 OA
ATOM     33  H   UNL     1      -4.571  13.379  16.587  0.00  0.00    +0.000 HD
ENDBRANCH  26  29
ENDBRANCH  21  22
BRANCH  21  34
ATOM     34  C   UNL     1       1.361   9.319  18.385  0.00  0.00    +0.000 C 
ATOM     35  O   UNL     1       2.065   9.213  17.389  0.00  0.00    +0.000 OA
BRANCH  34  36
ATOM     36  OXT UNL     1       1.581   8.566  19.492  0.00  0.00    +0.000 OA
ATOM     37  HXT UNL     1       1.556   7.601  19.342  0.00  0.00    +0.000 HD
ENDBRANCH  34  36
ENDBRANCH  21  34
ENDBRANCH   3  21
TORSDOF 9
ENDMDL
MODEL 4
REMARK VINA RESULT:      -6.8      2.423      4.540
REMARK  Name = 
REMARK  11 active torsions:
REMARK  status: ('A' for Active; 'I' for Inactive)
REMARK    1  A    between atoms: C_1  and  C_2
REMARK    2  A    between atoms: N_4  and  CA_5
REMARK    3  A    between atoms: CA_5  and  C_6
REMARK    4  A    between atoms: CA_5  and  C_14
REMARK    5  A    between atoms: C_10  and  N_11
REMARK    6  A    between atoms: N_16  and  CA_17
REMARK    7  A    between atoms: CA_17  and  C_18
REMARK    8  A    between atoms: CA_17  and  C_29
REMARK    9  A    between atoms: C_22  and  N_23
REMARK   10  A    between atoms: C_24  and  C_25
REMARK   11  A    between atoms: C_29  and  OXT_31
REMARK                            x       y       z     vdW  Elec       q    Type
REMARK                         _______ _______ _______ _____ _____    ______ ____
ROOT
ATOM      1  C   UNL     1      -2.419  11.955  19.536  0.00  0.00    +0.000 C 
ATOM      2  O   UNL     1      -3.576  12.363  19.415  0.00  0.00    +0.000 OA
ATOM      3  N   UNL     1      -2.045  11.361  20.707  0.00  0.00    +0.000 N 
ATOM      4  H   UNL     1      -2.862  11.158  21.265  0.00  0.00    +0.000 HD
ENDROOT
BRANCH   1   5
ATOM      5  CA  UNL     1      -1.345  12.208  18.470  0.00  0.00    +0.000 C 
BRANCH   5   6
ATOM      6  C   UNL     1      -0.830  13.620  18.634  0.00  0.00    +0.000 C 
ATOM      7  C   UNL     1       0.463  13.967  18.552  0.00  0.00    +0.000 C 
ATOM      8  C   UNL     1       0.849  15.338  18.786  0.00  0.00    +0.000 C 
ATOM      9  C   UNL     1       2.115  15.757  18.698  0.00  0.00    +0.000 C 
ATOM     10  C   UNL     1       3.287  14.879  18.393  0.00  0.00    +0.000 C 
ATOM     11  C   UNL     1       2.988  13.377  18.404  0.00  0.00    +0.000 C 
ATOM     12  C   UNL     1       1.530  12.972  18.180  0.00  0.00    +0.000 C 
BRANCH  10  13
ATOM     13  N   UNL     1       3.851  15.311  17.117  0.00  0.00    +0.000 NA
ATOM     14  H   UNL     1       4.683  14.761  16.920  0.00  0.00    +0.000 HD
ATOM     15  H   UNL     1       4.162  16.276  17.199  0.00  0.00    +0.000 HD
ENDBRANCH  10  13
ENDBRANCH   5   6
BRANCH   5  19
ATOM     16  C   UNL     1      -2.797  10.818  15.273  0.00  0.00    +0.000 C 
ATOM     17  C   UNL     1      -2.239  10.828  16.666  0.00  0.00    +0.000 C 
ATOM     18  O   UNL     1      -2.098   9.791  17.309  0.00  0.00    +0.000 OA
ATOM     19  N   UNL     1      -1.868  12.065  17.130  0.00  0.00    +0.000 N 
ATOM     20  H   UNL     1      -2.225  12.901  16.681  0.00  0.00    +0.000 HD
ENDBRANCH   5  19
ENDBRANCH   1   5
BRANCH   3  21
ATOM     21  CA  UNL     1      -0.829  10.600  21.002  0.00  0.00    +0.000 C 
BRANCH  21  22
ATOM     22  C   UNL     1      -0.046  10.438  19.716  0.00  0.00    +0.000 C 
ATOM     23  C   UNL     1       0.758   9.408  19.381  0.00  0.00    +0.000 C 
ATOM     24  C   UNL     1       1.366   9.334  18.065  0.00  0.00    +0.000 C 
ATOM     25  C   UNL     1       2.180   8.330  17.705  0.00  0.00    +0.000 C 
ATOM     26  C   UNL     1       2.631   7.221  18.602  0.00  0.00    +0.000 C 
ATOM     27  C   UNL     1       2.255   7.406  20.071  0.00  0.00    +0.000 C 
ATOM     28  C   UNL     1       1.021   8.257  20.319  0.00  0.00    +0.000 C 
BRANCH  26  29
ATOM     29  N   UNL     1       2.119   5.973  18.075  0.00  0.00    +0.000 N 
ATOM     30  C   UNL     1       2.904   4.841  18.113  0.00  0.00    +0.000 C 
ATOM     31  C   UNL     1       2.236   3.594  17.607  0.00  0.00    +0.000 C 
ATOM     32  O   UNL     1       4.069   4.834  18.499  0.00  0.00    +0.000 OA
ATOM     33  H   UNL     1       1.120   5.878  17.945  0.00  0.00    +0.000 HD
ENDBRANCH  26  29
ENDBRANCH  21  22
BRANCH  21  34
ATOM     34  C   UNL     1       0.006  11.277  22.123  0.00  0.00    +0.000 C 
ATOM     35  O   UNL     1       0.399  12.436  22.087  0.00  0.00    +0.000 OA
BRANCH  34  36
ATOM     36  OXT UNL     1       0.307  10.457  23.161  0.00  0.00    +0.000 OA
ATOM     37  HXT UNL     1       0.233  10.870  24.043  0.00  0.00    +0.000 HD
ENDBRANCH  34  36
ENDBRANCH  21  34
ENDBRANCH   3  21
TORSDOF 9
ENDMDL
MODEL 5
REMARK VINA RESULT:      -6.8      2.887      3.818
REMARK  Name = 
REMARK  11 active torsions:
REMARK  status: ('A' for Active; 'I' for Inactive)
REMARK    1  A    between atoms: C_1  and  C_2
REMARK    2  A    between atoms: N_4  and  CA_5
REMARK    3  A    between atoms: CA_5  and  C_6
REMARK    4  A    between atoms: CA_5  and  C_14
REMARK    5  A    between atoms: C_10  and  N_11
REMARK    6  A    between atoms: N_16  and  CA_17
REMARK    7  A    between atoms: CA_17  and  C_18
REMARK    8  A    between atoms: CA_17  and  C_29
REMARK    9  A    between atoms: C_22  and  N_23
REMARK   10  A    between atoms: C_24  and  C_25
REMARK   11  A    between atoms: C_29  and  OXT_31
REMARK                            x       y       z     vdW  Elec       q    Type
REMARK                         _______ _______ _______ _____ _____    ______ ____
ROOT
ATOM      1  C   UNL     1      -1.953  11.953  19.225  0.00  0.00    +0.000 C 
ATOM      2  O   UNL     1      -2.495  11.838  18.123  0.00  0.00    +0.000 OA
ATOM      3  N   UNL     1      -0.914  11.126  19.542  0.00  0.00    +0.000 N 
ATOM      4  H   UNL     1      -0.597  10.640  18.714  0.00  0.00    +0.000 HD
ENDROOT
BRANCH   1   5
ATOM      5  CA  UNL     1      -2.485  12.903  20.306  0.00  0.00    +0.000 C 
BRANCH   5   6
ATOM      6  C   UNL     1      -3.989  12.761  20.369  0.00  0.00    +0.000 C 
ATOM      7  C   UNL     1      -4.703  12.778  21.504  0.00  0.00    +0.000 C 
ATOM      8  C   UNL     1      -6.131  12.572  21.452  0.00  0.00    +0.000 C 
ATOM      9  C   UNL     1      -6.905  12.599  22.541  0.00  0.00    +0.000 C 
ATOM     10  C   UNL     1      -6.409  12.801  23.938  0.00  0.00    +0.000 C 
ATOM     11  C   UNL     1      -4.886  12.751  24.095  0.00  0.00    +0.000 C 
ATOM     12  C   UNL     1      -4.063  13.048  22.840  0.00  0.00    +0.000 C 
BRANCH  10  13
ATOM     13  N   UNL     1      -6.966  14.056  24.435  0.00  0.00    +0.000 NA
ATOM     14  H   UNL     1      -6.315  14.810  24.232  0.00  0.00    +0.000 HD
ATOM     15  H   UNL     1      -7.039  14.010  25.449  0.00  0.00    +0.000 HD
ENDBRANCH  10  13
ENDBRANCH   5   6
BRANCH   5  19
ATOM     16  C   UNL     1      -1.076  16.404  20.438  0.00  0.00    +0.000 C 
ATOM     17  C   UNL     1      -1.355  14.992  20.865  0.00  0.00    +0.000 C 
ATOM     18  O   UNL     1      -0.909  14.539  21.916  0.00  0.00    +0.000 OA
ATOM     19  N   UNL     1      -2.169  14.283  20.017  0.00  0.00    +0.000 N 
ATOM     20  H   UNL     1      -2.303  14.600  19.064  0.00  0.00    +0.000 HD
ENDBRANCH   5  19
ENDBRANCH   1   5
BRANCH   3  21
ATOM     21  CA  UNL     1       0.025  11.220  20.661  0.00  0.00    +0.000 C 
BRANCH  21  22
ATOM     22  C   UNL     1       0.575   9.837  20.939  0.00  0.00    +0.000 C 
ATOM     23  C   UNL     1       1.212   9.028  20.067  0.00  0.00    +0.000 C 
ATOM     24  C   UNL     1       1.781   7.765  20.501  0.00  0.00    +0.000 C 
ATOM     25  C   UNL     1       2.409   6.932  19.656  0.00  0.00    +0.000 C 
ATOM     26  C   UNL     1       2.537   7.136  18.179  0.00  0.00    +0.000 C 
ATOM     27  C   UNL     1       1.711   8.297  17.629  0.00  0.00    +0.000 C 
ATOM     28  C   UNL     1       1.419   9.409  18.622  0.00  0.00    +0.000 C 
BRANCH  26  29
ATOM     29  N   UNL     1       3.942   7.285  17.862  0.00  0.00    +0.000 N 
ATOM     30  C   UNL     1       4.607   6.268  17.212  0.00  0.00    +0.000 C 
ATOM     31  C   UNL     1       6.039   6.569  16.870  0.00  0.00    +0.000 C 
ATOM     32  O   UNL     1       4.099   5.182  16.948  0.00  0.00    +0.000 OA
ATOM     33  H   UNL     1       4.342   8.214  17.866  0.00  0.00    +0.000 HD
ENDBRANCH  26  29
ENDBRANCH  21  22
BRANCH  21  34
ATOM     34  C   UNL     1       1.145  12.257  20.375  0.00  0.00    +0.000 C 
ATOM     35  O   UNL     1       1.570  12.523  19.259  0.00  0.00    +0.000 OA
BRANCH  34  36
ATOM     36  OXT UNL     1       1.659  12.839  21.488  0.00  0.00    +0.000 OA
ATOM     37  HXT UNL     1       2.301  12.289  21.977  0.00  0.00    +0.000 HD
ENDBRANCH  34  36
ENDBRANCH  21  34
ENDBRANCH   3  21
TORSDOF 9
ENDMDL
MODEL 6
REMARK VINA RESULT:      -6.8      2.886      4.978
REMARK  Name = 
REMARK  11 active torsions:
REMARK  status: ('A' for Active; 'I' for Inactive)
REMARK    1  A    between atoms: C_1  and  C_2
REMARK    2  A    between atoms: N_4  and  CA_5
REMARK    3  A    between atoms: CA_5  and  C_6
REMARK    4  A    between atoms: CA_5  and  C_14
REMARK    5  A    between atoms: C_10  and  N_11
REMARK    6  A    between atoms: N_16  and  CA_17
REMARK    7  A    between atoms: CA_17  and  C_18
REMARK    8  A    between atoms: CA_17  and  C_29
REMARK    9  A    between atoms: C_22  and  N_23
REMARK   10  A    between atoms: C_24  and  C_25
REMARK   11  A    between atoms: C_29  and  OXT_31
REMARK                            x       y       z     vdW  Elec       q    Type
REMARK                         _______ _______ _______ _____ _____    ______ ____
ROOT
ATOM      1  C   UNL     1      -1.206  11.163  19.041  0.00  0.00    +0.000 C 
ATOM      2  O   UNL     1      -2.270  11.297  18.432  0.00  0.00    +0.000 OA
ATOM      3  N   UNL     1      -0.086  10.805  18.348  0.00  0.00    +0.000 N 
ATOM      4  H   UNL     1      -0.254  10.891  17.355  0.00  0.00    +0.000 HD
ENDROOT
BRANCH   1   5
ATOM      5  CA  UNL     1      -1.120  11.254  20.571  0.00  0.00    +0.000 C 
BRANCH   5   6
ATOM      6  C   UNL     1      -1.128  12.714  20.964  0.00  0.00    +0.000 C 
ATOM      7  C   UNL     1      -2.016  13.267  21.803  0.00  0.00    +0.000 C 
ATOM      8  C   UNL     1      -1.967  14.686  22.061  0.00  0.00    +0.000 C 
ATOM      9  C   UNL     1      -2.806  15.297  22.903  0.00  0.00    +0.000 C 
ATOM     10  C   UNL     1      -3.914  14.621  23.646  0.00  0.00    +0.000 C 
ATOM     11  C   UNL     1      -4.196  13.178  23.213  0.00  0.00    +0.000 C 
ATOM     12  C   UNL     1      -3.048  12.439  22.523  0.00  0.00    +0.000 C 
BRANCH  10  13
ATOM     13  N   UNL     1      -3.617  14.711  25.073  0.00  0.00    +0.000 NA
ATOM     14  H   UNL     1      -2.680  14.353  25.240  0.00  0.00    +0.000 HD
ATOM     15  H   UNL     1      -4.249  14.099  25.585  0.00  0.00    +0.000 HD
ENDBRANCH  10  13
ENDBRANCH   5   6
BRANCH   5  19
ATOM     16  C   UNL     1       1.375   9.347  22.669  0.00  0.00    +0.000 C 
ATOM     17  C   UNL     1       0.062   9.953  22.263  0.00  0.00    +0.000 C 
ATOM     18  O   UNL     1      -0.937   9.853  22.970  0.00  0.00    +0.000 OA
ATOM     19  N   UNL     1       0.089  10.650  21.081  0.00  0.00    +0.000 N 
ATOM     20  H   UNL     1       0.846  10.500  20.424  0.00  0.00    +0.000 HD
ENDBRANCH   5  19
ENDBRANCH   1   5
BRANCH   3  21
ATOM     21  CA  UNL     1       1.310  10.815  18.792  0.00  0.00    +0.000 C 
BRANCH  21  22
ATOM     22  C   UNL     1       2.069   9.774  17.997  0.00  0.00    +0.000 C 
ATOM     23  C   UNL     1       2.258   8.480  18.329  0.00  0.00    +0.000 C 
ATOM     24  C   UNL     1       2.921   7.566  17.416  0.00  0.00    +0.000 C 
ATOM     25  C   UNL     1       3.136   6.277  17.721  0.00  0.00    +0.000 C 
ATOM     26  C   UNL     1       2.811   5.635  19.034  0.00  0.00    +0.000 C 
ATOM     27  C   UNL     1       2.380   6.613  20.124  0.00  0.00    +0.000 C 
ATOM     28  C   UNL     1       1.748   7.900  19.624  0.00  0.00    +0.000 C 
BRANCH  26  29
ATOM     29  N   UNL     1       1.806   4.617  18.804  0.00  0.00    +0.000 N 
ATOM     30  C   UNL     1       2.140   3.286  18.933  0.00  0.00    +0.000 C 
ATOM     31  C   UNL     1       0.998   2.329  18.745  0.00  0.00    +0.000 C 
ATOM     32  O   UNL     1       3.281   2.889  19.154  0.00  0.00    +0.000 OA
ATOM     33  H   UNL     1       0.832   4.887  18.828  0.00  0.00    +0.000 HD
ENDBRANCH  26  29
ENDBRANCH  21  22
BRANCH  21  34
ATOM     34  C   UNL     1       1.934  12.231  18.664  0.00  0.00    +0.000 C 
ATOM     35  O   UNL     1       2.049  13.021  19.592  0.00  0.00    +0.000 OA
BRANCH  34  36
ATOM     36  OXT UNL     1       2.324  12.554  17.404  0.00  0.00    +0.000 OA
ATOM     37  HXT UNL     1       2.069  11.905  16.720  0.00  0.00    +0.000 HD
ENDBRANCH  34  36
ENDBRANCH  21  34
ENDBRANCH   3  21
TORSDOF 9
ENDMDL
MODEL 7
REMARK VINA RESULT:      -6.8      1.575      1.997
REMARK  Name = 
REMARK  11 active torsions:
REMARK  status: ('A' for Active; 'I' for Inactive)
REMARK    1  A    between atoms: C_1  and  C_2
REMARK    2  A    between atoms: N_4  and  CA_5
REMARK    3  A    between atoms: CA_5  and  C_6
REMARK    4  A    between atoms: CA_5  and  C_14
REMARK    5  A    between atoms: C_10  and  N_11
REMARK    6  A    between atoms: N_16  and  CA_17
REMARK    7  A    between atoms: CA_17  and  C_18
REMARK    8  A    between atoms: CA_17  and  C_29
REMARK    9  A    between atoms: C_22  and  N_23
REMARK   10  A    between atoms: C_24  and  C_25
REMARK   11  A    between atoms: C_29  and  OXT_31
REMARK                            x       y       z     vdW  Elec       q    Type
REMARK                         _______ _______ _______ _____ _____    ______ ____
ROOT
ATOM      1  C   UNL     1       1.070  10.490  19.321  0.00  0.00    +0.000 C 
ATOM      2  O   UNL     1       1.886  10.914  18.501  0.00  0.00    +0.000 OA
ATOM      3  N   UNL     1       1.313   9.299  19.943  0.00  0.00    +0.000 N 
ATOM      4  H   UNL     1       2.268   9.014  19.777  0.00  0.00    +0.000 HD
ENDROOT
BRANCH   1   5
ATOM      5  CA  UNL     1      -0.276  11.183  19.573  0.00  0.00    +0.000 C 
BRANCH   5   6
ATOM      6  C   UNL     1      -1.261  10.711  18.527  0.00  0.00    +0.000 C 
ATOM      7  C   UNL     1      -2.544  11.096  18.468  0.00  0.00    +0.000 C 
ATOM      8  C   UNL     1      -3.413  10.535  17.461  0.00  0.00    +0.000 C 
ATOM      9  C   UNL     1      -4.694  10.890  17.332  0.00  0.00    +0.000 C 
ATOM     10  C   UNL     1      -5.404  11.866  18.216  0.00  0.00    +0.000 C 
ATOM     11  C   UNL     1      -4.624  12.291  19.465  0.00  0.00    +0.000 C 
ATOM     12  C   UNL     1      -3.103  12.136  19.402  0.00  0.00    +0.000 C 
BRANCH  10  13
ATOM     13  N   UNL     1      -5.788  13.014  17.400  0.00  0.00    +0.000 NA
ATOM     14  H   UNL     1      -6.022  12.693  16.464  0.00  0.00    +0.000 HD
ATOM     15  H   UNL     1      -4.986  13.632  17.294  0.00  0.00    +0.000 HD
ENDBRANCH  10  13
ENDBRANCH   5   6
BRANCH   5  19
ATOM     16  C   UNL     1       0.417  14.820  20.313  0.00  0.00    +0.000 C 
ATOM     17  C   UNL     1       0.326  13.339  20.543  0.00  0.00    +0.000 C 
ATOM     18  O   UNL     1       0.639  12.836  21.618  0.00  0.00    +0.000 OA
ATOM     19  N   UNL     1      -0.169  12.621  19.483  0.00  0.00    +0.000 N 
ATOM     20  H   UNL     1      -0.176  13.030  18.555  0.00  0.00    +0.000 HD
ENDBRANCH   5  19
ENDBRANCH   1   5
BRANCH   3  21
ATOM     21  CA  UNL     1       0.633   8.713  21.101  0.00  0.00    +0.000 C 
BRANCH  21  22
ATOM     22  C   UNL     1       0.974   7.240  21.156  0.00  0.00    +0.000 C 
ATOM     23  C   UNL     1       1.808   6.569  20.335  0.00  0.00    +0.000 C 
ATOM     24  C   UNL     1       2.123   5.172  20.571  0.00  0.00    +0.000 C 
ATOM     25  C   UNL     1       2.938   4.473  19.766  0.00  0.00    +0.000 C 
ATOM     26  C   UNL     1       3.553   4.989  18.503  0.00  0.00    +0.000 C 
ATOM     27  C   UNL     1       3.028   6.351  18.056  0.00  0.00    +0.000 C 
ATOM     28  C   UNL     1       2.499   7.236  19.172  0.00  0.00    +0.000 C 
BRANCH  26  29
ATOM     29  N   UNL     1       4.992   5.003  18.673  0.00  0.00    +0.000 N 
ATOM     30  C   UNL     1       5.806   4.599  17.636  0.00  0.00    +0.000 C 
ATOM     31  C   UNL     1       7.278   4.729  17.904  0.00  0.00    +0.000 C 
ATOM     32  O   UNL     1       5.384   4.138  16.579  0.00  0.00    +0.000 OA
ATOM     33  H   UNL     1       5.384   5.557  19.422  0.00  0.00    +0.000 HD
ENDBRANCH  26  29
ENDBRANCH  21  22
BRANCH  21  34
ATOM     34  C   UNL     1       1.005   9.458  22.412  0.00  0.00    +0.000 C 
ATOM     35  O   UNL     1       0.212  10.097  23.091  0.00  0.00    +0.000 OA
BRANCH  34  36
ATOM     36  OXT UNL     1       2.318   9.376  22.743  0.00  0.00    +0.000 OA
ATOM     37  HXT UNL     1       2.803  10.223  22.702  0.00  0.00    +0.000 HD
ENDBRANCH  34  36
ENDBRANCH  21  34
ENDBRANCH   3  21
TORSDOF 9
ENDMDL
MODEL 8
REMARK VINA RESULT:      -6.7      2.674      4.323
REMARK  Name = 
REMARK  11 active torsions:
REMARK  status: ('A' for Active; 'I' for Inactive)
REMARK    1  A    between atoms: C_1  and  C_2
REMARK    2  A    between atoms: N_4  and  CA_5
REMARK    3  A    between atoms: CA_5  and  C_6
REMARK    4  A    between atoms: CA_5  and  C_14
REMARK    5  A    between atoms: C_10  and  N_11
REMARK    6  A    between atoms: N_16  and  CA_17
REMARK    7  A    between atoms: CA_17  and  C_18
REMARK    8  A    between atoms: CA_17  and  C_29
REMARK    9  A    between atoms: C_22  and  N_23
REMARK   10  A    between atoms: C_24  and  C_25
REMARK   11  A    between atoms: C_29  and  OXT_31
REMARK                            x       y       z     vdW  Elec       q    Type
REMARK                         _______ _______ _______ _____ _____    ______ ____
ROOT
ATOM      1  C   UNL     1      -1.115  11.850  18.069  0.00  0.00    +0.000 C 
ATOM      2  O   UNL     1      -2.043  11.761  17.263  0.00  0.00    +0.000 OA
ATOM      3  N   UNL     1      -0.118  10.918  18.037  0.00  0.00    +0.000 N 
ATOM      4  H   UNL     1      -0.187  10.371  17.190  0.00  0.00    +0.000 HD
ENDROOT
BRANCH   1   5
ATOM      5  CA  UNL     1      -1.104  12.891  19.196  0.00  0.00    +0.000 C 
BRANCH   5   6
ATOM      6  C   UNL     1      -2.506  13.013  19.750  0.00  0.00    +0.000 C 
ATOM      7  C   UNL     1      -2.834  12.796  21.032  0.00  0.00    +0.000 C 
ATOM      8  C   UNL     1      -4.216  12.882  21.439  0.00  0.00    +0.000 C 
ATOM      9  C   UNL     1      -4.610  12.701  22.703  0.00  0.00    +0.000 C 
ATOM     10  C   UNL     1      -3.701  12.353  23.840  0.00  0.00    +0.000 C 
ATOM     11  C   UNL     1      -2.272  11.980  23.433  0.00  0.00    +0.000 C 
ATOM     12  C   UNL     1      -1.791  12.506  22.079  0.00  0.00    +0.000 C 
BRANCH  10  13
ATOM     13  N   UNL     1      -3.723  13.463  24.788  0.00  0.00    +0.000 NA
ATOM     14  H   UNL     1      -3.776  13.091  25.733  0.00  0.00    +0.000 HD
ATOM     15  H   UNL     1      -4.573  14.005  24.648  0.00  0.00    +0.000 HD
ENDBRANCH  10  13
ENDBRANCH   5   6
BRANCH   5  19
ATOM     16  C   UNL     1       0.206  16.428  19.003  0.00  0.00    +0.000 C 
ATOM     17  C   UNL     1      -0.229  15.130  19.619  0.00  0.00    +0.000 C 
ATOM     18  O   UNL     1      -0.207  14.956  20.834  0.00  0.00    +0.000 OA
ATOM     19  N   UNL     1      -0.685  14.192  18.726  0.00  0.00    +0.000 N 
ATOM     20  H   UNL     1      -0.456  14.278  17.743  0.00  0.00    +0.000 HD
ENDBRANCH   5  19
ENDBRANCH   1   5
BRANCH   3  21
ATOM     21  CA  UNL     1       1.181  10.940  18.713  0.00  0.00    +0.000 C 
BRANCH  21  22
ATOM     22  C   UNL     1       2.047   9.852  18.116  0.00  0.00    +0.000 C 
ATOM     23  C   UNL     1       2.176   8.584  18.558  0.00  0.00    +0.000 C 
ATOM     24  C   UNL     1       2.965   7.614  17.822  0.00  0.00    +0.000 C 
ATOM     25  C   UNL     1       3.124   6.349  18.241  0.00  0.00    +0.000 C 
ATOM     26  C   UNL     1       2.599   5.795  19.529  0.00  0.00    +0.000 C 
ATOM     27  C   UNL     1       2.012   6.842  20.473  0.00  0.00    +0.000 C 
ATOM     28  C   UNL     1       1.470   8.090  19.796  0.00  0.00    +0.000 C 
BRANCH  26  29
ATOM     29  N   UNL     1       1.636   4.760  19.217  0.00  0.00    +0.000 N 
ATOM     30  C   UNL     1       2.007   3.434  19.297  0.00  0.00    +0.000 C 
ATOM     31  C   UNL     1       0.902   2.453  19.025  0.00  0.00    +0.000 C 
ATOM     32  O   UNL     1       3.151   3.062  19.542  0.00  0.00    +0.000 OA
ATOM     33  H   UNL     1       0.652   4.999  19.218  0.00  0.00    +0.000 HD
ENDBRANCH  26  29
ENDBRANCH  21  22
BRANCH  21  34
ATOM     34  C   UNL     1       1.843  12.342  18.622  0.00  0.00    +0.000 C 
ATOM     35  O   UNL     1       2.175  13.013  19.591  0.00  0.00    +0.000 OA
BRANCH  34  36
ATOM     36  OXT UNL     1       1.999  12.801  17.355  0.00  0.00    +0.000 OA
ATOM     37  HXT UNL     1       1.711  13.723  17.216  0.00  0.00    +0.000 HD
ENDBRANCH  34  36
ENDBRANCH  21  34
ENDBRANCH   3  21
TORSDOF 9
ENDMDL
MODEL 9
REMARK VINA RESULT:      -6.7      3.326      7.078
REMARK  Name = 
REMARK  11 active torsions:
REMARK  status: ('A' for Active; 'I' for Inactive)
REMARK    1  A    between atoms: C_1  and  C_2
REMARK    2  A    between atoms: N_4  and  CA_5
REMARK    3  A    between atoms: CA_5  and  C_6
REMARK    4  A    between atoms: CA_5  and  C_14
REMARK    5  A    between atoms: C_10  and  N_11
REMARK    6  A    between atoms: N_16  and  CA_17
REMARK    7  A    between atoms: CA_17  and  C_18
REMARK    8  A    between atoms: CA_17  and  C_29
REMARK    9  A    between atoms: C_22  and  N_23
REMARK   10  A    between atoms: C_24  and  C_25
REMARK   11  A    between atoms: C_29  and  OXT_31
REMARK                            x       y       z     vdW  Elec       q    Type
REMARK                         _______ _______ _______ _____ _____    ______ ____
ROOT
ATOM      1  C   UNL     1       2.252  12.618  18.524  0.00  0.00    +0.000 C 
ATOM      2  O   UNL     1       3.185  12.612  17.718  0.00  0.00    +0.000 OA
ATOM      3  N   UNL     1       1.284  11.661  18.425  0.00  0.00    +0.000 N 
ATOM      4  H   UNL     1       1.586  10.932  17.793  0.00  0.00    +0.000 HD
ENDROOT
BRANCH   1   5
ATOM      5  CA  UNL     1       2.065  13.741  19.553  0.00  0.00    +0.000 C 
BRANCH   5   6
ATOM      6  C   UNL     1       1.492  14.949  18.846  0.00  0.00    +0.000 C 
ATOM      7  C   UNL     1       0.348  15.556  19.193  0.00  0.00    +0.000 C 
ATOM      8  C   UNL     1      -0.137  16.666  18.409  0.00  0.00    +0.000 C 
ATOM      9  C   UNL     1      -1.256  17.330  18.711  0.00  0.00    +0.000 C 
ATOM     10  C   UNL     1      -2.165  17.000  19.853  0.00  0.00    +0.000 C 
ATOM     11  C   UNL     1      -1.860  15.674  20.557  0.00  0.00    +0.000 C 
ATOM     12  C   UNL     1      -0.434  15.138  20.411  0.00  0.00    +0.000 C 
BRANCH  10  13
ATOM     13  N   UNL     1      -2.145  18.125  20.783  0.00  0.00    +0.000 NA
ATOM     14  H   UNL     1      -2.914  18.026  21.440  0.00  0.00    +0.000 HD
ATOM     15  H   UNL     1      -2.320  18.986  20.270  0.00  0.00    +0.000 HD
ENDBRANCH  10  13
ENDBRANCH   5   6
BRANCH   5  19
ATOM     16  C   UNL     1       4.718  14.770  22.036  0.00  0.00    +0.000 C 
ATOM     17  C   UNL     1       3.356  14.419  21.510  0.00  0.00    +0.000 C 
ATOM     18  O   UNL     1       2.363  14.440  22.232  0.00  0.00    +0.000 OA
ATOM     19  N   UNL     1       3.314  14.123  20.170  0.00  0.00    +0.000 N 
ATOM     20  H   UNL     1       4.167  13.877  19.681  0.00  0.00    +0.000 HD
ENDBRANCH   5  19
ENDBRANCH   1   5
BRANCH   3  21
ATOM     21  CA  UNL     1       0.230  11.319  19.382  0.00  0.00    +0.000 C 
BRANCH  21  22
ATOM     22  C   UNL     1      -0.877  10.605  18.636  0.00  0.00    +0.000 C 
ATOM     23  C   UNL     1      -2.169  10.985  18.544  0.00  0.00    +0.000 C 
ATOM     24  C   UNL     1      -3.102  10.257  17.704  0.00  0.00    +0.000 C 
ATOM     25  C   UNL     1      -4.395  10.601  17.601  0.00  0.00    +0.000 C 
ATOM     26  C   UNL     1      -5.061  11.695  18.374  0.00  0.00    +0.000 C 
ATOM     27  C   UNL     1      -4.198  12.301  19.479  0.00  0.00    +0.000 C 
ATOM     28  C   UNL     1      -2.699  12.206  19.253  0.00  0.00    +0.000 C 
BRANCH  26  29
ATOM     29  N   UNL     1      -5.512  12.703  17.437  0.00  0.00    +0.000 N 
ATOM     30  C   UNL     1      -6.802  13.182  17.516  0.00  0.00    +0.000 C 
ATOM     31  C   UNL     1      -7.128  14.277  16.541  0.00  0.00    +0.000 C 
ATOM     32  O   UNL     1      -7.644  12.742  18.294  0.00  0.00    +0.000 OA
ATOM     33  H   UNL     1      -4.817  13.236  16.930  0.00  0.00    +0.000 HD
ENDBRANCH  26  29
ENDBRANCH  21  22
BRANCH  21  34
ATOM     34  C   UNL     1       0.787  10.479  20.563  0.00  0.00    +0.000 C 
ATOM     35  O   UNL     1       1.029  10.927  21.675  0.00  0.00    +0.000 OA
BRANCH  34  36
ATOM     36  OXT UNL     1       1.028   9.179  20.253  0.00  0.00    +0.000 OA
ATOM     37  HXT UNL     1       0.739   8.912  19.360  0.00  0.00    +0.000 HD
ENDBRANCH  34  36
ENDBRANCH  21  34
ENDBRANCH   3  21
TORSDOF 9
ENDMDL
