MODEL 1
REMARK VINA RESULT:      -8.0      0.000      0.000
REMARK  Name = 
REMARK  3 active torsions:
REMARK  status: ('A' for Active; 'I' for Inactive)
REMARK    1  A    between atoms: C_1  and  C_2
REMARK    2  A    between atoms: C_8  and  C_9
REMARK    3  A    between atoms: C_9  and  C_10
REMARK                            x       y       z     vdW  Elec       q    Type
REMARK                         _______ _______ _______ _____ _____    ______ ____
ROOT
ATOM      1  C   UNL     1       4.943   5.943  16.988  0.00  0.00    +0.000 C 
ENDROOT
BRANCH   1   9
ATOM      2  C   UNL     1       7.141   2.252  11.005  0.00  0.00    +0.000 C 
ATOM      3  C   UNL     1       6.378   3.021  12.052  0.00  0.00    +0.000 C 
ATOM      4  O   UNL     1       5.154   2.962  12.099  0.00  0.00    +0.000 OA
ATOM      5  N   UNL     1       7.209   3.743  12.878  0.00  0.00    +0.000 N 
ATOM      6  C   UNL     1       6.825   4.498  13.957  0.00  0.00    +0.000 A 
ATOM      7  N   UNL     1       7.655   5.312  14.576  0.00  0.00    +0.000 NA
ATOM      8  N   UNL     1       7.066   5.931  15.663  0.00  0.00    +0.000 NA
ATOM      9  C   UNL     1       5.820   5.531  15.846  0.00  0.00    +0.000 A 
ATOM     10  S   UNL     1       5.285   4.393  14.674  0.00  0.00    +0.000 S 
ATOM     11  H   UNL     1       8.190   3.829  12.651  0.00  0.00    +0.000 HD
ENDBRANCH   1   9
BRANCH   1  12
ATOM     12  C   UNL     1       4.702   4.838  17.969  0.00  0.00    +0.000 A 
ATOM     13  C   UNL     1       5.650   4.224  18.767  0.00  0.00    +0.000 A 
ATOM     14  N   UNL     1       5.020   3.294  19.549  0.00  0.00    +0.000 N 
ATOM     15  C   UNL     1       3.672   3.278  19.276  0.00  0.00    +0.000 A 
ATOM     16  C   UNL     1       2.645   2.517  19.848  0.00  0.00    +0.000 A 
ATOM     17  C   UNL     1       1.348   2.713  19.366  0.00  0.00    +0.000 A 
ATOM     18  C   UNL     1       1.093   3.619  18.340  0.00  0.00    +0.000 A 
ATOM     19  C   UNL     1       2.133   4.370  17.779  0.00  0.00    +0.000 A 
ATOM     20  C   UNL     1       3.447   4.212  18.265  0.00  0.00    +0.000 A 
ATOM     21  H   UNL     1       5.471   2.711  20.241  0.00  0.00    +0.000 HD
ENDBRANCH   1  12
TORSDOF 2
ENDMDL
MODEL 2
REMARK VINA RESULT:      -7.8      3.617      4.727
REMARK  Name = 
REMARK  3 active torsions:
REMARK  status: ('A' for Active; 'I' for Inactive)
REMARK    1  A    between atoms: C_1  and  C_2
REMARK    2  A    between atoms: C_8  and  C_9
REMARK    3  A    between atoms: C_9  and  C_10
REMARK                            x       y       z     vdW  Elec       q    Type
REMARK                         _______ _______ _______ _____ _____    ______ ____
ROOT
ATOM      1  C   UNL     1       4.978   3.845  16.858  0.00  0.00    +0.000 C 
ENDROOT
BRANCH   1   9
ATOM      2  C   UNL     1       9.250   9.590  18.591  0.00  0.00    +0.000 C 
ATOM      3  C   UNL     1       8.142   8.672  18.147  0.00  0.00    +0.000 C 
ATOM      4  O   UNL     1       7.280   9.067  17.368  0.00  0.00    +0.000 OA
ATOM      5  N   UNL     1       8.241   7.421  18.711  0.00  0.00    +0.000 N 
ATOM      6  C   UNL     1       7.419   6.350  18.464  0.00  0.00    +0.000 A 
ATOM      7  N   UNL     1       7.462   5.250  19.187  0.00  0.00    +0.000 NA
ATOM      8  N   UNL     1       6.581   4.289  18.727  0.00  0.00    +0.000 NA
ATOM      9  C   UNL     1       5.932   4.687  17.648  0.00  0.00    +0.000 A 
ATOM     10  S   UNL     1       6.340   6.282  17.150  0.00  0.00    +0.000 S 
ATOM     11  H   UNL     1       8.910   7.256  19.451  0.00  0.00    +0.000 HD
ENDBRANCH   1   9
BRANCH   1  12
ATOM     12  C   UNL     1       3.942   3.178  17.709  0.00  0.00    +0.000 A 
ATOM     13  C   UNL     1       3.675   1.822  17.769  0.00  0.00    +0.000 A 
ATOM     14  N   UNL     1       2.687   1.617  18.694  0.00  0.00    +0.000 N 
ATOM     15  C   UNL     1       2.294   2.815  19.243  0.00  0.00    +0.000 A 
ATOM     16  C   UNL     1       1.346   3.083  20.238  0.00  0.00    +0.000 A 
ATOM     17  C   UNL     1       1.149   4.418  20.603  0.00  0.00    +0.000 A 
ATOM     18  C   UNL     1       1.859   5.443  19.984  0.00  0.00    +0.000 A 
ATOM     19  C   UNL     1       2.802   5.157  18.989  0.00  0.00    +0.000 A 
ATOM     20  C   UNL     1       3.039   3.817  18.620  0.00  0.00    +0.000 A 
ATOM     21  H   UNL     1       2.308   0.717  18.954  0.00  0.00    +0.000 HD
ENDBRANCH   1  12
TORSDOF 2
ENDMDL
MODEL 3
REMARK VINA RESULT:      -7.8      1.783      2.393
REMARK  Name = 
REMARK  3 active torsions:
REMARK  status: ('A' for Active; 'I' for Inactive)
REMARK    1  A    between atoms: C_1  and  C_2
REMARK    2  A    between atoms: C_8  and  C_9
REMARK    3  A    between atoms: C_9  and  C_10
REMARK                            x       y       z     vdW  Elec       q    Type
REMARK                         _______ _______ _______ _____ _____    ______ ____
ROOT
ATOM      1  C   UNL     1       5.763   4.877  19.203  0.00  0.00    +0.000 C 
ENDROOT
BRANCH   1   9
ATOM      2  C   UNL     1       7.366   4.392  12.030  0.00  0.00    +0.000 C 
ATOM      3  C   UNL     1       6.717   4.372  13.389  0.00  0.00    +0.000 C 
ATOM      4  O   UNL     1       5.750   3.649  13.606  0.00  0.00    +0.000 OA
ATOM      5  N   UNL     1       7.331   5.226  14.274  0.00  0.00    +0.000 N 
ATOM      6  C   UNL     1       7.010   5.393  15.599  0.00  0.00    +0.000 A 
ATOM      7  N   UNL     1       7.516   6.368  16.327  0.00  0.00    +0.000 NA
ATOM      8  N   UNL     1       7.092   6.310  17.641  0.00  0.00    +0.000 NA
ATOM      9  C   UNL     1       6.310   5.270  17.865  0.00  0.00    +0.000 A 
ATOM     10  S   UNL     1       6.020   4.314  16.465  0.00  0.00    +0.000 S 
ATOM     11  H   UNL     1       8.027   5.879  13.941  0.00  0.00    +0.000 HD
ENDBRANCH   1   9
BRANCH   1  12
ATOM     12  C   UNL     1       4.286   5.098  19.319  0.00  0.00    +0.000 A 
ATOM     13  C   UNL     1       3.569   6.157  18.794  0.00  0.00    +0.000 A 
ATOM     14  N   UNL     1       2.244   5.969  19.086  0.00  0.00    +0.000 N 
ATOM     15  C   UNL     1       2.076   4.805  19.800  0.00  0.00    +0.000 A 
ATOM     16  C   UNL     1       0.907   4.204  20.282  0.00  0.00    +0.000 A 
ATOM     17  C   UNL     1       1.037   3.005  20.986  0.00  0.00    +0.000 A 
ATOM     18  C   UNL     1       2.289   2.441  21.217  0.00  0.00    +0.000 A 
ATOM     19  C   UNL     1       3.448   3.057  20.730  0.00  0.00    +0.000 A 
ATOM     20  C   UNL     1       3.342   4.254  19.992  0.00  0.00    +0.000 A 
ATOM     21  H   UNL     1       1.492   6.583  18.806  0.00  0.00    +0.000 HD
ENDBRANCH   1  12
TORSDOF 2
ENDMDL
MODEL 4
REMARK VINA RESULT:      -7.7      3.383      4.545
REMARK  Name = 
REMARK  3 active torsions:
REMARK  status: ('A' for Active; 'I' for Inactive)
REMARK    1  A    between atoms: C_1  and  C_2
REMARK    2  A    between atoms: C_8  and  C_9
REMARK    3  A    between atoms: C_9  and  C_10
REMARK                            x       y       z     vdW  Elec       q    Type
REMARK                         _______ _______ _______ _____ _____    ______ ____
ROOT
ATOM      1  C   UNL     1       4.443   3.180  17.027  0.00  0.00    +0.000 C 
ENDROOT
BRANCH   1   9
ATOM      2  C   UNL     1       8.523   9.221  18.085  0.00  0.00    +0.000 C 
ATOM      3  C   UNL     1       7.950   7.828  18.059  0.00  0.00    +0.000 C 
ATOM      4  O   UNL     1       8.262   7.010  18.918  0.00  0.00    +0.000 OA
ATOM      5  N   UNL     1       7.091   7.636  17.001  0.00  0.00    +0.000 N 
ATOM      6  C   UNL     1       6.371   6.498  16.735  0.00  0.00    +0.000 A 
ATOM      7  N   UNL     1       5.724   6.325  15.600  0.00  0.00    +0.000 NA
ATOM      8  N   UNL     1       5.030   5.130  15.573  0.00  0.00    +0.000 NA
ATOM      9  C   UNL     1       5.148   4.463  16.706  0.00  0.00    +0.000 A 
ATOM     10  S   UNL     1       6.148   5.246  17.865  0.00  0.00    +0.000 S 
ATOM     11  H   UNL     1       7.024   8.337  16.276  0.00  0.00    +0.000 HD
ENDBRANCH   1   9
BRANCH   1  12
ATOM     12  C   UNL     1       3.136   3.390  17.727  0.00  0.00    +0.000 A 
ATOM     13  C   UNL     1       1.968   3.872  17.164  0.00  0.00    +0.000 A 
ATOM     14  N   UNL     1       0.994   3.876  18.126  0.00  0.00    +0.000 N 
ATOM     15  C   UNL     1       1.501   3.411  19.317  0.00  0.00    +0.000 A 
ATOM     16  C   UNL     1       0.868   3.215  20.550  0.00  0.00    +0.000 A 
ATOM     17  C   UNL     1       1.641   2.723  21.605  0.00  0.00    +0.000 A 
ATOM     18  C   UNL     1       2.997   2.456  21.436  0.00  0.00    +0.000 A 
ATOM     19  C   UNL     1       3.614   2.660  20.196  0.00  0.00    +0.000 A 
ATOM     20  C   UNL     1       2.850   3.130  19.108  0.00  0.00    +0.000 A 
ATOM     21  H   UNL     1       0.035   4.163  17.984  0.00  0.00    +0.000 HD
ENDBRANCH   1  12
TORSDOF 2
ENDMDL
MODEL 5
REMARK VINA RESULT:      -7.7      1.614      2.211
REMARK  Name = 
REMARK  3 active torsions:
REMARK  status: ('A' for Active; 'I' for Inactive)
REMARK    1  A    between atoms: C_1  and  C_2
REMARK    2  A    between atoms: C_8  and  C_9
REMARK    3  A    between atoms: C_9  and  C_10
REMARK                            x       y       z     vdW  Elec       q    Type
REMARK                         _______ _______ _______ _____ _____    ______ ____
ROOT
ATOM      1  C   UNL     1       5.789   5.089  19.271  0.00  0.00    +0.000 C 
ENDROOT
BRANCH   1   9
ATOM      2  C   UNL     1       7.328   4.329  12.108  0.00  0.00    +0.000 C 
ATOM      3  C   UNL     1       6.688   4.369  13.471  0.00  0.00    +0.000 C 
ATOM      4  O   UNL     1       5.706   3.676  13.719  0.00  0.00    +0.000 OA
ATOM      5  N   UNL     1       7.329   5.237  14.324  0.00  0.00    +0.000 N 
ATOM      6  C   UNL     1       7.022   5.455  15.644  0.00  0.00    +0.000 A 
ATOM      7  N   UNL     1       7.555   6.441  16.336  0.00  0.00    +0.000 NA
ATOM      8  N   UNL     1       7.139   6.438  17.654  0.00  0.00    +0.000 NA
ATOM      9  C   UNL     1       6.335   5.424  17.918  0.00  0.00    +0.000 A 
ATOM     10  S   UNL     1       6.013   4.430  16.552  0.00  0.00    +0.000 S 
ATOM     11  H   UNL     1       8.038   5.862  13.965  0.00  0.00    +0.000 HD
ENDBRANCH   1   9
BRANCH   1  12
ATOM     12  C   UNL     1       4.292   5.075  19.311  0.00  0.00    +0.000 A 
ATOM     13  C   UNL     1       3.463   6.166  19.497  0.00  0.00    +0.000 A 
ATOM     14  N   UNL     1       2.164   5.739  19.429  0.00  0.00    +0.000 N 
ATOM     15  C   UNL     1       2.121   4.382  19.207  0.00  0.00    +0.000 A 
ATOM     16  C   UNL     1       1.023   3.531  19.038  0.00  0.00    +0.000 A 
ATOM     17  C   UNL     1       1.281   2.174  18.824  0.00  0.00    +0.000 A 
ATOM     18  C   UNL     1       2.585   1.687  18.799  0.00  0.00    +0.000 A 
ATOM     19  C   UNL     1       3.672   2.553  18.971  0.00  0.00    +0.000 A 
ATOM     20  C   UNL     1       3.440   3.931  19.162  0.00  0.00    +0.000 A 
ATOM     21  H   UNL     1       1.350   6.331  19.512  0.00  0.00    +0.000 HD
ENDBRANCH   1  12
TORSDOF 2
ENDMDL
MODEL 6
REMARK VINA RESULT:      -7.2      1.340      1.951
REMARK  Name = 
REMARK  3 active torsions:
REMARK  status: ('A' for Active; 'I' for Inactive)
REMARK    1  A    between atoms: C_1  and  C_2
REMARK    2  A    between atoms: C_8  and  C_9
REMARK    3  A    between atoms: C_9  and  C_10
REMARK                            x       y       z     vdW  Elec       q    Type
REMARK                         _______ _______ _______ _____ _____    ______ ____
ROOT
ATOM      1  C   UNL     1       5.502   6.719  17.367  0.00  0.00    +0.000 C 
ENDROOT
BRANCH   1   9
ATOM      2  C   UNL     1       6.026   2.259  11.528  0.00  0.00    +0.000 C 
ATOM      3  C   UNL     1       5.629   3.293  12.548  0.00  0.00    +0.000 C 
ATOM      4  O   UNL     1       4.471   3.694  12.610  0.00  0.00    +0.000 OA
ATOM      5  N   UNL     1       6.688   3.686  13.333  0.00  0.00    +0.000 N 
ATOM      6  C   UNL     1       6.638   4.570  14.383  0.00  0.00    +0.000 A 
ATOM      7  N   UNL     1       7.726   5.040  14.957  0.00  0.00    +0.000 NA
ATOM      8  N   UNL     1       7.435   5.873  16.022  0.00  0.00    +0.000 NA
ATOM      9  C   UNL     1       6.136   5.970  16.235  0.00  0.00    +0.000 A 
ATOM     10  S   UNL     1       5.188   5.068  15.119  0.00  0.00    +0.000 S 
ATOM     11  H   UNL     1       7.626   3.395  13.094  0.00  0.00    +0.000 HD
ENDBRANCH   1   9
BRANCH   1  12
ATOM     12  C   UNL     1       4.223   6.098  17.836  0.00  0.00    +0.000 A 
ATOM     13  C   UNL     1       2.950   6.609  17.668  0.00  0.00    +0.000 A 
ATOM     14  N   UNL     1       2.053   5.724  18.203  0.00  0.00    +0.000 N 
ATOM     15  C   UNL     1       2.715   4.639  18.729  0.00  0.00    +0.000 A 
ATOM     16  C   UNL     1       2.210   3.486  19.344  0.00  0.00    +0.000 A 
ATOM     17  C   UNL     1       3.130   2.534  19.790  0.00  0.00    +0.000 A 
ATOM     18  C   UNL     1       4.500   2.736  19.643  0.00  0.00    +0.000 A 
ATOM     19  C   UNL     1       4.987   3.895  19.028  0.00  0.00    +0.000 A 
ATOM     20  C   UNL     1       4.079   4.860  18.545  0.00  0.00    +0.000 A 
ATOM     21  H   UNL     1       1.049   5.837  18.202  0.00  0.00    +0.000 HD
ENDBRANCH   1  12
TORSDOF 2
ENDMDL
MODEL 7
REMARK VINA RESULT:      -7.1      1.319      1.705
REMARK  Name = 
REMARK  3 active torsions:
REMARK  status: ('A' for Active; 'I' for Inactive)
REMARK    1  A    between atoms: C_1  and  C_2
REMARK    2  A    between atoms: C_8  and  C_9
REMARK    3  A    between atoms: C_9  and  C_10
REMARK                            x       y       z     vdW  Elec       q    Type
REMARK                         _______ _______ _______ _____ _____    ______ ____
ROOT
ATOM      1  C   UNL     1       5.516   5.328  19.219  0.00  0.00    +0.000 C 
ENDROOT
BRANCH   1   9
ATOM      2  C   UNL     1       7.258   4.187  12.154  0.00  0.00    +0.000 C 
ATOM      3  C   UNL     1       6.569   4.351  13.483  0.00  0.00    +0.000 C 
ATOM      4  O   UNL     1       5.486   3.814  13.693  0.00  0.00    +0.000 OA
ATOM      5  N   UNL     1       7.289   5.138  14.352  0.00  0.00    +0.000 N 
ATOM      6  C   UNL     1       6.956   5.428  15.651  0.00  0.00    +0.000 A 
ATOM      7  N   UNL     1       7.595   6.343  16.353  0.00  0.00    +0.000 NA
ATOM      8  N   UNL     1       7.122   6.430  17.649  0.00  0.00    +0.000 NA
ATOM      9  C   UNL     1       6.168   5.549  17.889  0.00  0.00    +0.000 A 
ATOM     10  S   UNL     1       5.768   4.580  16.526  0.00  0.00    +0.000 S 
ATOM     11  H   UNL     1       8.097   5.645  14.018  0.00  0.00    +0.000 HD
ENDBRANCH   1   9
BRANCH   1  12
ATOM     12  C   UNL     1       4.783   4.025  19.302  0.00  0.00    +0.000 A 
ATOM     13  C   UNL     1       5.292   2.821  19.751  0.00  0.00    +0.000 A 
ATOM     14  N   UNL     1       4.294   1.885  19.706  0.00  0.00    +0.000 N 
ATOM     15  C   UNL     1       3.134   2.450  19.229  0.00  0.00    +0.000 A 
ATOM     16  C   UNL     1       1.867   1.886  19.043  0.00  0.00    +0.000 A 
ATOM     17  C   UNL     1       0.859   2.710  18.534  0.00  0.00    +0.000 A 
ATOM     18  C   UNL     1       1.116   4.039  18.206  0.00  0.00    +0.000 A 
ATOM     19  C   UNL     1       2.390   4.586  18.397  0.00  0.00    +0.000 A 
ATOM     20  C   UNL     1       3.418   3.784  18.934  0.00  0.00    +0.000 A 
ATOM     21  H   UNL     1       4.384   0.921  19.995  0.00  0.00    +0.000 HD
ENDBRANCH   1  12
TORSDOF 2
ENDMDL
MODEL 8
REMARK VINA RESULT:      -7.1      3.381      4.423
REMARK  Name = 
REMARK  3 active torsions:
REMARK  status: ('A' for Active; 'I' for Inactive)
REMARK    1  A    between atoms: C_1  and  C_2
REMARK    2  A    between atoms: C_8  and  C_9
REMARK    3  A    between atoms: C_9  and  C_10
REMARK                            x       y       z     vdW  Elec       q    Type
REMARK                         _______ _______ _______ _____ _____    ______ ____
ROOT
ATOM      1  C   UNL     1       4.644   3.303  16.948  0.00  0.00    +0.000 C 
ENDROOT
BRANCH   1   9
ATOM      2  C   UNL     1       8.531   9.431  18.212  0.00  0.00    +0.000 C 
ATOM      3  C   UNL     1       8.027   8.017  18.089  0.00  0.00    +0.000 C 
ATOM      4  O   UNL     1       8.488   7.129  18.799  0.00  0.00    +0.000 OA
ATOM      5  N   UNL     1       7.048   7.892  17.131  0.00  0.00    +0.000 N 
ATOM      6  C   UNL     1       6.355   6.748  16.821  0.00  0.00    +0.000 A 
ATOM      7  N   UNL     1       5.575   6.664  15.763  0.00  0.00    +0.000 NA
ATOM      8  N   UNL     1       4.942   5.439  15.678  0.00  0.00    +0.000 NA
ATOM      9  C   UNL     1       5.238   4.656  16.699  0.00  0.00    +0.000 A 
ATOM     10  S   UNL     1       6.342   5.365  17.811  0.00  0.00    +0.000 S 
ATOM     11  H   UNL     1       6.853   8.665  16.509  0.00  0.00    +0.000 HD
ENDBRANCH   1   9
BRANCH   1  12
ATOM     12  C   UNL     1       3.931   3.210  18.261  0.00  0.00    +0.000 A 
ATOM     13  C   UNL     1       3.900   2.115  19.105  0.00  0.00    +0.000 A 
ATOM     14  N   UNL     1       3.176   2.447  20.219  0.00  0.00    +0.000 N 
ATOM     15  C   UNL     1       2.723   3.742  20.121  0.00  0.00    +0.000 A 
ATOM     16  C   UNL     1       1.976   4.506  21.026  0.00  0.00    +0.000 A 
ATOM     17  C   UNL     1       1.652   5.814  20.657  0.00  0.00    +0.000 A 
ATOM     18  C   UNL     1       2.043   6.329  19.424  0.00  0.00    +0.000 A 
ATOM     19  C   UNL     1       2.787   5.550  18.530  0.00  0.00    +0.000 A 
ATOM     20  C   UNL     1       3.151   4.236  18.889  0.00  0.00    +0.000 A 
ATOM     21  H   UNL     1       3.009   1.840  21.009  0.00  0.00    +0.000 HD
ENDBRANCH   1  12
TORSDOF 2
ENDMDL
MODEL 9
REMARK VINA RESULT:      -7.0      4.978      7.121
REMARK  Name = 
REMARK  3 active torsions:
REMARK  status: ('A' for Active; 'I' for Inactive)
REMARK    1  A    between atoms: C_1  and  C_2
REMARK    2  A    between atoms: C_8  and  C_9
REMARK    3  A    between atoms: C_9  and  C_10
REMARK                            x       y       z     vdW  Elec       q    Type
REMARK                         _______ _______ _______ _____ _____    ______ ____
ROOT
ATOM      1  C   UNL     1       3.643   6.935  17.625  0.00  0.00    +0.000 C 
ENDROOT
BRANCH   1   9
ATOM      2  C   UNL     1      -1.228  11.785  20.273  0.00  0.00    +0.000 C 
ATOM      3  C   UNL     1      -0.429  10.824  19.433  0.00  0.00    +0.000 C 
ATOM      4  O   UNL     1      -0.455  10.898  18.208  0.00  0.00    +0.000 OA
ATOM      5  N   UNL     1       0.276   9.923  20.196  0.00  0.00    +0.000 N 
ATOM      6  C   UNL     1       1.137   8.961  19.730  0.00  0.00    +0.000 A 
ATOM      7  N   UNL     1       1.621   8.015  20.509  0.00  0.00    +0.000 NA
ATOM      8  N   UNL     1       2.503   7.188  19.838  0.00  0.00    +0.000 NA
ATOM      9  C   UNL     1       2.681   7.566  18.585  0.00  0.00    +0.000 A 
ATOM     10  S   UNL     1       1.750   8.942  18.143  0.00  0.00    +0.000 S 
ATOM     11  H   UNL     1       0.106   9.867  21.191  0.00  0.00    +0.000 HD
ENDBRANCH   1   9
BRANCH   1  12
ATOM     12  C   UNL     1       4.130   5.595  18.080  0.00  0.00    +0.000 A 
ATOM     13  C   UNL     1       5.418   5.275  18.468  0.00  0.00    +0.000 A 
ATOM     14  N   UNL     1       5.442   3.961  18.849  0.00  0.00    +0.000 N 
ATOM     15  C   UNL     1       4.191   3.405  18.714  0.00  0.00    +0.000 A 
ATOM     16  C   UNL     1       3.743   2.112  19.010  0.00  0.00    +0.000 A 
ATOM     17  C   UNL     1       2.398   1.821  18.768  0.00  0.00    +0.000 A 
ATOM     18  C   UNL     1       1.542   2.780  18.233  0.00  0.00    +0.000 A 
ATOM     19  C   UNL     1       2.008   4.067  17.942  0.00  0.00    +0.000 A 
ATOM     20  C   UNL     1       3.354   4.395  18.201  0.00  0.00    +0.000 A 
ATOM     21  H   UNL     1       6.253   3.468  19.196  0.00  0.00    +0.000 HD
ENDBRANCH   1  12
TORSDOF 2
ENDMDL
