MODEL 1
REMARK VINA RESULT:      -8.2      0.000      0.000
REMARK  Name = 
REMARK  9 active torsions:
REMARK  status: ('A' for Active; 'I' for Inactive)
REMARK    1  A    between atoms: C_1  and  C_2
REMARK    2  A    between atoms: C_5  and  N_6
REMARK    3  A    between atoms: C_9  and  C_10
REMARK    4  A    between atoms: C_13  and  S_14
REMARK    5  A    between atoms: S_14  and  C_15
REMARK    6  A    between atoms: C_15  and  C_16
REMARK    7  A    between atoms: N_18  and  C_19
REMARK    8  A    between atoms: C_25  and  N_26
REMARK    9  A    between atoms: C_28  and  C_29
REMARK                            x       y       z     vdW  Elec       q    Type
REMARK                         _______ _______ _______ _____ _____    ______ ____
ROOT
ATOM      1  N   UNL     1       2.118   8.231  18.556  0.00  0.00    +0.000 N 
ATOM      2  N   UNL     1       1.898   9.279  17.709  0.00  0.00    +0.000 NA
ATOM      3  C   UNL     1       1.122  10.111  18.406  0.00  0.00    +0.000 A 
ATOM      4  C   UNL     1       0.949   9.699  19.734  0.00  0.00    +0.000 A 
ATOM      5  C   UNL     1       1.612   8.495  19.842  0.00  0.00    +0.000 A 
ENDROOT
BRANCH   1  10
ATOM      6  C   UNL     1       4.979   3.572  16.820  0.00  0.00    +0.000 C 
ATOM      7  C   UNL     1       4.203   4.781  17.263  0.00  0.00    +0.000 A 
ATOM      8  C   UNL     1       4.760   6.059  17.102  0.00  0.00    +0.000 A 
ATOM      9  C   UNL     1       4.060   7.203  17.497  0.00  0.00    +0.000 A 
ATOM     10  C   UNL     1       2.804   7.075  18.096  0.00  0.00    +0.000 A 
ATOM     11  C   UNL     1       2.228   5.807  18.232  0.00  0.00    +0.000 A 
ATOM     12  C   UNL     1       2.914   4.653  17.813  0.00  0.00    +0.000 A 
ATOM     13  C   UNL     1       2.239   3.315  17.955  0.00  0.00    +0.000 C 
ENDBRANCH   1  10
BRANCH   4  14
ATOM     14  C   UNL     1       0.261  10.439  20.815  0.00  0.00    +0.000 A 
ATOM     15  N   UNL     1       0.641  10.425  22.080  0.00  0.00    +0.000 NA
ATOM     16  N   UNL     1      -0.286  11.165  22.785  0.00  0.00    +0.000 NA
ATOM     17  C   UNL     1      -1.165  11.599  21.904  0.00  0.00    +0.000 A 
ATOM     18  O   UNL     1      -0.881  11.184  20.634  0.00  0.00    +0.000 OA
BRANCH  17  19
ATOM     19  S   UNL     1      -2.552  12.570  22.284  0.00  0.00    +0.000 S 
BRANCH  19  20
ATOM     20  C   UNL     1      -2.829  13.409  20.699  0.00  0.00    +0.000 C 
BRANCH  20  21
ATOM     21  C   UNL     1      -3.559  12.495  19.735  0.00  0.00    +0.000 C 
ATOM     22  O   UNL     1      -4.753  12.235  19.865  0.00  0.00    +0.000 OA
ATOM     23  N   UNL     1      -2.776  11.954  18.736  0.00  0.00    +0.000 N 
ATOM     24  H   UNL     1      -1.782  12.164  18.708  0.00  0.00    +0.000 HD
BRANCH  23  25
ATOM     25  C   UNL     1      -3.318  11.017  17.781  0.00  0.00    +0.000 C 
ATOM     26  C   UNL     1      -3.904  11.696  16.549  0.00  0.00    +0.000 C 
ATOM     27  C   UNL     1      -4.058  10.544  15.565  0.00  0.00    +0.000 C 
ATOM     28  C   UNL     1      -2.941   9.555  15.908  0.00  0.00    +0.000 C 
ATOM     29  C   UNL     1      -2.270  10.092  17.172  0.00  0.00    +0.000 C 
ENDBRANCH  23  25
ENDBRANCH  20  21
ENDBRANCH  19  20
ENDBRANCH  17  19
ENDBRANCH   4  14
BRANCH   5  30
ATOM     30  N   UNL     1       1.834   7.709  20.931  0.00  0.00    +0.000 N 
ATOM     31  H   UNL     1       2.781   7.615  21.302  0.00  0.00    +0.000 HD
ATOM     32  H   UNL     1       1.289   6.859  21.073  0.00  0.00    +0.000 HD
ENDBRANCH   5  30
TORSDOF 7
ENDMDL
MODEL 2
REMARK VINA RESULT:      -7.9      4.017      8.639
REMARK  Name = 
REMARK  9 active torsions:
REMARK  status: ('A' for Active; 'I' for Inactive)
REMARK    1  A    between atoms: C_1  and  C_2
REMARK    2  A    between atoms: C_5  and  N_6
REMARK    3  A    between atoms: C_9  and  C_10
REMARK    4  A    between atoms: C_13  and  S_14
REMARK    5  A    between atoms: S_14  and  C_15
REMARK    6  A    between atoms: C_15  and  C_16
REMARK    7  A    between atoms: N_18  and  C_19
REMARK    8  A    between atoms: C_25  and  N_26
REMARK    9  A    between atoms: C_28  and  C_29
REMARK                            x       y       z     vdW  Elec       q    Type
REMARK                         _______ _______ _______ _____ _____    ______ ____
ROOT
ATOM      1  N   UNL     1       1.484   9.483  18.789  0.00  0.00    +0.000 N 
ATOM      2  N   UNL     1       2.005   9.010  17.618  0.00  0.00    +0.000 NA
ATOM      3  C   UNL     1       2.433   7.783  17.919  0.00  0.00    +0.000 A 
ATOM      4  C   UNL     1       2.077   7.391  19.216  0.00  0.00    +0.000 A 
ATOM      5  C   UNL     1       1.440   8.480  19.773  0.00  0.00    +0.000 A 
ENDROOT
BRANCH   1  10
ATOM      6  C   UNL     1      -0.280  14.938  19.007  0.00  0.00    +0.000 C 
ATOM      7  C   UNL     1       0.167  13.502  18.976  0.00  0.00    +0.000 A 
ATOM      8  C   UNL     1       1.490  13.196  18.624  0.00  0.00    +0.000 A 
ATOM      9  C   UNL     1       1.938  11.872  18.594  0.00  0.00    +0.000 A 
ATOM     10  C   UNL     1       1.049  10.833  18.880  0.00  0.00    +0.000 A 
ATOM     11  C   UNL     1      -0.264  11.130  19.263  0.00  0.00    +0.000 A 
ATOM     12  C   UNL     1      -0.715  12.461  19.322  0.00  0.00    +0.000 A 
ATOM     13  C   UNL     1      -2.128  12.730  19.765  0.00  0.00    +0.000 C 
ENDBRANCH   1  10
BRANCH   4  14
ATOM     14  C   UNL     1       2.275   6.061  19.833  0.00  0.00    +0.000 A 
ATOM     15  N   UNL     1       1.604   5.624  20.883  0.00  0.00    +0.000 NA
ATOM     16  N   UNL     1       2.121   4.386  21.202  0.00  0.00    +0.000 NA
ATOM     17  C   UNL     1       3.065   4.136  20.318  0.00  0.00    +0.000 A 
ATOM     18  O   UNL     1       3.216   5.150  19.414  0.00  0.00    +0.000 OA
BRANCH  17  19
ATOM     19  S   UNL     1       4.041   2.702  20.287  0.00  0.00    +0.000 S 
BRANCH  19  20
ATOM     20  C   UNL     1       3.315   1.820  18.877  0.00  0.00    +0.000 C 
BRANCH  20  21
ATOM     21  C   UNL     1       3.371   2.679  17.630  0.00  0.00    +0.000 C 
ATOM     22  O   UNL     1       2.381   2.868  16.926  0.00  0.00    +0.000 OA
ATOM     23  N   UNL     1       4.616   3.193  17.329  0.00  0.00    +0.000 N 
ATOM     24  H   UNL     1       5.411   2.961  17.919  0.00  0.00    +0.000 HD
BRANCH  23  25
ATOM     25  C   UNL     1       4.836   3.979  16.138  0.00  0.00    +0.000 C 
ATOM     26  C   UNL     1       4.909   5.475  16.419  0.00  0.00    +0.000 C 
ATOM     27  C   UNL     1       5.500   6.035  15.132  0.00  0.00    +0.000 C 
ATOM     28  C   UNL     1       6.398   4.928  14.573  0.00  0.00    +0.000 C 
ATOM     29  C   UNL     1       6.180   3.710  15.470  0.00  0.00    +0.000 C 
ENDBRANCH  23  25
ENDBRANCH  20  21
ENDBRANCH  19  20
ENDBRANCH  17  19
ENDBRANCH   4  14
BRANCH   5  30
ATOM     30  N   UNL     1       0.819   8.613  20.978  0.00  0.00    +0.000 N 
ATOM     31  H   UNL     1      -0.128   8.993  21.019  0.00  0.00    +0.000 HD
ATOM     32  H   UNL     1       1.355   8.851  21.811  0.00  0.00    +0.000 HD
ENDBRANCH   5  30
TORSDOF 7
ENDMDL
MODEL 3
REMARK VINA RESULT:      -7.8      0.978      1.790
REMARK  Name = 
REMARK  9 active torsions:
REMARK  status: ('A' for Active; 'I' for Inactive)
REMARK    1  A    between atoms: C_1  and  C_2
REMARK    2  A    between atoms: C_5  and  N_6
REMARK    3  A    between atoms: C_9  and  C_10
REMARK    4  A    between atoms: C_13  and  S_14
REMARK    5  A    between atoms: S_14  and  C_15
REMARK    6  A    between atoms: C_15  and  C_16
REMARK    7  A    between atoms: N_18  and  C_19
REMARK    8  A    between atoms: C_25  and  N_26
REMARK    9  A    between atoms: C_28  and  C_29
REMARK                            x       y       z     vdW  Elec       q    Type
REMARK                         _______ _______ _______ _____ _____    ______ ____
ROOT
ATOM      1  N   UNL     1       2.228   7.929  18.673  0.00  0.00    +0.000 N 
ATOM      2  N   UNL     1       1.983   9.035  17.910  0.00  0.00    +0.000 NA
ATOM      3  C   UNL     1       1.180   9.787  18.667  0.00  0.00    +0.000 A 
ATOM      4  C   UNL     1       1.013   9.266  19.956  0.00  0.00    +0.000 A 
ATOM      5  C   UNL     1       1.709   8.076  19.972  0.00  0.00    +0.000 A 
ENDROOT
BRANCH   1  10
ATOM      6  C   UNL     1       5.049   3.511  16.343  0.00  0.00    +0.000 C 
ATOM      7  C   UNL     1       4.336   4.678  16.967  0.00  0.00    +0.000 A 
ATOM      8  C   UNL     1       3.066   4.493  17.533  0.00  0.00    +0.000 A 
ATOM      9  C   UNL     1       2.381   5.556  18.128  0.00  0.00    +0.000 A 
ATOM     10  C   UNL     1       2.949   6.833  18.126  0.00  0.00    +0.000 A 
ATOM     11  C   UNL     1       4.228   7.022  17.592  0.00  0.00    +0.000 A 
ATOM     12  C   UNL     1       4.935   5.951  17.016  0.00  0.00    +0.000 A 
ATOM     13  C   UNL     1       6.319   6.199  16.480  0.00  0.00    +0.000 C 
ENDBRANCH   1  10
BRANCH   4  14
ATOM     14  C   UNL     1       0.299   9.897  21.088  0.00  0.00    +0.000 A 
ATOM     15  N   UNL     1      -0.120   9.243  22.156  0.00  0.00    +0.000 NA
ATOM     16  N   UNL     1      -0.799  10.152  22.941  0.00  0.00    +0.000 NA
ATOM     17  C   UNL     1      -0.738  11.308  22.312  0.00  0.00    +0.000 A 
ATOM     18  O   UNL     1      -0.053  11.225  21.133  0.00  0.00    +0.000 OA
BRANCH  17  19
ATOM     19  S   UNL     1      -1.456  12.784  22.876  0.00  0.00    +0.000 S 
BRANCH  19  20
ATOM     20  C   UNL     1      -2.935  12.871  21.829  0.00  0.00    +0.000 C 
BRANCH  20  21
ATOM     21  C   UNL     1      -2.551  12.811  20.364  0.00  0.00    +0.000 C 
ATOM     22  O   UNL     1      -1.852  13.675  19.840  0.00  0.00    +0.000 OA
ATOM     23  N   UNL     1      -3.075  11.742  19.665  0.00  0.00    +0.000 N 
ATOM     24  H   UNL     1      -3.690  11.086  20.139  0.00  0.00    +0.000 HD
BRANCH  23  25
ATOM     25  C   UNL     1      -2.847  11.587  18.248  0.00  0.00    +0.000 C 
ATOM     26  C   UNL     1      -2.271  10.223  17.886  0.00  0.00    +0.000 C 
ATOM     27  C   UNL     1      -2.468  10.160  16.377  0.00  0.00    +0.000 C 
ATOM     28  C   UNL     1      -3.721  10.990  16.088  0.00  0.00    +0.000 C 
ATOM     29  C   UNL     1      -4.124  11.630  17.416  0.00  0.00    +0.000 C 
ENDBRANCH  23  25
ENDBRANCH  20  21
ENDBRANCH  19  20
ENDBRANCH  17  19
ENDBRANCH   4  14
BRANCH   5  30
ATOM     30  N   UNL     1       1.949   7.212  20.996  0.00  0.00    +0.000 N 
ATOM     31  H   UNL     1       2.341   6.290  20.799  0.00  0.00    +0.000 HD
ATOM     32  H   UNL     1       1.332   7.190  21.808  0.00  0.00    +0.000 HD
ENDBRANCH   5  30
TORSDOF 7
ENDMDL
MODEL 4
REMARK VINA RESULT:      -7.7      1.249      1.580
REMARK  Name = 
REMARK  9 active torsions:
REMARK  status: ('A' for Active; 'I' for Inactive)
REMARK    1  A    between atoms: C_1  and  C_2
REMARK    2  A    between atoms: C_5  and  N_6
REMARK    3  A    between atoms: C_9  and  C_10
REMARK    4  A    between atoms: C_13  and  S_14
REMARK    5  A    between atoms: S_14  and  C_15
REMARK    6  A    between atoms: C_15  and  C_16
REMARK    7  A    between atoms: N_18  and  C_19
REMARK    8  A    between atoms: C_25  and  N_26
REMARK    9  A    between atoms: C_28  and  C_29
REMARK                            x       y       z     vdW  Elec       q    Type
REMARK                         _______ _______ _______ _____ _____    ______ ____
ROOT
ATOM      1  N   UNL     1       2.165   7.379  18.788  0.00  0.00    +0.000 N 
ATOM      2  N   UNL     1       2.279   8.282  17.770  0.00  0.00    +0.000 NA
ATOM      3  C   UNL     1       1.698   9.387  18.242  0.00  0.00    +0.000 A 
ATOM      4  C   UNL     1       1.339   9.271  19.591  0.00  0.00    +0.000 A 
ATOM      5  C   UNL     1       1.662   7.982  19.955  0.00  0.00    +0.000 A 
ENDROOT
BRANCH   1  10
ATOM      6  C   UNL     1       3.827   1.929  18.123  0.00  0.00    +0.000 C 
ATOM      7  C   UNL     1       3.366   3.351  18.281  0.00  0.00    +0.000 A 
ATOM      8  C   UNL     1       4.284   4.400  18.120  0.00  0.00    +0.000 A 
ATOM      9  C   UNL     1       3.884   5.732  18.253  0.00  0.00    +0.000 A 
ATOM     10  C   UNL     1       2.560   6.028  18.590  0.00  0.00    +0.000 A 
ATOM     11  C   UNL     1       1.631   4.991  18.722  0.00  0.00    +0.000 A 
ATOM     12  C   UNL     1       2.019   3.648  18.563  0.00  0.00    +0.000 A 
ATOM     13  C   UNL     1       0.976   2.571  18.688  0.00  0.00    +0.000 C 
ENDBRANCH   1  10
BRANCH   4  14
ATOM     14  C   UNL     1       0.794  10.336  20.463  0.00  0.00    +0.000 A 
ATOM     15  N   UNL     1       1.509  11.338  20.943  0.00  0.00    +0.000 NA
ATOM     16  N   UNL     1       0.675  12.066  21.765  0.00  0.00    +0.000 NA
ATOM     17  C   UNL     1      -0.502  11.474  21.724  0.00  0.00    +0.000 A 
ATOM     18  O   UNL     1      -0.504  10.373  20.915  0.00  0.00    +0.000 OA
BRANCH  17  19
ATOM     19  S   UNL     1      -1.905  11.993  22.603  0.00  0.00    +0.000 S 
BRANCH  19  20
ATOM     20  C   UNL     1      -2.524  13.310  21.519  0.00  0.00    +0.000 C 
BRANCH  20  21
ATOM     21  C   UNL     1      -2.187  13.008  20.073  0.00  0.00    +0.000 C 
ATOM     22  O   UNL     1      -1.362  13.670  19.446  0.00  0.00    +0.000 OA
ATOM     23  N   UNL     1      -2.900  11.969  19.511  0.00  0.00    +0.000 N 
ATOM     24  H   UNL     1      -3.607  11.490  20.063  0.00  0.00    +0.000 HD
BRANCH  23  25
ATOM     25  C   UNL     1      -2.732  11.605  18.125  0.00  0.00    +0.000 C 
ATOM     26  C   UNL     1      -2.194  10.191  17.942  0.00  0.00    +0.000 C 
ATOM     27  C   UNL     1      -2.453   9.916  16.467  0.00  0.00    +0.000 C 
ATOM     28  C   UNL     1      -3.704  10.722  16.108  0.00  0.00    +0.000 C 
ATOM     29  C   UNL     1      -4.041  11.556  17.344  0.00  0.00    +0.000 C 
ENDBRANCH  23  25
ENDBRANCH  20  21
ENDBRANCH  19  20
ENDBRANCH  17  19
ENDBRANCH   4  14
BRANCH   5  30
ATOM     30  N   UNL     1       1.602   7.371  21.170  0.00  0.00    +0.000 N 
ATOM     31  H   UNL     1       0.701   7.060  21.537  0.00  0.00    +0.000 HD
ATOM     32  H   UNL     1       2.235   7.649  21.919  0.00  0.00    +0.000 HD
ENDBRANCH   5  30
TORSDOF 7
ENDMDL
MODEL 5
REMARK VINA RESULT:      -7.7      2.593      3.349
REMARK  Name = 
REMARK  9 active torsions:
REMARK  status: ('A' for Active; 'I' for Inactive)
REMARK    1  A    between atoms: C_1  and  C_2
REMARK    2  A    between atoms: C_5  and  N_6
REMARK    3  A    between atoms: C_9  and  C_10
REMARK    4  A    between atoms: C_13  and  S_14
REMARK    5  A    between atoms: S_14  and  C_15
REMARK    6  A    between atoms: C_15  and  C_16
REMARK    7  A    between atoms: N_18  and  C_19
REMARK    8  A    between atoms: C_25  and  N_26
REMARK    9  A    between atoms: C_28  and  C_29
REMARK                            x       y       z     vdW  Elec       q    Type
REMARK                         _______ _______ _______ _____ _____    ______ ____
ROOT
ATOM      1  N   UNL     1       2.152   8.014  18.738  0.00  0.00    +0.000 N 
ATOM      2  N   UNL     1       1.845   9.143  18.032  0.00  0.00    +0.000 NA
ATOM      3  C   UNL     1       1.086   9.857  18.866  0.00  0.00    +0.000 A 
ATOM      4  C   UNL     1       1.011   9.291  20.144  0.00  0.00    +0.000 A 
ATOM      5  C   UNL     1       1.719   8.110  20.072  0.00  0.00    +0.000 A 
ENDROOT
BRANCH   1  10
ATOM      6  C   UNL     1       5.054   3.704  16.308  0.00  0.00    +0.000 C 
ATOM      7  C   UNL     1       4.266   4.822  16.932  0.00  0.00    +0.000 A 
ATOM      8  C   UNL     1       4.767   6.132  16.886  0.00  0.00    +0.000 A 
ATOM      9  C   UNL     1       4.055   7.194  17.451  0.00  0.00    +0.000 A 
ATOM     10  C   UNL     1       2.846   6.947  18.107  0.00  0.00    +0.000 A 
ATOM     11  C   UNL     1       2.324   5.650  18.131  0.00  0.00    +0.000 A 
ATOM     12  C   UNL     1       3.021   4.579  17.541  0.00  0.00    +0.000 A 
ATOM     13  C   UNL     1       2.404   3.207  17.570  0.00  0.00    +0.000 C 
ENDBRANCH   1  10
BRANCH   4  14
ATOM     14  C   UNL     1       0.367   9.875  21.342  0.00  0.00    +0.000 A 
ATOM     15  N   UNL     1       0.672   9.539  22.584  0.00  0.00    +0.000 NA
ATOM     16  N   UNL     1      -0.187  10.236  23.408  0.00  0.00    +0.000 NA
ATOM     17  C   UNL     1      -0.951  10.965  22.621  0.00  0.00    +0.000 A 
ATOM     18  O   UNL     1      -0.655  10.793  21.298  0.00  0.00    +0.000 OA
BRANCH  17  19
ATOM     19  S   UNL     1      -2.218  12.019  23.166  0.00  0.00    +0.000 S 
BRANCH  19  20
ATOM     20  C   UNL     1      -1.354  13.615  23.186  0.00  0.00    +0.000 C 
BRANCH  20  21
ATOM     21  C   UNL     1      -0.948  14.016  21.782  0.00  0.00    +0.000 C 
ATOM     22  O   UNL     1      -1.767  14.426  20.961  0.00  0.00    +0.000 OA
ATOM     23  N   UNL     1       0.390  13.849  21.489  0.00  0.00    +0.000 N 
ATOM     24  H   UNL     1       1.012  13.457  22.192  0.00  0.00    +0.000 HD
BRANCH  23  25
ATOM     25  C   UNL     1       0.912  14.130  20.173  0.00  0.00    +0.000 C 
ATOM     26  C   UNL     1       1.513  15.525  20.058  0.00  0.00    +0.000 C 
ATOM     27  C   UNL     1       2.301  15.451  18.758  0.00  0.00    +0.000 C 
ATOM     28  C   UNL     1       2.752  13.993  18.630  0.00  0.00    +0.000 C 
ATOM     29  C   UNL     1       2.085  13.239  19.779  0.00  0.00    +0.000 C 
ENDBRANCH  23  25
ENDBRANCH  20  21
ENDBRANCH  19  20
ENDBRANCH  17  19
ENDBRANCH   4  14
BRANCH   5  30
ATOM     30  N   UNL     1       2.035   7.215  21.048  0.00  0.00    +0.000 N 
ATOM     31  H   UNL     1       2.957   7.248  21.487  0.00  0.00    +0.000 HD
ATOM     32  H   UNL     1       1.672   6.263  21.011  0.00  0.00    +0.000 HD
ENDBRANCH   5  30
TORSDOF 7
ENDMDL
MODEL 6
REMARK VINA RESULT:      -7.6      2.306      2.864
REMARK  Name = 
REMARK  9 active torsions:
REMARK  status: ('A' for Active; 'I' for Inactive)
REMARK    1  A    between atoms: C_1  and  C_2
REMARK    2  A    between atoms: C_5  and  N_6
REMARK    3  A    between atoms: C_9  and  C_10
REMARK    4  A    between atoms: C_13  and  S_14
REMARK    5  A    between atoms: S_14  and  C_15
REMARK    6  A    between atoms: C_15  and  C_16
REMARK    7  A    between atoms: N_18  and  C_19
REMARK    8  A    between atoms: C_25  and  N_26
REMARK    9  A    between atoms: C_28  and  C_29
REMARK                            x       y       z     vdW  Elec       q    Type
REMARK                         _______ _______ _______ _____ _____    ______ ____
ROOT
ATOM      1  N   UNL     1       1.833   8.383  18.787  0.00  0.00    +0.000 N 
ATOM      2  N   UNL     1       1.547   9.457  17.993  0.00  0.00    +0.000 NA
ATOM      3  C   UNL     1       0.770  10.232  18.752  0.00  0.00    +0.000 A 
ATOM      4  C   UNL     1       0.660   9.760  20.066  0.00  0.00    +0.000 A 
ATOM      5  C   UNL     1       1.366   8.577  20.099  0.00  0.00    +0.000 A 
ENDROOT
BRANCH   1  10
ATOM      6  C   UNL     1       4.781   3.900  16.757  0.00  0.00    +0.000 C 
ATOM      7  C   UNL     1       3.982   5.063  17.276  0.00  0.00    +0.000 A 
ATOM      8  C   UNL     1       4.513   6.360  17.195  0.00  0.00    +0.000 A 
ATOM      9  C   UNL     1       3.792   7.462  17.661  0.00  0.00    +0.000 A 
ATOM     10  C   UNL     1       2.540   7.272  18.254  0.00  0.00    +0.000 A 
ATOM     11  C   UNL     1       1.990   5.988  18.311  0.00  0.00    +0.000 A 
ATOM     12  C   UNL     1       2.697   4.875  17.820  0.00  0.00    +0.000 A 
ATOM     13  C   UNL     1       2.050   3.518  17.879  0.00  0.00    +0.000 C 
ENDBRANCH   1  10
BRANCH   4  14
ATOM     14  C   UNL     1      -0.013  10.430  21.201  0.00  0.00    +0.000 A 
ATOM     15  N   UNL     1      -0.092   9.924  22.419  0.00  0.00    +0.000 NA
ATOM     16  N   UNL     1      -0.852  10.798  23.167  0.00  0.00    +0.000 NA
ATOM     17  C   UNL     1      -1.176  11.792  22.366  0.00  0.00    +0.000 A 
ATOM     18  O   UNL     1      -0.675  11.631  21.105  0.00  0.00    +0.000 OA
BRANCH  17  19
ATOM     19  S   UNL     1      -2.149  13.156  22.820  0.00  0.00    +0.000 S 
BRANCH  19  20
ATOM     20  C   UNL     1      -3.273  12.393  24.023  0.00  0.00    +0.000 C 
BRANCH  20  21
ATOM     21  C   UNL     1      -4.702  12.451  23.524  0.00  0.00    +0.000 C 
ATOM     22  O   UNL     1      -5.661  12.335  24.284  0.00  0.00    +0.000 OA
ATOM     23  N   UNL     1      -4.840  12.604  22.160  0.00  0.00    +0.000 N 
ATOM     24  H   UNL     1      -4.010  12.643  21.573  0.00  0.00    +0.000 HD
BRANCH  23  25
ATOM     25  C   UNL     1      -6.139  12.615  21.532  0.00  0.00    +0.000 C 
ATOM     26  C   UNL     1      -6.505  13.973  20.946  0.00  0.00    +0.000 C 
ATOM     27  C   UNL     1      -7.691  13.649  20.048  0.00  0.00    +0.000 C 
ATOM     28  C   UNL     1      -7.465  12.215  19.564  0.00  0.00    +0.000 C 
ATOM     29  C   UNL     1      -6.236  11.701  20.314  0.00  0.00    +0.000 C 
ENDBRANCH  23  25
ENDBRANCH  20  21
ENDBRANCH  19  20
ENDBRANCH  17  19
ENDBRANCH   4  14
BRANCH   5  30
ATOM     30  N   UNL     1       1.655   7.755  21.145  0.00  0.00    +0.000 N 
ATOM     31  H   UNL     1       2.527   7.879  21.662  0.00  0.00    +0.000 HD
ATOM     32  H   UNL     1       1.367   6.777  21.128  0.00  0.00    +0.000 HD
ENDBRANCH   5  30
TORSDOF 7
ENDMDL
MODEL 7
REMARK VINA RESULT:      -7.6      1.564      1.686
REMARK  Name = 
REMARK  9 active torsions:
REMARK  status: ('A' for Active; 'I' for Inactive)
REMARK    1  A    between atoms: C_1  and  C_2
REMARK    2  A    between atoms: C_5  and  N_6
REMARK    3  A    between atoms: C_9  and  C_10
REMARK    4  A    between atoms: C_13  and  S_14
REMARK    5  A    between atoms: S_14  and  C_15
REMARK    6  A    between atoms: C_15  and  C_16
REMARK    7  A    between atoms: N_18  and  C_19
REMARK    8  A    between atoms: C_25  and  N_26
REMARK    9  A    between atoms: C_28  and  C_29
REMARK                            x       y       z     vdW  Elec       q    Type
REMARK                         _______ _______ _______ _____ _____    ______ ____
ROOT
ATOM      1  N   UNL     1       2.219   7.667  19.089  0.00  0.00    +0.000 N 
ATOM      2  N   UNL     1       2.509   8.315  17.922  0.00  0.00    +0.000 NA
ATOM      3  C   UNL     1       1.795   9.440  17.982  0.00  0.00    +0.000 A 
ATOM      4  C   UNL     1       1.161   9.609  19.218  0.00  0.00    +0.000 A 
ATOM      5  C   UNL     1       1.452   8.476  19.947  0.00  0.00    +0.000 A 
ENDROOT
BRANCH   1  10
ATOM      6  C   UNL     1       4.279   2.408  20.090  0.00  0.00    +0.000 C 
ATOM      7  C   UNL     1       3.711   3.774  19.824  0.00  0.00    +0.000 A 
ATOM      8  C   UNL     1       4.414   4.670  19.005  0.00  0.00    +0.000 A 
ATOM      9  C   UNL     1       3.908   5.944  18.732  0.00  0.00    +0.000 A 
ATOM     10  C   UNL     1       2.704   6.351  19.313  0.00  0.00    +0.000 A 
ATOM     11  C   UNL     1       1.980   5.454  20.106  0.00  0.00    +0.000 A 
ATOM     12  C   UNL     1       2.469   4.160  20.363  0.00  0.00    +0.000 A 
ATOM     13  C   UNL     1       1.640   3.224  21.200  0.00  0.00    +0.000 C 
ENDBRANCH   1  10
BRANCH   4  14
ATOM     14  C   UNL     1       0.397  10.793  19.676  0.00  0.00    +0.000 A 
ATOM     15  N   UNL     1       0.647  12.030  19.287  0.00  0.00    +0.000 NA
ATOM     16  N   UNL     1      -0.217  12.850  19.982  0.00  0.00    +0.000 NA
ATOM     17  C   UNL     1      -0.952  12.061  20.740  0.00  0.00    +0.000 A 
ATOM     18  O   UNL     1      -0.623  10.743  20.594  0.00  0.00    +0.000 OA
BRANCH  17  19
ATOM     19  S   UNL     1      -2.190  12.603  21.828  0.00  0.00    +0.000 S 
BRANCH  19  20
ATOM     20  C   UNL     1      -3.336  13.408  20.674  0.00  0.00    +0.000 C 
BRANCH  20  21
ATOM     21  C   UNL     1      -3.875  12.403  19.676  0.00  0.00    +0.000 C 
ATOM     22  O   UNL     1      -5.016  11.950  19.760  0.00  0.00    +0.000 OA
ATOM     23  N   UNL     1      -2.983  12.012  18.699  0.00  0.00    +0.000 N 
ATOM     24  H   UNL     1      -2.035  12.380  18.708  0.00  0.00    +0.000 HD
BRANCH  23  25
ATOM     25  C   UNL     1      -3.334  11.015  17.716  0.00  0.00    +0.000 C 
ATOM     26  C   UNL     1      -4.012  11.606  16.486  0.00  0.00    +0.000 C 
ATOM     27  C   UNL     1      -3.942  10.467  15.477  0.00  0.00    +0.000 C 
ATOM     28  C   UNL     1      -2.672   9.685  15.822  0.00  0.00    +0.000 C 
ATOM     29  C   UNL     1      -2.128  10.304  17.110  0.00  0.00    +0.000 C 
ENDBRANCH  23  25
ENDBRANCH  20  21
ENDBRANCH  19  20
ENDBRANCH  17  19
ENDBRANCH   4  14
BRANCH   5  30
ATOM     30  N   UNL     1       1.160   8.163  21.239  0.00  0.00    +0.000 N 
ATOM     31  H   UNL     1       1.777   7.538  21.760  0.00  0.00    +0.000 HD
ATOM     32  H   UNL     1       0.191   8.069  21.541  0.00  0.00    +0.000 HD
ENDBRANCH   5  30
TORSDOF 7
ENDMDL
MODEL 8
REMARK VINA RESULT:      -7.5      1.436      1.542
REMARK  Name = 
REMARK  9 active torsions:
REMARK  status: ('A' for Active; 'I' for Inactive)
REMARK    1  A    between atoms: C_1  and  C_2
REMARK    2  A    between atoms: C_5  and  N_6
REMARK    3  A    between atoms: C_9  and  C_10
REMARK    4  A    between atoms: C_13  and  S_14
REMARK    5  A    between atoms: S_14  and  C_15
REMARK    6  A    between atoms: C_15  and  C_16
REMARK    7  A    between atoms: N_18  and  C_19
REMARK    8  A    between atoms: C_25  and  N_26
REMARK    9  A    between atoms: C_28  and  C_29
REMARK                            x       y       z     vdW  Elec       q    Type
REMARK                         _______ _______ _______ _____ _____    ______ ____
ROOT
ATOM      1  N   UNL     1       2.215   7.460  18.952  0.00  0.00    +0.000 N 
ATOM      2  N   UNL     1       2.265   8.153  17.776  0.00  0.00    +0.000 NA
ATOM      3  C   UNL     1       1.704   9.329  18.061  0.00  0.00    +0.000 A 
ATOM      4  C   UNL     1       1.420   9.474  19.424  0.00  0.00    +0.000 A 
ATOM      5  C   UNL     1       1.772   8.276  20.009  0.00  0.00    +0.000 A 
ENDROOT
BRANCH   1  10
ATOM      6  C   UNL     1       3.814   1.960  19.265  0.00  0.00    +0.000 C 
ATOM      7  C   UNL     1       3.377   3.395  19.159  0.00  0.00    +0.000 A 
ATOM      8  C   UNL     1       4.325   4.420  19.294  0.00  0.00    +0.000 A 
ATOM      9  C   UNL     1       3.951   5.763  19.192  0.00  0.00    +0.000 A 
ATOM     10  C   UNL     1       2.608   6.095  18.992  0.00  0.00    +0.000 A 
ATOM     11  C   UNL     1       1.661   5.080  18.825  0.00  0.00    +0.000 A 
ATOM     12  C   UNL     1       2.034   3.725  18.899  0.00  0.00    +0.000 A 
ATOM     13  C   UNL     1       0.982   2.670  18.685  0.00  0.00    +0.000 C 
ENDBRANCH   1  10
BRANCH   4  14
ATOM     14  C   UNL     1       0.917  10.686  20.108  0.00  0.00    +0.000 A 
ATOM     15  N   UNL     1       0.788  10.798  21.418  0.00  0.00    +0.000 NA
ATOM     16  N   UNL     1       0.223  12.033  21.660  0.00  0.00    +0.000 NA
ATOM     17  C   UNL     1       0.057  12.605  20.485  0.00  0.00    +0.000 A 
ATOM     18  O   UNL     1       0.479  11.813  19.454  0.00  0.00    +0.000 OA
BRANCH  17  19
ATOM     19  S   UNL     1      -0.639  14.175  20.235  0.00  0.00    +0.000 S 
BRANCH  19  20
ATOM     20  C   UNL     1      -2.300  13.930  20.923  0.00  0.00    +0.000 C 
BRANCH  20  21
ATOM     21  C   UNL     1      -2.987  12.761  20.245  0.00  0.00    +0.000 C 
ATOM     22  O   UNL     1      -3.869  12.112  20.804  0.00  0.00    +0.000 OA
ATOM     23  N   UNL     1      -2.522  12.462  18.980  0.00  0.00    +0.000 N 
ATOM     24  H   UNL     1      -1.754  13.001  18.588  0.00  0.00    +0.000 HD
BRANCH  23  25
ATOM     25  C   UNL     1      -3.036  11.338  18.236  0.00  0.00    +0.000 C 
ATOM     26  C   UNL     1      -4.053  11.743  17.176  0.00  0.00    +0.000 C 
ATOM     27  C   UNL     1      -4.159  10.494  16.310  0.00  0.00    +0.000 C 
ATOM     28  C   UNL     1      -2.786   9.821  16.385  0.00  0.00    +0.000 C 
ATOM     29  C   UNL     1      -1.977  10.617  17.410  0.00  0.00    +0.000 C 
ENDBRANCH  23  25
ENDBRANCH  20  21
ENDBRANCH  19  20
ENDBRANCH  17  19
ENDBRANCH   4  14
BRANCH   5  30
ATOM     30  N   UNL     1       1.784   7.907  21.319  0.00  0.00    +0.000 N 
ATOM     31  H   UNL     1       2.333   8.447  21.991  0.00  0.00    +0.000 HD
ATOM     32  H   UNL     1       1.737   6.923  21.579  0.00  0.00    +0.000 HD
ENDBRANCH   5  30
TORSDOF 7
ENDMDL
MODEL 9
REMARK VINA RESULT:      -7.4      3.080      5.223
REMARK  Name = 
REMARK  9 active torsions:
REMARK  status: ('A' for Active; 'I' for Inactive)
REMARK    1  A    between atoms: C_1  and  C_2
REMARK    2  A    between atoms: C_5  and  N_6
REMARK    3  A    between atoms: C_9  and  C_10
REMARK    4  A    between atoms: C_13  and  S_14
REMARK    5  A    between atoms: S_14  and  C_15
REMARK    6  A    between atoms: C_15  and  C_16
REMARK    7  A    between atoms: N_18  and  C_19
REMARK    8  A    between atoms: C_25  and  N_26
REMARK    9  A    between atoms: C_28  and  C_29
REMARK                            x       y       z     vdW  Elec       q    Type
REMARK                         _______ _______ _______ _____ _____    ______ ____
ROOT
ATOM      1  N   UNL     1       2.011   8.198  18.764  0.00  0.00    +0.000 N 
ATOM      2  N   UNL     1       1.683   9.295  18.019  0.00  0.00    +0.000 NA
ATOM      3  C   UNL     1       0.914  10.027  18.827  0.00  0.00    +0.000 A 
ATOM      4  C   UNL     1       0.849   9.505  20.125  0.00  0.00    +0.000 A 
ATOM      5  C   UNL     1       1.578   8.335  20.095  0.00  0.00    +0.000 A 
ENDROOT
BRANCH   1  10
ATOM      6  C   UNL     1       4.978   3.848  16.490  0.00  0.00    +0.000 C 
ATOM      7  C   UNL     1       4.174   4.977  17.073  0.00  0.00    +0.000 A 
ATOM      8  C   UNL     1       4.685   6.283  17.036  0.00  0.00    +0.000 A 
ATOM      9  C   UNL     1       3.959   7.354  17.563  0.00  0.00    +0.000 A 
ATOM     10  C   UNL     1       2.722   7.121  18.171  0.00  0.00    +0.000 A 
ATOM     11  C   UNL     1       2.191   5.827  18.185  0.00  0.00    +0.000 A 
ATOM     12  C   UNL     1       2.904   4.747  17.633  0.00  0.00    +0.000 A 
ATOM     13  C   UNL     1       2.276   3.379  17.648  0.00  0.00    +0.000 C 
ENDBRANCH   1  10
BRANCH   4  14
ATOM     14  C   UNL     1       0.197  10.120  21.303  0.00  0.00    +0.000 A 
ATOM     15  N   UNL     1       0.522   9.850  22.555  0.00  0.00    +0.000 NA
ATOM     16  N   UNL     1      -0.352  10.555  23.355  0.00  0.00    +0.000 NA
ATOM     17  C   UNL     1      -1.146  11.224  22.544  0.00  0.00    +0.000 A 
ATOM     18  O   UNL     1      -0.854  11.003  21.228  0.00  0.00    +0.000 OA
BRANCH  17  19
ATOM     19  S   UNL     1      -2.441  12.260  23.055  0.00  0.00    +0.000 S 
BRANCH  19  20
ATOM     20  C   UNL     1      -2.027  13.791  22.172  0.00  0.00    +0.000 C 
BRANCH  20  21
ATOM     21  C   UNL     1      -1.047  14.619  22.979  0.00  0.00    +0.000 C 
ATOM     22  O   UNL     1       0.160  14.611  22.742  0.00  0.00    +0.000 OA
ATOM     23  N   UNL     1      -1.605  15.344  24.011  0.00  0.00    +0.000 N 
ATOM     24  H   UNL     1      -2.603  15.272  24.193  0.00  0.00    +0.000 HD
BRANCH  23  25
ATOM     25  C   UNL     1      -0.789  16.132  24.904  0.00  0.00    +0.000 C 
ATOM     26  C   UNL     1      -1.085  17.624  24.820  0.00  0.00    +0.000 C 
ATOM     27  C   UNL     1      -0.406  18.178  26.065  0.00  0.00    +0.000 C 
ATOM     28  C   UNL     1      -0.463  17.054  27.103  0.00  0.00    +0.000 C 
ATOM     29  C   UNL     1      -1.037  15.836  26.379  0.00  0.00    +0.000 C 
ENDBRANCH  23  25
ENDBRANCH  20  21
ENDBRANCH  19  20
ENDBRANCH  17  19
ENDBRANCH   4  14
BRANCH   5  30
ATOM     30  N   UNL     1       1.909   7.480  21.102  0.00  0.00    +0.000 N 
ATOM     31  H   UNL     1       1.816   7.782  22.073  0.00  0.00    +0.000 HD
ATOM     32  H   UNL     1       2.679   6.822  20.986  0.00  0.00    +0.000 HD
ENDBRANCH   5  30
TORSDOF 7
ENDMDL
