MODEL 1
REMARK VINA RESULT:      -7.0      0.000      0.000
REMARK  Name = 
REMARK  6 active torsions:
REMARK  status: ('A' for Active; 'I' for Inactive)
REMARK    1  A    between atoms: C_1  and  O_2
REMARK    2  A    between atoms: O_2  and  C_3
REMARK    3  A    between atoms: C_6  and  C_7
REMARK    4  A    between atoms: C_11  and  N_12
REMARK    5  A    between atoms: C_18  and  C_19
REMARK    6  A    between atoms: C_25  and  C_26
REMARK                            x       y       z     vdW  Elec       q    Type
REMARK                         _______ _______ _______ _____ _____    ______ ____
ROOT
ATOM      1  C   UNL     1      -1.518  11.941  21.414  0.00  0.00    +0.000 C 
ATOM      2  C   UNL     1      -3.003  12.781  22.095  0.00  0.00    +0.000 A 
ATOM      3  C   UNL     1      -3.557  12.442  23.342  0.00  0.00    +0.000 A 
ATOM      4  C   UNL     1      -4.481  13.336  24.012  0.00  0.00    +0.000 A 
ATOM      5  C   UNL     1      -4.933  14.545  23.436  0.00  0.00    +0.000 A 
ATOM      6  C   UNL     1      -4.433  14.927  22.224  0.00  0.00    +0.000 A 
ATOM      7  C   UNL     1      -3.476  14.107  21.619  0.00  0.00    +0.000 A 
ATOM      8  N   UNL     1      -2.935  14.703  20.450  0.00  0.00    +0.000 N 
ATOM      9  C   UNL     1      -2.244  13.575  19.954  0.00  0.00    +0.000 C 
ATOM     10  C   UNL     1      -1.035  13.325  21.218  0.00  0.00    +0.000 C 
ATOM     11  C   UNL     1      -0.624  13.611  22.738  0.00  0.00    +0.000 C 
ATOM     12  H   UNL     1      -2.328  15.484  20.687  0.00  0.00    +0.000 HD
ENDROOT
BRANCH   1  16
ATOM     13  C   UNL     1       1.453  10.288  18.311  0.00  0.00    +0.000 A 
ATOM     14  C   UNL     1       0.340   9.585  18.759  0.00  0.00    +0.000 A 
ATOM     15  C   UNL     1      -0.645  10.203  19.573  0.00  0.00    +0.000 A 
ATOM     16  C   UNL     1      -0.530  11.546  20.062  0.00  0.00    +0.000 A 
ATOM     17  C   UNL     1       0.596  12.225  19.521  0.00  0.00    +0.000 A 
ATOM     18  C   UNL     1       1.579  11.607  18.705  0.00  0.00    +0.000 A 
BRANCH  13  20
ATOM     19  C   UNL     1       2.540   8.231  17.874  0.00  0.00    +0.000 C 
ATOM     20  O   UNL     1       2.351   9.607  17.536  0.00  0.00    +0.000 OA
ENDBRANCH  13  20
ENDBRANCH   1  16
BRANCH   9  21
ATOM     21  C   UNL     1      -3.508  12.455  19.503  0.00  0.00    +0.000 A 
ATOM     22  C   UNL     1      -3.257  11.568  18.437  0.00  0.00    +0.000 A 
ATOM     23  C   UNL     1      -4.303  10.810  17.864  0.00  0.00    +0.000 A 
ATOM     24  C   UNL     1      -5.608  10.869  18.337  0.00  0.00    +0.000 A 
ATOM     25  C   UNL     1      -5.897  11.682  19.421  0.00  0.00    +0.000 A 
ATOM     26  C   UNL     1      -4.866  12.442  19.986  0.00  0.00    +0.000 A 
ENDBRANCH   9  21
BRANCH   5  27
ATOM     27  N   UNL     1      -5.868  15.462  24.102  0.00  0.00    +0.000 N 
ATOM     28  O   UNL     1      -7.063  15.165  24.114  0.00  0.00    +0.000 OA
ATOM     29  O   UNL     1      -5.400  16.491  24.636  0.00  0.00    +0.000 OA
ENDBRANCH   5  27
TORSDOF 4
ENDMDL
MODEL 2
REMARK VINA RESULT:      -6.9      2.568      3.941
REMARK  Name = 
REMARK  6 active torsions:
REMARK  status: ('A' for Active; 'I' for Inactive)
REMARK    1  A    between atoms: C_1  and  O_2
REMARK    2  A    between atoms: O_2  and  C_3
REMARK    3  A    between atoms: C_6  and  C_7
REMARK    4  A    between atoms: C_11  and  N_12
REMARK    5  A    between atoms: C_18  and  C_19
REMARK    6  A    between atoms: C_25  and  C_26
REMARK                            x       y       z     vdW  Elec       q    Type
REMARK                         _______ _______ _______ _____ _____    ______ ____
ROOT
ATOM      1  C   UNL     1      -0.730  14.401  21.539  0.00  0.00    +0.000 C 
ATOM      2  C   UNL     1      -2.286  13.676  22.191  0.00  0.00    +0.000 A 
ATOM      3  C   UNL     1      -2.802  14.007  23.457  0.00  0.00    +0.000 A 
ATOM      4  C   UNL     1      -4.181  13.717  23.796  0.00  0.00    +0.000 A 
ATOM      5  C   UNL     1      -5.057  13.031  22.925  0.00  0.00    +0.000 A 
ATOM      6  C   UNL     1      -4.613  12.681  21.682  0.00  0.00    +0.000 A 
ATOM      7  C   UNL     1      -3.311  13.039  21.324  0.00  0.00    +0.000 A 
ATOM      8  N   UNL     1      -3.043  12.751  19.959  0.00  0.00    +0.000 N 
ATOM      9  C   UNL     1      -1.646  12.962  19.985  0.00  0.00    +0.000 C 
ATOM     10  C   UNL     1      -1.561  14.689  20.350  0.00  0.00    +0.000 C 
ATOM     11  C   UNL     1      -2.330  15.959  20.946  0.00  0.00    +0.000 C 
ATOM     12  H   UNL     1      -3.543  13.392  19.347  0.00  0.00    +0.000 HD
ENDROOT
BRANCH   1  16
ATOM     13  C   UNL     1       3.224  14.633  19.192  0.00  0.00    +0.000 A 
ATOM     14  C   UNL     1       3.051  13.852  20.329  0.00  0.00    +0.000 A 
ATOM     15  C   UNL     1       1.769  13.668  20.911  0.00  0.00    +0.000 A 
ATOM     16  C   UNL     1       0.589  14.331  20.436  0.00  0.00    +0.000 A 
ATOM     17  C   UNL     1       0.823  15.064  19.240  0.00  0.00    +0.000 A 
ATOM     18  C   UNL     1       2.104  15.244  18.659  0.00  0.00    +0.000 A 
BRANCH  13  20
ATOM     19  C   UNL     1       5.088  16.051  18.846  0.00  0.00    +0.000 C 
ATOM     20  O   UNL     1       4.496  14.757  18.707  0.00  0.00    +0.000 OA
ENDBRANCH  13  20
ENDBRANCH   1  16
BRANCH   9  21
ATOM     21  C   UNL     1      -1.029  11.667  20.983  0.00  0.00    +0.000 A 
ATOM     22  C   UNL     1      -0.471  10.544  20.339  0.00  0.00    +0.000 A 
ATOM     23  C   UNL     1      -0.176   9.367  21.063  0.00  0.00    +0.000 A 
ATOM     24  C   UNL     1      -0.383   9.266  22.433  0.00  0.00    +0.000 A 
ATOM     25  C   UNL     1      -0.876  10.361  23.124  0.00  0.00    +0.000 A 
ATOM     26  C   UNL     1      -1.178  11.526  22.409  0.00  0.00    +0.000 A 
ENDBRANCH   9  21
BRANCH   5  27
ATOM     27  N   UNL     1      -6.458  12.730  23.254  0.00  0.00    +0.000 N 
ATOM     28  O   UNL     1      -7.055  11.913  22.553  0.00  0.00    +0.000 OA
ATOM     29  O   UNL     1      -6.967  13.309  24.237  0.00  0.00    +0.000 OA
ENDBRANCH   5  27
TORSDOF 4
ENDMDL
MODEL 3
REMARK VINA RESULT:      -6.7      3.607      6.981
REMARK  Name = 
REMARK  6 active torsions:
REMARK  status: ('A' for Active; 'I' for Inactive)
REMARK    1  A    between atoms: C_1  and  O_2
REMARK    2  A    between atoms: O_2  and  C_3
REMARK    3  A    between atoms: C_6  and  C_7
REMARK    4  A    between atoms: C_11  and  N_12
REMARK    5  A    between atoms: C_18  and  C_19
REMARK    6  A    between atoms: C_25  and  C_26
REMARK                            x       y       z     vdW  Elec       q    Type
REMARK                         _______ _______ _______ _____ _____    ______ ____
ROOT
ATOM      1  C   UNL     1      -0.772  12.908  18.499  0.00  0.00    +0.000 C 
ATOM      2  C   UNL     1       0.980  13.127  19.007  0.00  0.00    +0.000 A 
ATOM      3  C   UNL     1       1.946  13.699  18.161  0.00  0.00    +0.000 A 
ATOM      4  C   UNL     1       3.202  14.189  18.693  0.00  0.00    +0.000 A 
ATOM      5  C   UNL     1       3.563  14.059  20.053  0.00  0.00    +0.000 A 
ATOM      6  C   UNL     1       2.666  13.509  20.924  0.00  0.00    +0.000 A 
ATOM      7  C   UNL     1       1.421  13.117  20.426  0.00  0.00    +0.000 A 
ATOM      8  N   UNL     1       0.542  12.711  21.466  0.00  0.00    +0.000 N 
ATOM      9  C   UNL     1      -0.473  12.150  20.658  0.00  0.00    +0.000 C 
ATOM     10  C   UNL     1      -1.052  13.575  19.789  0.00  0.00    +0.000 C 
ATOM     11  C   UNL     1      -0.723  15.068  19.318  0.00  0.00    +0.000 C 
ATOM     12  H   UNL     1       0.234  13.510  22.014  0.00  0.00    +0.000 HD
ENDROOT
BRANCH   1  16
ATOM     13  C   UNL     1      -5.031  11.169  18.331  0.00  0.00    +0.000 A 
ATOM     14  C   UNL     1      -3.995  10.744  17.507  0.00  0.00    +0.000 A 
ATOM     15  C   UNL     1      -2.659  11.175  17.718  0.00  0.00    +0.000 A 
ATOM     16  C   UNL     1      -2.292  12.134  18.720  0.00  0.00    +0.000 A 
ATOM     17  C   UNL     1      -3.384  12.481  19.562  0.00  0.00    +0.000 A 
ATOM     18  C   UNL     1      -4.718  12.048  19.351  0.00  0.00    +0.000 A 
BRANCH  13  20
ATOM     19  C   UNL     1      -6.950  10.026  19.114  0.00  0.00    +0.000 C 
ATOM     20  O   UNL     1      -6.285  10.705  18.046  0.00  0.00    +0.000 OA
ENDBRANCH  13  20
ENDBRANCH   1  16
BRANCH   9  21
ATOM     21  C   UNL     1       0.271  10.740  19.943  0.00  0.00    +0.000 A 
ATOM     22  C   UNL     1       0.584   9.656  20.788  0.00  0.00    +0.000 A 
ATOM     23  C   UNL     1       1.396   8.593  20.333  0.00  0.00    +0.000 A 
ATOM     24  C   UNL     1       1.892   8.541  19.036  0.00  0.00    +0.000 A 
ATOM     25  C   UNL     1       1.566   9.552  18.147  0.00  0.00    +0.000 A 
ATOM     26  C   UNL     1       0.770  10.612  18.597  0.00  0.00    +0.000 A 
ENDBRANCH   9  21
BRANCH   5  27
ATOM     27  N   UNL     1       4.832  14.551  20.608  0.00  0.00    +0.000 N 
ATOM     28  O   UNL     1       5.544  15.254  19.891  0.00  0.00    +0.000 OA
ATOM     29  O   UNL     1       5.116  14.242  21.785  0.00  0.00    +0.000 OA
ENDBRANCH   5  27
TORSDOF 4
ENDMDL
MODEL 4
REMARK VINA RESULT:      -6.7      2.671      3.711
REMARK  Name = 
REMARK  6 active torsions:
REMARK  status: ('A' for Active; 'I' for Inactive)
REMARK    1  A    between atoms: C_1  and  O_2
REMARK    2  A    between atoms: O_2  and  C_3
REMARK    3  A    between atoms: C_6  and  C_7
REMARK    4  A    between atoms: C_11  and  N_12
REMARK    5  A    between atoms: C_18  and  C_19
REMARK    6  A    between atoms: C_25  and  C_26
REMARK                            x       y       z     vdW  Elec       q    Type
REMARK                         _______ _______ _______ _____ _____    ______ ____
ROOT
ATOM      1  C   UNL     1       0.621  13.602  21.250  0.00  0.00    +0.000 C 
ATOM      2  C   UNL     1      -1.021  12.971  21.782  0.00  0.00    +0.000 A 
ATOM      3  C   UNL     1      -1.197  12.222  22.958  0.00  0.00    +0.000 A 
ATOM      4  C   UNL     1      -2.514  12.051  23.539  0.00  0.00    +0.000 A 
ATOM      5  C   UNL     1      -3.690  12.551  22.936  0.00  0.00    +0.000 A 
ATOM      6  C   UNL     1      -3.583  13.285  21.789  0.00  0.00    +0.000 A 
ATOM      7  C   UNL     1      -2.305  13.523  21.277  0.00  0.00    +0.000 A 
ATOM      8  N   UNL     1      -2.337  14.424  20.180  0.00  0.00    +0.000 N 
ATOM      9  C   UNL     1      -1.004  14.252  19.745  0.00  0.00    +0.000 C 
ATOM     10  C   UNL     1      -0.102  14.886  21.126  0.00  0.00    +0.000 C 
ATOM     11  C   UNL     1      -0.140  15.246  22.684  0.00  0.00    +0.000 C 
ATOM     12  H   UNL     1      -2.547  15.370  20.492  0.00  0.00    +0.000 HD
ENDROOT
BRANCH   1  16
ATOM     13  C   UNL     1       3.961  14.773  18.307  0.00  0.00    +0.000 A 
ATOM     14  C   UNL     1       3.428  13.492  18.392  0.00  0.00    +0.000 A 
ATOM     15  C   UNL     1       2.278  13.222  19.180  0.00  0.00    +0.000 A 
ATOM     16  C   UNL     1       1.642  14.208  20.005  0.00  0.00    +0.000 A 
ATOM     17  C   UNL     1       2.198  15.504  19.826  0.00  0.00    +0.000 A 
ATOM     18  C   UNL     1       3.345  15.773  19.036  0.00  0.00    +0.000 A 
BRANCH  13  20
ATOM     19  C   UNL     1       6.292  15.182  18.234  0.00  0.00    +0.000 C 
ATOM     20  O   UNL     1       5.073  14.935  17.528  0.00  0.00    +0.000 OA
ENDBRANCH  13  20
ENDBRANCH   1  16
BRANCH   9  21
ATOM     21  C   UNL     1      -0.951  12.611  19.146  0.00  0.00    +0.000 A 
ATOM     22  C   UNL     1      -1.601  12.330  17.927  0.00  0.00    +0.000 A 
ATOM     23  C   UNL     1      -1.806  10.996  17.507  0.00  0.00    +0.000 A 
ATOM     24  C   UNL     1      -1.354   9.908  18.243  0.00  0.00    +0.000 A 
ATOM     25  C   UNL     1      -0.659  10.131  19.420  0.00  0.00    +0.000 A 
ATOM     26  C   UNL     1      -0.461  11.449  19.845  0.00  0.00    +0.000 A 
ENDBRANCH   9  21
BRANCH   5  27
ATOM     27  N   UNL     1      -5.032  12.387  23.513  0.00  0.00    +0.000 N 
ATOM     28  O   UNL     1      -5.120  12.147  24.717  0.00  0.00    +0.000 OA
ATOM     29  O   UNL     1      -6.016  12.514  22.753  0.00  0.00    +0.000 OA
ENDBRANCH   5  27
TORSDOF 4
ENDMDL
MODEL 5
REMARK VINA RESULT:      -6.6      2.780      4.180
REMARK  Name = 
REMARK  6 active torsions:
REMARK  status: ('A' for Active; 'I' for Inactive)
REMARK    1  A    between atoms: C_1  and  O_2
REMARK    2  A    between atoms: O_2  and  C_3
REMARK    3  A    between atoms: C_6  and  C_7
REMARK    4  A    between atoms: C_11  and  N_12
REMARK    5  A    between atoms: C_18  and  C_19
REMARK    6  A    between atoms: C_25  and  C_26
REMARK                            x       y       z     vdW  Elec       q    Type
REMARK                         _______ _______ _______ _____ _____    ______ ____
ROOT
ATOM      1  C   UNL     1       0.259  14.420  21.244  0.00  0.00    +0.000 C 
ATOM      2  C   UNL     1      -1.215  13.573  21.940  0.00  0.00    +0.000 A 
ATOM      3  C   UNL     1      -1.505  13.570  23.316  0.00  0.00    +0.000 A 
ATOM      4  C   UNL     1      -2.828  13.223  23.794  0.00  0.00    +0.000 A 
ATOM      5  C   UNL     1      -3.869  12.800  22.937  0.00  0.00    +0.000 A 
ATOM      6  C   UNL     1      -3.646  12.779  21.590  0.00  0.00    +0.000 A 
ATOM      7  C   UNL     1      -2.398  13.199  21.122  0.00  0.00    +0.000 A 
ATOM      8  N   UNL     1      -2.364  13.273  19.704  0.00  0.00    +0.000 N 
ATOM      9  C   UNL     1      -0.971  13.449  19.550  0.00  0.00    +0.000 C 
ATOM     10  C   UNL     1      -0.731  15.020  20.323  0.00  0.00    +0.000 C 
ATOM     11  C   UNL     1      -1.323  16.102  21.342  0.00  0.00    +0.000 C 
ATOM     12  H   UNL     1      -2.917  14.059  19.368  0.00  0.00    +0.000 HD
ENDROOT
BRANCH   1  16
ATOM     13  C   UNL     1       3.764  15.298  18.392  0.00  0.00    +0.000 A 
ATOM     14  C   UNL     1       3.810  14.331  19.390  0.00  0.00    +0.000 A 
ATOM     15  C   UNL     1       2.648  13.969  20.121  0.00  0.00    +0.000 A 
ATOM     16  C   UNL     1       1.381  14.620  19.956  0.00  0.00    +0.000 A 
ATOM     17  C   UNL     1       1.389  15.554  18.883  0.00  0.00    +0.000 A 
ATOM     18  C   UNL     1       2.550  15.913  18.152  0.00  0.00    +0.000 A 
BRANCH  13  20
ATOM     19  C   UNL     1       5.943  14.573  17.817  0.00  0.00    +0.000 C 
ATOM     20  O   UNL     1       4.935  15.584  17.746  0.00  0.00    +0.000 OA
ENDBRANCH  13  20
ENDBRANCH   1  16
BRANCH   9  21
ATOM     21  C   UNL     1      -0.281  11.930  20.068  0.00  0.00    +0.000 A 
ATOM     22  C   UNL     1       0.630  11.288  19.205  0.00  0.00    +0.000 A 
ATOM     23  C   UNL     1       1.039   9.956  19.444  0.00  0.00    +0.000 A 
ATOM     24  C   UNL     1       0.601   9.232  20.546  0.00  0.00    +0.000 A 
ATOM     25  C   UNL     1      -0.249   9.836  21.456  0.00  0.00    +0.000 A 
ATOM     26  C   UNL     1      -0.664  11.152  21.219  0.00  0.00    +0.000 A 
ENDBRANCH   9  21
BRANCH   5  27
ATOM     27  N   UNL     1      -5.216  12.445  23.406  0.00  0.00    +0.000 N 
ATOM     28  O   UNL     1      -5.364  12.188  24.601  0.00  0.00    +0.000 OA
ATOM     29  O   UNL     1      -6.145  12.436  22.570  0.00  0.00    +0.000 OA
ENDBRANCH   5  27
TORSDOF 4
ENDMDL
MODEL 6
REMARK VINA RESULT:      -6.5     10.558     12.921
REMARK  Name = 
REMARK  6 active torsions:
REMARK  status: ('A' for Active; 'I' for Inactive)
REMARK    1  A    between atoms: C_1  and  O_2
REMARK    2  A    between atoms: O_2  and  C_3
REMARK    3  A    between atoms: C_6  and  C_7
REMARK    4  A    between atoms: C_11  and  N_12
REMARK    5  A    between atoms: C_18  and  C_19
REMARK    6  A    between atoms: C_25  and  C_26
REMARK                            x       y       z     vdW  Elec       q    Type
REMARK                         _______ _______ _______ _____ _____    ______ ____
ROOT
ATOM      1  C   UNL     1       7.453  13.815  21.753  0.00  0.00    +0.000 C 
ATOM      2  C   UNL     1       8.321  14.611  20.343  0.00  0.00    +0.000 A 
ATOM      3  C   UNL     1       7.655  15.006  19.171  0.00  0.00    +0.000 A 
ATOM      4  C   UNL     1       8.267  15.938  18.246  0.00  0.00    +0.000 A 
ATOM      5  C   UNL     1       9.576  16.443  18.419  0.00  0.00    +0.000 A 
ATOM      6  C   UNL     1      10.275  16.094  19.538  0.00  0.00    +0.000 A 
ATOM      7  C   UNL     1       9.650  15.264  20.473  0.00  0.00    +0.000 A 
ATOM      8  N   UNL     1      10.432  15.114  21.649  0.00  0.00    +0.000 N 
ATOM      9  C   UNL     1       9.695  14.064  22.242  0.00  0.00    +0.000 C 
ATOM     10  C   UNL     1       8.144  14.855  22.546  0.00  0.00    +0.000 C 
ATOM     11  C   UNL     1       7.178  16.072  22.166  0.00  0.00    +0.000 C 
ATOM     12  H   UNL     1      10.434  15.972  22.196  0.00  0.00    +0.000 HD
ENDROOT
BRANCH   1  16
ATOM     13  C   UNL     1       6.876  11.640  25.769  0.00  0.00    +0.000 A 
ATOM     14  C   UNL     1       6.103  11.388  24.641  0.00  0.00    +0.000 A 
ATOM     15  C   UNL     1       6.435  11.946  23.378  0.00  0.00    +0.000 A 
ATOM     16  C   UNL     1       7.517  12.867  23.187  0.00  0.00    +0.000 A 
ATOM     17  C   UNL     1       8.300  13.035  24.363  0.00  0.00    +0.000 A 
ATOM     18  C   UNL     1       7.968  12.474  25.623  0.00  0.00    +0.000 A 
BRANCH  13  20
ATOM     19  C   UNL     1       5.098  10.683  27.005  0.00  0.00    +0.000 C 
ATOM     20  O   UNL     1       6.475  11.064  26.942  0.00  0.00    +0.000 OA
ENDBRANCH  13  20
ENDBRANCH   1  16
BRANCH   9  21
ATOM     21  C   UNL     1       9.964  12.696  21.188  0.00  0.00    +0.000 A 
ATOM     22  C   UNL     1      11.133  12.688  20.400  0.00  0.00    +0.000 A 
ATOM     23  C   UNL     1      11.298  11.746  19.360  0.00  0.00    +0.000 A 
ATOM     24  C   UNL     1      10.348  10.770  19.085  0.00  0.00    +0.000 A 
ATOM     25  C   UNL     1       9.208  10.698  19.867  0.00  0.00    +0.000 A 
ATOM     26  C   UNL     1       9.036  11.634  20.893  0.00  0.00    +0.000 A 
ENDBRANCH   9  21
BRANCH   5  27
ATOM     27  N   UNL     1      10.211  17.390  17.491  0.00  0.00    +0.000 N 
ATOM     28  O   UNL     1      11.092  16.966  16.743  0.00  0.00    +0.000 OA
ATOM     29  O   UNL     1       9.813  18.575  17.499  0.00  0.00    +0.000 OA
ENDBRANCH   5  27
TORSDOF 4
ENDMDL
MODEL 7
REMARK VINA RESULT:      -6.4      3.384      4.940
REMARK  Name = 
REMARK  6 active torsions:
REMARK  status: ('A' for Active; 'I' for Inactive)
REMARK    1  A    between atoms: C_1  and  O_2
REMARK    2  A    between atoms: O_2  and  C_3
REMARK    3  A    between atoms: C_6  and  C_7
REMARK    4  A    between atoms: C_11  and  N_12
REMARK    5  A    between atoms: C_18  and  C_19
REMARK    6  A    between atoms: C_25  and  C_26
REMARK                            x       y       z     vdW  Elec       q    Type
REMARK                         _______ _______ _______ _____ _____    ______ ____
ROOT
ATOM      1  C   UNL     1       1.506  11.931  19.994  0.00  0.00    +0.000 C 
ATOM      2  C   UNL     1       0.781  13.614  19.874  0.00  0.00    +0.000 A 
ATOM      3  C   UNL     1       1.353  14.730  20.509  0.00  0.00    +0.000 A 
ATOM      4  C   UNL     1       0.989  16.077  20.115  0.00  0.00    +0.000 A 
ATOM      5  C   UNL     1       0.003  16.352  19.141  0.00  0.00    +0.000 A 
ATOM      6  C   UNL     1      -0.590  15.308  18.490  0.00  0.00    +0.000 A 
ATOM      7  C   UNL     1      -0.176  14.012  18.809  0.00  0.00    +0.000 A 
ATOM      8  N   UNL     1      -0.762  13.046  17.949  0.00  0.00    +0.000 N 
ATOM      9  C   UNL     1      -0.380  11.889  18.664  0.00  0.00    +0.000 C 
ATOM     10  C   UNL     1       1.380  11.956  18.521  0.00  0.00    +0.000 C 
ATOM     11  C   UNL     1       2.654  12.878  18.226  0.00  0.00    +0.000 C 
ATOM     12  H   UNL     1      -0.362  13.100  17.015  0.00  0.00    +0.000 HD
ENDROOT
BRANCH   1  16
ATOM     13  C   UNL     1       1.676   7.333  20.144  0.00  0.00    +0.000 A 
ATOM     14  C   UNL     1       1.275   8.122  21.216  0.00  0.00    +0.000 A 
ATOM     15  C   UNL     1       1.061   9.517  21.067  0.00  0.00    +0.000 A 
ATOM     16  C   UNL     1       1.324  10.226  19.849  0.00  0.00    +0.000 A 
ATOM     17  C   UNL     1       1.673   9.355  18.780  0.00  0.00    +0.000 A 
ATOM     18  C   UNL     1       1.883   7.960  18.930  0.00  0.00    +0.000 A 
BRANCH  13  20
ATOM     19  C   UNL     1       3.003   5.411  19.757  0.00  0.00    +0.000 C 
ATOM     20  O   UNL     1       1.861   6.000  20.385  0.00  0.00    +0.000 OA
ENDBRANCH  13  20
ENDBRANCH   1  16
BRANCH   9  21
ATOM     21  C   UNL     1      -1.296  11.975  20.150  0.00  0.00    +0.000 A 
ATOM     22  C   UNL     1      -2.660  12.321  20.067  0.00  0.00    +0.000 A 
ATOM     23  C   UNL     1      -3.397  12.643  21.229  0.00  0.00    +0.000 A 
ATOM     24  C   UNL     1      -2.836  12.602  22.499  0.00  0.00    +0.000 A 
ATOM     25  C   UNL     1      -1.515  12.212  22.642  0.00  0.00    +0.000 A 
ATOM     26  C   UNL     1      -0.778  11.900  21.493  0.00  0.00    +0.000 A 
ENDBRANCH   9  21
BRANCH   5  27
ATOM     27  N   UNL     1      -0.376  17.711  18.729  0.00  0.00    +0.000 N 
ATOM     28  O   UNL     1      -0.800  17.873  17.585  0.00  0.00    +0.000 OA
ATOM     29  O   UNL     1      -0.262  18.631  19.567  0.00  0.00    +0.000 OA
ENDBRANCH   5  27
TORSDOF 4
ENDMDL
MODEL 8
REMARK VINA RESULT:      -6.3      2.557      3.507
REMARK  Name = 
REMARK  6 active torsions:
REMARK  status: ('A' for Active; 'I' for Inactive)
REMARK    1  A    between atoms: C_1  and  O_2
REMARK    2  A    between atoms: O_2  and  C_3
REMARK    3  A    between atoms: C_6  and  C_7
REMARK    4  A    between atoms: C_11  and  N_12
REMARK    5  A    between atoms: C_18  and  C_19
REMARK    6  A    between atoms: C_25  and  C_26
REMARK                            x       y       z     vdW  Elec       q    Type
REMARK                         _______ _______ _______ _____ _____    ______ ____
ROOT
ATOM      1  C   UNL     1       0.368  11.160  20.451  0.00  0.00    +0.000 C 
ATOM      2  C   UNL     1      -0.583  12.731  20.468  0.00  0.00    +0.000 A 
ATOM      3  C   UNL     1      -1.064  13.311  21.655  0.00  0.00    +0.000 A 
ATOM      4  C   UNL     1      -1.481  14.699  21.688  0.00  0.00    +0.000 A 
ATOM      5  C   UNL     1      -1.503  15.521  20.539  0.00  0.00    +0.000 A 
ATOM      6  C   UNL     1      -1.050  15.014  19.355  0.00  0.00    +0.000 A 
ATOM      7  C   UNL     1      -0.566  13.703  19.343  0.00  0.00    +0.000 A 
ATOM      8  N   UNL     1       0.012  13.366  18.090  0.00  0.00    +0.000 N 
ATOM      9  C   UNL     1       0.148  11.976  18.303  0.00  0.00    +0.000 C 
ATOM     10  C   UNL     1       1.317  11.941  19.628  0.00  0.00    +0.000 C 
ATOM     11  C   UNL     1       1.993  12.760  20.825  0.00  0.00    +0.000 C 
ATOM     12  H   UNL     1       0.897  13.849  17.957  0.00  0.00    +0.000 HD
ENDROOT
BRANCH   1  16
ATOM     13  C   UNL     1       2.576   7.524  18.692  0.00  0.00    +0.000 A 
ATOM     14  C   UNL     1       1.958   7.518  19.937  0.00  0.00    +0.000 A 
ATOM     15  C   UNL     1       1.134   8.595  20.358  0.00  0.00    +0.000 A 
ATOM     16  C   UNL     1       0.951   9.791  19.587  0.00  0.00    +0.000 A 
ATOM     17  C   UNL     1       1.560   9.707  18.305  0.00  0.00    +0.000 A 
ATOM     18  C   UNL     1       2.379   8.629  17.885  0.00  0.00    +0.000 A 
BRANCH  13  20
ATOM     19  C   UNL     1       3.663   5.567  19.461  0.00  0.00    +0.000 C 
ATOM     20  O   UNL     1       3.354   6.445  18.376  0.00  0.00    +0.000 OA
ENDBRANCH  13  20
ENDBRANCH   1  16
BRANCH   9  21
ATOM     21  C   UNL     1      -1.494  11.383  18.363  0.00  0.00    +0.000 A 
ATOM     22  C   UNL     1      -1.778  10.155  17.731  0.00  0.00    +0.000 A 
ATOM     23  C   UNL     1      -3.112   9.735  17.531  0.00  0.00    +0.000 A 
ATOM     24  C   UNL     1      -4.199  10.480  17.972  0.00  0.00    +0.000 A 
ATOM     25  C   UNL     1      -3.974  11.666  18.650  0.00  0.00    +0.000 A 
ATOM     26  C   UNL     1      -2.654  12.090  18.843  0.00  0.00    +0.000 A 
ENDBRANCH   9  21
BRANCH   5  27
ATOM     27  N   UNL     1      -1.922  16.930  20.556  0.00  0.00    +0.000 N 
ATOM     28  O   UNL     1      -1.693  17.615  19.559  0.00  0.00    +0.000 OA
ATOM     29  O   UNL     1      -2.503  17.357  21.577  0.00  0.00    +0.000 OA
ENDBRANCH   5  27
TORSDOF 4
ENDMDL
MODEL 9
REMARK VINA RESULT:      -6.3      3.150      7.046
REMARK  Name = 
REMARK  6 active torsions:
REMARK  status: ('A' for Active; 'I' for Inactive)
REMARK    1  A    between atoms: C_1  and  O_2
REMARK    2  A    between atoms: O_2  and  C_3
REMARK    3  A    between atoms: C_6  and  C_7
REMARK    4  A    between atoms: C_11  and  N_12
REMARK    5  A    between atoms: C_18  and  C_19
REMARK    6  A    between atoms: C_25  and  C_26
REMARK                            x       y       z     vdW  Elec       q    Type
REMARK                         _______ _______ _______ _____ _____    ______ ____
ROOT
ATOM      1  C   UNL     1      -1.888  14.915  21.074  0.00  0.00    +0.000 C 
ATOM      2  C   UNL     1      -0.419  15.061  19.980  0.00  0.00    +0.000 A 
ATOM      3  C   UNL     1      -0.350  15.989  18.927  0.00  0.00    +0.000 A 
ATOM      4  C   UNL     1       0.921  16.335  18.324  0.00  0.00    +0.000 A 
ATOM      5  C   UNL     1       2.139  15.722  18.694  0.00  0.00    +0.000 A 
ATOM      6  C   UNL     1       2.136  14.810  19.710  0.00  0.00    +0.000 A 
ATOM      7  C   UNL     1       0.923  14.541  20.350  0.00  0.00    +0.000 A 
ATOM      8  N   UNL     1       1.100  13.698  21.479  0.00  0.00    +0.000 N 
ATOM      9  C   UNL     1      -0.262  13.412  21.726  0.00  0.00    +0.000 C 
ATOM     10  C   UNL     1      -0.882  15.010  22.154  0.00  0.00    +0.000 C 
ATOM     11  C   UNL     1      -0.648  16.591  22.071  0.00  0.00    +0.000 C 
ATOM     12  H   UNL     1       1.557  14.198  22.239  0.00  0.00    +0.000 HD
ENDROOT
BRANCH   1  16
ATOM     13  C   UNL     1      -5.025  12.894  23.769  0.00  0.00    +0.000 A 
ATOM     14  C   UNL     1      -4.949  12.692  22.396  0.00  0.00    +0.000 A 
ATOM     15  C   UNL     1      -3.857  13.188  21.636  0.00  0.00    +0.000 A 
ATOM     16  C   UNL     1      -2.813  13.996  22.197  0.00  0.00    +0.000 A 
ATOM     17  C   UNL     1      -2.918  14.113  23.610  0.00  0.00    +0.000 A 
ATOM     18  C   UNL     1      -4.008  13.615  24.368  0.00  0.00    +0.000 A 
BRANCH  13  20
ATOM     19  C   UNL     1      -7.384  12.870  23.966  0.00  0.00    +0.000 C 
ATOM     20  O   UNL     1      -6.117  12.384  24.416  0.00  0.00    +0.000 OA
ENDBRANCH  13  20
ENDBRANCH   1  16
BRANCH   9  21
ATOM     21  C   UNL     1      -0.758  12.449  20.354  0.00  0.00    +0.000 A 
ATOM     22  C   UNL     1      -0.572  11.053  20.423  0.00  0.00    +0.000 A 
ATOM     23  C   UNL     1      -0.722  10.245  19.274  0.00  0.00    +0.000 A 
ATOM     24  C   UNL     1      -1.091  10.768  18.042  0.00  0.00    +0.000 A 
ATOM     25  C   UNL     1      -1.342  12.125  17.932  0.00  0.00    +0.000 A 
ATOM     26  C   UNL     1      -1.186  12.932  19.066  0.00  0.00    +0.000 A 
ENDBRANCH   9  21
BRANCH   5  27
ATOM     27  N   UNL     1       3.436  16.062  18.093  0.00  0.00    +0.000 N 
ATOM     28  O   UNL     1       3.791  17.241  18.109  0.00  0.00    +0.000 OA
ATOM     29  O   UNL     1       4.120  15.135  17.609  0.00  0.00    +0.000 OA
ENDBRANCH   5  27
TORSDOF 4
ENDMDL
