MODEL 1
REMARK VINA RESULT:      -9.4      0.000      0.000
REMARK  Name = 
REMARK  9 active torsions:
REMARK  status: ('A' for Active; 'I' for Inactive)
REMARK    1  A    between atoms: N_1  and  C_2
REMARK    2  A    between atoms: N_7  and  C_8
REMARK    3  A    between atoms: C_11  and  O_12
REMARK    4  A    between atoms: O_12  and  C_13
REMARK    5  A    between atoms: C_13  and  C_14
REMARK    6  A    between atoms: C_23  and  C_24
REMARK    7  A    between atoms: C_24  and  O_26
REMARK    8  A    between atoms: O_26  and  C_27
REMARK    9  A    between atoms: C_27  and  C_28
REMARK                            x       y       z     vdW  Elec       q    Type
REMARK                         _______ _______ _______ _____ _____    ______ ____
ROOT
ATOM      1  C   UNL     1       2.602   2.337  18.917  0.00  0.00    +0.000 A 
ATOM      2  N   UNL     1       1.281   2.124  18.804  0.00  0.00    +0.000 NA
ATOM      3  C   UNL     1       0.493   3.069  19.305  0.00  0.00    +0.000 A 
ATOM      4  N   UNL     1       0.915   4.206  19.854  0.00  0.00    +0.000 NA
ATOM      5  C   UNL     1       2.244   4.439  19.939  0.00  0.00    +0.000 A 
ATOM      6  N   UNL     1       2.665   5.752  20.263  0.00  0.00    +0.000 N 
ATOM      7  C   UNL     1       3.148   3.464  19.534  0.00  0.00    +0.000 A 
ATOM      8  H   UNL     1       3.635   5.837  20.555  0.00  0.00    +0.000 HD
ENDROOT
BRANCH   6   9
ATOM      9  C   UNL     1       1.945   6.951  20.107  0.00  0.00    +0.000 A 
ATOM     10  C   UNL     1       2.105   7.763  18.980  0.00  0.00    +0.000 A 
ATOM     11  C   UNL     1       1.631   9.067  18.937  0.00  0.00    +0.000 A 
ATOM     12  C   UNL     1       0.902   9.587  20.001  0.00  0.00    +0.000 A 
ATOM     13  C   UNL     1       0.689   8.775  21.124  0.00  0.00    +0.000 A 
ATOM     14 CL   UNL     1      -0.187   9.360  22.496  0.00  0.00    +0.000 Cl
ATOM     15  C   UNL     1       1.203   7.468  21.175  0.00  0.00    +0.000 A 
BRANCH  12  16
ATOM     16  O   UNL     1       0.390  10.861  19.996  0.00  0.00    +0.000 OA
BRANCH  16  17
ATOM     17  C   UNL     1       0.061  11.369  18.700  0.00  0.00    +0.000 C 
BRANCH  17  18
ATOM     18  C   UNL     1      -1.349  11.045  18.283  0.00  0.00    +0.000 A 
ATOM     19  C   UNL     1      -1.645  10.054  17.344  0.00  0.00    +0.000 A 
ATOM     20  C   UNL     1      -2.966   9.838  16.948  0.00  0.00    +0.000 A 
ATOM     21  C   UNL     1      -3.996  10.601  17.499  0.00  0.00    +0.000 A 
ATOM     22  C   UNL     1      -3.714  11.569  18.459  0.00  0.00    +0.000 A 
ATOM     23  C   UNL     1      -2.397  11.785  18.854  0.00  0.00    +0.000 A 
ENDBRANCH  17  18
ENDBRANCH  16  17
ENDBRANCH  12  16
ENDBRANCH   6   9
BRANCH   1  24
ATOM     24  N   UNL     1       3.366   1.289  18.412  0.00  0.00    +0.000 N 
ATOM     25  H   UNL     1       3.046   1.092  17.467  0.00  0.00    +0.000 HD
ATOM     26  H   UNL     1       4.367   1.480  18.466  0.00  0.00    +0.000 HD
ENDBRANCH   1  24
BRANCH   7  27
ATOM     27  C   UNL     1       4.613   3.586  19.690  0.00  0.00    +0.000 C 
ATOM     28  O   UNL     1       5.360   2.646  19.909  0.00  0.00    +0.000 OA
BRANCH  27  29
ATOM     29  O   UNL     1       4.981   4.894  19.636  0.00  0.00    +0.000 OA
BRANCH  29  30
ATOM     30  C   UNL     1       6.258   5.152  19.032  0.00  0.00    +0.000 C 
BRANCH  30  31
ATOM     31  C   UNL     1       6.163   5.220  17.530  0.00  0.00    +0.000 A 
ATOM     32  C   UNL     1       6.859   4.295  16.735  0.00  0.00    +0.000 A 
ATOM     33  C   UNL     1       6.787   4.356  15.341  0.00  0.00    +0.000 A 
ATOM     34  C   UNL     1       6.015   5.340  14.730  0.00  0.00    +0.000 A 
ATOM     35  C   UNL     1       5.325   6.255  15.516  0.00  0.00    +0.000 A 
ATOM     36  F   UNL     1       4.582   7.201  14.929  0.00  0.00    +0.000 F 
ATOM     37  C   UNL     1       5.393   6.208  16.905  0.00  0.00    +0.000 A 
ENDBRANCH  30  31
ENDBRANCH  29  30
ENDBRANCH  27  29
ENDBRANCH   7  27
TORSDOF 9
ENDMDL
MODEL 2
REMARK VINA RESULT:      -9.1      1.184      1.634
REMARK  Name = 
REMARK  9 active torsions:
REMARK  status: ('A' for Active; 'I' for Inactive)
REMARK    1  A    between atoms: N_1  and  C_2
REMARK    2  A    between atoms: N_7  and  C_8
REMARK    3  A    between atoms: C_11  and  O_12
REMARK    4  A    between atoms: O_12  and  C_13
REMARK    5  A    between atoms: C_13  and  C_14
REMARK    6  A    between atoms: C_23  and  C_24
REMARK    7  A    between atoms: C_24  and  O_26
REMARK    8  A    between atoms: O_26  and  C_27
REMARK    9  A    between atoms: C_27  and  C_28
REMARK                            x       y       z     vdW  Elec       q    Type
REMARK                         _______ _______ _______ _____ _____    ______ ____
ROOT
ATOM      1  C   UNL     1       2.612   2.680  19.168  0.00  0.00    +0.000 A 
ATOM      2  N   UNL     1       1.350   2.404  19.533  0.00  0.00    +0.000 NA
ATOM      3  C   UNL     1       0.694   3.380  20.151  0.00  0.00    +0.000 A 
ATOM      4  N   UNL     1       1.176   4.599  20.383  0.00  0.00    +0.000 NA
ATOM      5  C   UNL     1       2.435   4.892  19.987  0.00  0.00    +0.000 A 
ATOM      6  N   UNL     1       2.828   6.253  19.987  0.00  0.00    +0.000 N 
ATOM      7  C   UNL     1       3.234   3.904  19.423  0.00  0.00    +0.000 A 
ATOM      8  H   UNL     1       3.829   6.415  19.924  0.00  0.00    +0.000 HD
ENDROOT
BRANCH   6   9
ATOM      9  C   UNL     1       1.999   7.388  19.938  0.00  0.00    +0.000 A 
ATOM     10  C   UNL     1       1.924   8.195  18.798  0.00  0.00    +0.000 A 
ATOM     11  C   UNL     1       1.346   9.456  18.824  0.00  0.00    +0.000 A 
ATOM     12  C   UNL     1       0.744   9.932  19.983  0.00  0.00    +0.000 A 
ATOM     13  C   UNL     1       0.765   9.122  21.127  0.00  0.00    +0.000 A 
ATOM     14 CL   UNL     1       0.059   9.655  22.613  0.00  0.00    +0.000 Cl
ATOM     15  C   UNL     1       1.385   7.860  21.104  0.00  0.00    +0.000 A 
BRANCH  12  16
ATOM     16  O   UNL     1       0.136  11.161  20.052  0.00  0.00    +0.000 OA
BRANCH  16  17
ATOM     17  C   UNL     1      -0.257  11.707  18.789  0.00  0.00    +0.000 C 
BRANCH  17  18
ATOM     18  C   UNL     1      -1.685  11.391  18.434  0.00  0.00    +0.000 A 
ATOM     19  C   UNL     1      -2.768  12.061  19.009  0.00  0.00    +0.000 A 
ATOM     20  C   UNL     1      -4.073  11.684  18.691  0.00  0.00    +0.000 A 
ATOM     21  C   UNL     1      -4.302  10.648  17.785  0.00  0.00    +0.000 A 
ATOM     22  C   UNL     1      -3.230   9.996  17.182  0.00  0.00    +0.000 A 
ATOM     23  C   UNL     1      -1.927  10.370  17.501  0.00  0.00    +0.000 A 
ENDBRANCH  17  18
ENDBRANCH  16  17
ENDBRANCH  12  16
ENDBRANCH   6   9
BRANCH   1  24
ATOM     24  N   UNL     1       3.253   1.601  18.567  0.00  0.00    +0.000 N 
ATOM     25  H   UNL     1       3.075   1.645  17.567  0.00  0.00    +0.000 HD
ATOM     26  H   UNL     1       4.246   1.565  18.797  0.00  0.00    +0.000 HD
ENDBRANCH   1  24
BRANCH   7  27
ATOM     27  C   UNL     1       4.653   4.102  19.061  0.00  0.00    +0.000 C 
ATOM     28  O   UNL     1       5.570   3.412  19.476  0.00  0.00    +0.000 OA
BRANCH  27  29
ATOM     29  O   UNL     1       4.785   5.204  18.276  0.00  0.00    +0.000 OA
BRANCH  29  30
ATOM     30  C   UNL     1       4.227   5.093  16.956  0.00  0.00    +0.000 C 
BRANCH  30  31
ATOM     31  C   UNL     1       5.294   4.878  15.915  0.00  0.00    +0.000 A 
ATOM     32  C   UNL     1       6.571   5.438  16.086  0.00  0.00    +0.000 A 
ATOM     33  C   UNL     1       7.565   5.255  15.121  0.00  0.00    +0.000 A 
ATOM     34  C   UNL     1       7.292   4.507  13.978  0.00  0.00    +0.000 A 
ATOM     35  C   UNL     1       6.030   3.952  13.810  0.00  0.00    +0.000 A 
ATOM     36  F   UNL     1       5.767   3.233  12.712  0.00  0.00    +0.000 F 
ATOM     37  C   UNL     1       5.030   4.131  14.761  0.00  0.00    +0.000 A 
ENDBRANCH  30  31
ENDBRANCH  29  30
ENDBRANCH  27  29
ENDBRANCH   7  27
TORSDOF 9
ENDMDL
MODEL 3
REMARK VINA RESULT:      -9.0      3.215      5.105
REMARK  Name = 
REMARK  9 active torsions:
REMARK  status: ('A' for Active; 'I' for Inactive)
REMARK    1  A    between atoms: N_1  and  C_2
REMARK    2  A    between atoms: N_7  and  C_8
REMARK    3  A    between atoms: C_11  and  O_12
REMARK    4  A    between atoms: O_12  and  C_13
REMARK    5  A    between atoms: C_13  and  C_14
REMARK    6  A    between atoms: C_23  and  C_24
REMARK    7  A    between atoms: C_24  and  O_26
REMARK    8  A    between atoms: O_26  and  C_27
REMARK    9  A    between atoms: C_27  and  C_28
REMARK                            x       y       z     vdW  Elec       q    Type
REMARK                         _______ _______ _______ _____ _____    ______ ____
ROOT
ATOM      1  C   UNL     1       7.061   5.455  16.636  0.00  0.00    +0.000 A 
ATOM      2  N   UNL     1       7.783   6.437  17.199  0.00  0.00    +0.000 NA
ATOM      3  C   UNL     1       7.102   7.504  17.602  0.00  0.00    +0.000 A 
ATOM      4  N   UNL     1       5.780   7.640  17.531  0.00  0.00    +0.000 NA
ATOM      5  C   UNL     1       5.046   6.639  16.995  0.00  0.00    +0.000 A 
ATOM      6  N   UNL     1       3.642   6.677  17.180  0.00  0.00    +0.000 N 
ATOM      7  C   UNL     1       5.679   5.526  16.453  0.00  0.00    +0.000 A 
ATOM      8  H   UNL     1       3.107   6.062  16.573  0.00  0.00    +0.000 HD
ENDROOT
BRANCH   6   9
ATOM      9  C   UNL     1       2.923   7.361  18.177  0.00  0.00    +0.000 A 
ATOM     10  C   UNL     1       2.722   6.811  19.447  0.00  0.00    +0.000 A 
ATOM     11  C   UNL     1       1.791   7.329  20.336  0.00  0.00    +0.000 A 
ATOM     12  C   UNL     1       1.073   8.476  20.017  0.00  0.00    +0.000 A 
ATOM     13  C   UNL     1       1.290   9.073  18.767  0.00  0.00    +0.000 A 
ATOM     14 CL   UNL     1       0.418  10.487  18.289  0.00  0.00    +0.000 Cl
ATOM     15  C   UNL     1       2.209   8.522  17.857  0.00  0.00    +0.000 A 
BRANCH  12  16
ATOM     16  O   UNL     1       0.160   9.041  20.873  0.00  0.00    +0.000 OA
BRANCH  16  17
ATOM     17  C   UNL     1       0.675  10.105  21.680  0.00  0.00    +0.000 C 
BRANCH  17  18
ATOM     18  C   UNL     1      -0.369  11.132  22.030  0.00  0.00    +0.000 A 
ATOM     19  C   UNL     1      -1.244  10.977  23.108  0.00  0.00    +0.000 A 
ATOM     20  C   UNL     1      -2.234  11.930  23.349  0.00  0.00    +0.000 A 
ATOM     21  C   UNL     1      -2.345  13.049  22.523  0.00  0.00    +0.000 A 
ATOM     22  C   UNL     1      -1.458  13.228  21.465  0.00  0.00    +0.000 A 
ATOM     23  C   UNL     1      -0.471  12.277  21.223  0.00  0.00    +0.000 A 
ENDBRANCH  17  18
ENDBRANCH  16  17
ENDBRANCH  12  16
ENDBRANCH   6   9
BRANCH   1  24
ATOM     24  N   UNL     1       7.842   4.389  16.197  0.00  0.00    +0.000 N 
ATOM     25  H   UNL     1       8.818   4.641  16.322  0.00  0.00    +0.000 HD
ATOM     26  H   UNL     1       7.590   3.513  16.656  0.00  0.00    +0.000 HD
ENDBRANCH   1  24
BRANCH   7  27
ATOM     27  C   UNL     1       4.967   4.437  15.752  0.00  0.00    +0.000 C 
ATOM     28  O   UNL     1       5.256   4.037  14.636  0.00  0.00    +0.000 OA
BRANCH  27  29
ATOM     29  O   UNL     1       3.909   4.016  16.495  0.00  0.00    +0.000 OA
BRANCH  29  30
ATOM     30  C   UNL     1       4.241   3.227  17.650  0.00  0.00    +0.000 C 
BRANCH  30  31
ATOM     31  C   UNL     1       3.105   3.179  18.638  0.00  0.00    +0.000 A 
ATOM     32  C   UNL     1       1.777   3.120  18.186  0.00  0.00    +0.000 A 
ATOM     33  C   UNL     1       0.715   3.088  19.094  0.00  0.00    +0.000 A 
ATOM     34  C   UNL     1       0.973   3.110  20.462  0.00  0.00    +0.000 A 
ATOM     35  C   UNL     1       2.287   3.167  20.910  0.00  0.00    +0.000 A 
ATOM     36  F   UNL     1       2.536   3.187  22.225  0.00  0.00    +0.000 F 
ATOM     37  C   UNL     1       3.353   3.205  20.016  0.00  0.00    +0.000 A 
ENDBRANCH  30  31
ENDBRANCH  29  30
ENDBRANCH  27  29
ENDBRANCH   7  27
TORSDOF 9
ENDMDL
MODEL 4
REMARK VINA RESULT:      -8.8      1.702      2.150
REMARK  Name = 
REMARK  9 active torsions:
REMARK  status: ('A' for Active; 'I' for Inactive)
REMARK    1  A    between atoms: N_1  and  C_2
REMARK    2  A    between atoms: N_7  and  C_8
REMARK    3  A    between atoms: C_11  and  O_12
REMARK    4  A    between atoms: O_12  and  C_13
REMARK    5  A    between atoms: C_13  and  C_14
REMARK    6  A    between atoms: C_23  and  C_24
REMARK    7  A    between atoms: C_24  and  O_26
REMARK    8  A    between atoms: O_26  and  C_27
REMARK    9  A    between atoms: C_27  and  C_28
REMARK                            x       y       z     vdW  Elec       q    Type
REMARK                         _______ _______ _______ _____ _____    ______ ____
ROOT
ATOM      1  C   UNL     1       3.554   3.227  18.338  0.00  0.00    +0.000 A 
ATOM      2  N   UNL     1       2.406   2.713  18.807  0.00  0.00    +0.000 NA
ATOM      3  C   UNL     1       1.639   3.540  19.510  0.00  0.00    +0.000 A 
ATOM      4  N   UNL     1       1.904   4.825  19.732  0.00  0.00    +0.000 NA
ATOM      5  C   UNL     1       3.042   5.356  19.232  0.00  0.00    +0.000 A 
ATOM      6  N   UNL     1       3.171   6.767  19.236  0.00  0.00    +0.000 N 
ATOM      7  C   UNL     1       3.956   4.544  18.570  0.00  0.00    +0.000 A 
ATOM      8  H   UNL     1       4.113   7.117  19.086  0.00  0.00    +0.000 HD
ENDROOT
BRANCH   6   9
ATOM      9  C   UNL     1       2.142   7.725  19.293  0.00  0.00    +0.000 A 
ATOM     10  C   UNL     1       1.871   8.579  18.220  0.00  0.00    +0.000 A 
ATOM     11  C   UNL     1       1.069   9.703  18.356  0.00  0.00    +0.000 A 
ATOM     12  C   UNL     1       0.435   9.975  19.563  0.00  0.00    +0.000 A 
ATOM     13  C   UNL     1       0.654   9.107  20.642  0.00  0.00    +0.000 A 
ATOM     14 CL   UNL     1      -0.079   9.393  22.182  0.00  0.00    +0.000 Cl
ATOM     15  C   UNL     1       1.498   7.991  20.507  0.00  0.00    +0.000 A 
BRANCH  12  16
ATOM     16  O   UNL     1      -0.389  11.059  19.740  0.00  0.00    +0.000 OA
BRANCH  16  17
ATOM     17  C   UNL     1      -0.702  11.775  18.542  0.00  0.00    +0.000 C 
BRANCH  17  18
ATOM     18  C   UNL     1      -2.099  11.507  18.047  0.00  0.00    +0.000 A 
ATOM     19  C   UNL     1      -2.355  10.876  16.827  0.00  0.00    +0.000 A 
ATOM     20  C   UNL     1      -3.669  10.710  16.388  0.00  0.00    +0.000 A 
ATOM     21  C   UNL     1      -4.732  11.160  17.172  0.00  0.00    +0.000 A 
ATOM     22  C   UNL     1      -4.488  11.761  18.404  0.00  0.00    +0.000 A 
ATOM     23  C   UNL     1      -3.177  11.928  18.842  0.00  0.00    +0.000 A 
ENDBRANCH  17  18
ENDBRANCH  16  17
ENDBRANCH  12  16
ENDBRANCH   6   9
BRANCH   1  24
ATOM     24  N   UNL     1       4.327   2.296  17.651  0.00  0.00    +0.000 N 
ATOM     25  H   UNL     1       5.271   2.333  18.024  0.00  0.00    +0.000 HD
ATOM     26  H   UNL     1       3.919   1.361  17.679  0.00  0.00    +0.000 HD
ENDBRANCH   1  24
BRANCH   7  27
ATOM     27  C   UNL     1       5.272   5.012  18.088  0.00  0.00    +0.000 C 
ATOM     28  O   UNL     1       6.073   5.630  18.770  0.00  0.00    +0.000 OA
BRANCH  27  29
ATOM     29  O   UNL     1       5.413   4.726  16.765  0.00  0.00    +0.000 OA
BRANCH  29  30
ATOM     30  C   UNL     1       6.766   4.563  16.310  0.00  0.00    +0.000 C 
BRANCH  30  31
ATOM     31  C   UNL     1       6.843   4.482  14.807  0.00  0.00    +0.000 A 
ATOM     32  C   UNL     1       7.725   5.316  14.100  0.00  0.00    +0.000 A 
ATOM     33  C   UNL     1       7.796   5.259  12.706  0.00  0.00    +0.000 A 
ATOM     34  C   UNL     1       6.989   4.364  12.007  0.00  0.00    +0.000 A 
ATOM     35  C   UNL     1       6.119   3.538  12.707  0.00  0.00    +0.000 A 
ATOM     36  F   UNL     1       5.343   2.677  12.036  0.00  0.00    +0.000 F 
ATOM     37  C   UNL     1       6.034   3.590  14.095  0.00  0.00    +0.000 A 
ENDBRANCH  30  31
ENDBRANCH  29  30
ENDBRANCH  27  29
ENDBRANCH   7  27
TORSDOF 9
ENDMDL
MODEL 5
REMARK VINA RESULT:      -8.8      0.935      1.477
REMARK  Name = 
REMARK  9 active torsions:
REMARK  status: ('A' for Active; 'I' for Inactive)
REMARK    1  A    between atoms: N_1  and  C_2
REMARK    2  A    between atoms: N_7  and  C_8
REMARK    3  A    between atoms: C_11  and  O_12
REMARK    4  A    between atoms: O_12  and  C_13
REMARK    5  A    between atoms: C_13  and  C_14
REMARK    6  A    between atoms: C_23  and  C_24
REMARK    7  A    between atoms: C_24  and  O_26
REMARK    8  A    between atoms: O_26  and  C_27
REMARK    9  A    between atoms: C_27  and  C_28
REMARK                            x       y       z     vdW  Elec       q    Type
REMARK                         _______ _______ _______ _____ _____    ______ ____
ROOT
ATOM      1  C   UNL     1       2.866   2.137  18.724  0.00  0.00    +0.000 A 
ATOM      2  N   UNL     1       1.573   1.949  18.418  0.00  0.00    +0.000 NA
ATOM      3  C   UNL     1       0.737   2.908  18.802  0.00  0.00    +0.000 A 
ATOM      4  N   UNL     1       1.094   4.036  19.411  0.00  0.00    +0.000 NA
ATOM      5  C   UNL     1       2.400   4.244  19.691  0.00  0.00    +0.000 A 
ATOM      6  N   UNL     1       2.794   5.549  20.079  0.00  0.00    +0.000 N 
ATOM      7  C   UNL     1       3.337   3.253  19.419  0.00  0.00    +0.000 A 
ATOM      8  H   UNL     1       3.711   5.616  20.511  0.00  0.00    +0.000 HD
ENDROOT
BRANCH   6   9
ATOM      9  C   UNL     1       2.126   6.761  19.823  0.00  0.00    +0.000 A 
ATOM     10  C   UNL     1       2.228   7.411  18.589  0.00  0.00    +0.000 A 
ATOM     11  C   UNL     1       1.821   8.725  18.413  0.00  0.00    +0.000 A 
ATOM     12  C   UNL     1       1.217   9.423  19.453  0.00  0.00    +0.000 A 
ATOM     13  C   UNL     1       1.061   8.776  20.687  0.00  0.00    +0.000 A 
ATOM     14 CL   UNL     1       0.341   9.586  22.035  0.00  0.00    +0.000 Cl
ATOM     15  C   UNL     1       1.509   7.457  20.870  0.00  0.00    +0.000 A 
BRANCH  12  16
ATOM     16  O   UNL     1       0.774  10.715  19.320  0.00  0.00    +0.000 OA
BRANCH  16  17
ATOM     17  C   UNL     1      -0.565  10.939  19.774  0.00  0.00    +0.000 C 
BRANCH  17  18
ATOM     18  C   UNL     1      -1.576  10.895  18.660  0.00  0.00    +0.000 A 
ATOM     19  C   UNL     1      -2.751  11.651  18.681  0.00  0.00    +0.000 A 
ATOM     20  C   UNL     1      -3.684  11.523  17.652  0.00  0.00    +0.000 A 
ATOM     21  C   UNL     1      -3.441  10.652  16.590  0.00  0.00    +0.000 A 
ATOM     22  C   UNL     1      -2.259   9.918  16.544  0.00  0.00    +0.000 A 
ATOM     23  C   UNL     1      -1.328  10.043  17.571  0.00  0.00    +0.000 A 
ENDBRANCH  17  18
ENDBRANCH  16  17
ENDBRANCH  12  16
ENDBRANCH   6   9
BRANCH   1  24
ATOM     24  N   UNL     1       3.677   1.076  18.333  0.00  0.00    +0.000 N 
ATOM     25  H   UNL     1       3.131   0.221  18.399  0.00  0.00    +0.000 HD
ATOM     26  H   UNL     1       4.085   1.222  17.409  0.00  0.00    +0.000 HD
ENDBRANCH   1  24
BRANCH   7  27
ATOM     27  C   UNL     1       4.764   3.347  19.789  0.00  0.00    +0.000 C 
ATOM     28  O   UNL     1       5.384   2.466  20.363  0.00  0.00    +0.000 OA
BRANCH  27  29
ATOM     29  O   UNL     1       5.248   4.578  19.472  0.00  0.00    +0.000 OA
BRANCH  29  30
ATOM     30  C   UNL     1       6.424   4.585  18.647  0.00  0.00    +0.000 C 
BRANCH  30  31
ATOM     31  C   UNL     1       6.102   4.935  17.218  0.00  0.00    +0.000 A 
ATOM     32  C   UNL     1       5.400   6.115  16.921  0.00  0.00    +0.000 A 
ATOM     33  C   UNL     1       5.085   6.443  15.600  0.00  0.00    +0.000 A 
ATOM     34  C   UNL     1       5.473   5.598  14.564  0.00  0.00    +0.000 A 
ATOM     35  C   UNL     1       6.169   4.432  14.858  0.00  0.00    +0.000 A 
ATOM     36  F   UNL     1       6.544   3.618  13.862  0.00  0.00    +0.000 F 
ATOM     37  C   UNL     1       6.484   4.090  16.169  0.00  0.00    +0.000 A 
ENDBRANCH  30  31
ENDBRANCH  29  30
ENDBRANCH  27  29
ENDBRANCH   7  27
TORSDOF 9
ENDMDL
MODEL 6
REMARK VINA RESULT:      -8.8      1.351      1.798
REMARK  Name = 
REMARK  9 active torsions:
REMARK  status: ('A' for Active; 'I' for Inactive)
REMARK    1  A    between atoms: N_1  and  C_2
REMARK    2  A    between atoms: N_7  and  C_8
REMARK    3  A    between atoms: C_11  and  O_12
REMARK    4  A    between atoms: O_12  and  C_13
REMARK    5  A    between atoms: C_13  and  C_14
REMARK    6  A    between atoms: C_23  and  C_24
REMARK    7  A    between atoms: C_24  and  O_26
REMARK    8  A    between atoms: O_26  and  C_27
REMARK    9  A    between atoms: C_27  and  C_28
REMARK                            x       y       z     vdW  Elec       q    Type
REMARK                         _______ _______ _______ _____ _____    ______ ____
ROOT
ATOM      1  C   UNL     1       2.347   2.304  18.990  0.00  0.00    +0.000 A 
ATOM      2  N   UNL     1       1.013   2.271  18.850  0.00  0.00    +0.000 NA
ATOM      3  C   UNL     1       0.347   3.300  19.364  0.00  0.00    +0.000 A 
ATOM      4  N   UNL     1       0.905   4.357  19.949  0.00  0.00    +0.000 NA
ATOM      5  C   UNL     1       2.251   4.410  20.062  0.00  0.00    +0.000 A 
ATOM      6  N   UNL     1       2.836   5.648  20.426  0.00  0.00    +0.000 N 
ATOM      7  C   UNL     1       3.026   3.334  19.645  0.00  0.00    +0.000 A 
ATOM      8  H   UNL     1       3.802   5.596  20.736  0.00  0.00    +0.000 HD
ENDROOT
BRANCH   6   9
ATOM      9  C   UNL     1       2.283   6.934  20.290  0.00  0.00    +0.000 A 
ATOM     10  C   UNL     1       1.401   7.460  21.239  0.00  0.00    +0.000 A 
ATOM     11  C   UNL     1       0.634   8.589  20.987  0.00  0.00    +0.000 A 
ATOM     12  C   UNL     1       0.779   9.288  19.794  0.00  0.00    +0.000 A 
ATOM     13  C   UNL     1       1.693   8.807  18.846  0.00  0.00    +0.000 A 
ATOM     14 CL   UNL     1       1.911   9.609  17.329  0.00  0.00    +0.000 Cl
ATOM     15  C   UNL     1       2.440   7.642  19.093  0.00  0.00    +0.000 A 
BRANCH  12  16
ATOM     16  O   UNL     1       0.063  10.425  19.509  0.00  0.00    +0.000 OA
BRANCH  16  17
ATOM     17  C   UNL     1      -1.353  10.296  19.669  0.00  0.00    +0.000 C 
BRANCH  17  18
ATOM     18  C   UNL     1      -2.105  10.456  18.375  0.00  0.00    +0.000 A 
ATOM     19  C   UNL     1      -1.710   9.822  17.194  0.00  0.00    +0.000 A 
ATOM     20  C   UNL     1      -2.407  10.056  16.007  0.00  0.00    +0.000 A 
ATOM     21  C   UNL     1      -3.509  10.911  15.999  0.00  0.00    +0.000 A 
ATOM     22  C   UNL     1      -3.929  11.523  17.178  0.00  0.00    +0.000 A 
ATOM     23  C   UNL     1      -3.234  11.291  18.361  0.00  0.00    +0.000 A 
ENDBRANCH  17  18
ENDBRANCH  16  17
ENDBRANCH  12  16
ENDBRANCH   6   9
BRANCH   1  24
ATOM     24  N   UNL     1       2.976   1.177  18.469  0.00  0.00    +0.000 N 
ATOM     25  H   UNL     1       2.282   0.634  17.963  0.00  0.00    +0.000 HD
ATOM     26  H   UNL     1       3.791   1.416  17.904  0.00  0.00    +0.000 HD
ENDBRANCH   1  24
BRANCH   7  27
ATOM     27  C   UNL     1       4.490   3.256  19.827  0.00  0.00    +0.000 C 
ATOM     28  O   UNL     1       5.077   2.278  20.260  0.00  0.00    +0.000 OA
BRANCH  27  29
ATOM     29  O   UNL     1       5.062   4.453  19.524  0.00  0.00    +0.000 OA
BRANCH  29  30
ATOM     30  C   UNL     1       6.250   4.382  18.719  0.00  0.00    +0.000 C 
BRANCH  30  31
ATOM     31  C   UNL     1       5.995   4.834  17.305  0.00  0.00    +0.000 A 
ATOM     32  C   UNL     1       5.349   6.057  17.060  0.00  0.00    +0.000 A 
ATOM     33  C   UNL     1       5.096   6.480  15.753  0.00  0.00    +0.000 A 
ATOM     34  C   UNL     1       5.489   5.686  14.679  0.00  0.00    +0.000 A 
ATOM     35  C   UNL     1       6.129   4.477  14.921  0.00  0.00    +0.000 A 
ATOM     36  F   UNL     1       6.508   3.713  13.889  0.00  0.00    +0.000 F 
ATOM     37  C   UNL     1       6.382   4.042  16.218  0.00  0.00    +0.000 A 
ENDBRANCH  30  31
ENDBRANCH  29  30
ENDBRANCH  27  29
ENDBRANCH   7  27
TORSDOF 9
ENDMDL
MODEL 7
REMARK VINA RESULT:      -8.8      1.142      1.441
REMARK  Name = 
REMARK  9 active torsions:
REMARK  status: ('A' for Active; 'I' for Inactive)
REMARK    1  A    between atoms: N_1  and  C_2
REMARK    2  A    between atoms: N_7  and  C_8
REMARK    3  A    between atoms: C_11  and  O_12
REMARK    4  A    between atoms: O_12  and  C_13
REMARK    5  A    between atoms: C_13  and  C_14
REMARK    6  A    between atoms: C_23  and  C_24
REMARK    7  A    between atoms: C_24  and  O_26
REMARK    8  A    between atoms: O_26  and  C_27
REMARK    9  A    between atoms: C_27  and  C_28
REMARK                            x       y       z     vdW  Elec       q    Type
REMARK                         _______ _______ _______ _____ _____    ______ ____
ROOT
ATOM      1  C   UNL     1       2.413   2.385  18.946  0.00  0.00    +0.000 A 
ATOM      2  N   UNL     1       1.076   2.316  18.845  0.00  0.00    +0.000 NA
ATOM      3  C   UNL     1       0.397   3.324  19.382  0.00  0.00    +0.000 A 
ATOM      4  N   UNL     1       0.942   4.394  19.956  0.00  0.00    +0.000 NA
ATOM      5  C   UNL     1       2.288   4.483  20.030  0.00  0.00    +0.000 A 
ATOM      6  N   UNL     1       2.849   5.735  20.384  0.00  0.00    +0.000 N 
ATOM      7  C   UNL     1       3.081   3.431  19.586  0.00  0.00    +0.000 A 
ATOM      8  H   UNL     1       3.825   5.710  20.665  0.00  0.00    +0.000 HD
ENDROOT
BRANCH   6   9
ATOM      9  C   UNL     1       2.258   7.007  20.270  0.00  0.00    +0.000 A 
ATOM     10  C   UNL     1       1.329   7.472  21.206  0.00  0.00    +0.000 A 
ATOM     11  C   UNL     1       0.532   8.582  20.965  0.00  0.00    +0.000 A 
ATOM     12  C   UNL     1       0.690   9.324  19.799  0.00  0.00    +0.000 A 
ATOM     13  C   UNL     1       1.647   8.904  18.866  0.00  0.00    +0.000 A 
ATOM     14 CL   UNL     1       1.885   9.760  17.382  0.00  0.00    +0.000 Cl
ATOM     15  C   UNL     1       2.426   7.757  19.100  0.00  0.00    +0.000 A 
BRANCH  12  16
ATOM     16  O   UNL     1      -0.056  10.444  19.527  0.00  0.00    +0.000 OA
BRANCH  16  17
ATOM     17  C   UNL     1      -1.471  10.263  19.636  0.00  0.00    +0.000 C 
BRANCH  17  18
ATOM     18  C   UNL     1      -2.187  10.442  18.323  0.00  0.00    +0.000 A 
ATOM     19  C   UNL     1      -1.782   9.795  17.153  0.00  0.00    +0.000 A 
ATOM     20  C   UNL     1      -2.443  10.047  15.950  0.00  0.00    +0.000 A 
ATOM     21  C   UNL     1      -3.520  10.933  15.914  0.00  0.00    +0.000 A 
ATOM     22  C   UNL     1      -3.951  11.558  17.082  0.00  0.00    +0.000 A 
ATOM     23  C   UNL     1      -3.291  11.309  18.282  0.00  0.00    +0.000 A 
ENDBRANCH  17  18
ENDBRANCH  16  17
ENDBRANCH  12  16
ENDBRANCH   6   9
BRANCH   1  24
ATOM     24  N   UNL     1       3.057   1.278  18.402  0.00  0.00    +0.000 N 
ATOM     25  H   UNL     1       2.466   0.898  17.668  0.00  0.00    +0.000 HD
ATOM     26  H   UNL     1       4.001   1.499  18.084  0.00  0.00    +0.000 HD
ENDBRANCH   1  24
BRANCH   7  27
ATOM     27  C   UNL     1       4.552   3.394  19.726  0.00  0.00    +0.000 C 
ATOM     28  O   UNL     1       5.175   2.445  20.173  0.00  0.00    +0.000 OA
BRANCH  27  29
ATOM     29  O   UNL     1       5.085   4.591  19.364  0.00  0.00    +0.000 OA
BRANCH  29  30
ATOM     30  C   UNL     1       6.317   4.521  18.628  0.00  0.00    +0.000 C 
BRANCH  30  31
ATOM     31  C   UNL     1       6.109   4.796  17.162  0.00  0.00    +0.000 A 
ATOM     32  C   UNL     1       6.598   3.898  16.198  0.00  0.00    +0.000 A 
ATOM     33  C   UNL     1       6.421   4.149  14.835  0.00  0.00    +0.000 A 
ATOM     34  C   UNL     1       5.750   5.297  14.423  0.00  0.00    +0.000 A 
ATOM     35  C   UNL     1       5.265   6.184  15.376  0.00  0.00    +0.000 A 
ATOM     36  F   UNL     1       4.619   7.288  14.981  0.00  0.00    +0.000 F 
ATOM     37  C   UNL     1       5.439   5.949  16.736  0.00  0.00    +0.000 A 
ENDBRANCH  30  31
ENDBRANCH  29  30
ENDBRANCH  27  29
ENDBRANCH   7  27
TORSDOF 9
ENDMDL
MODEL 8
REMARK VINA RESULT:      -8.7      2.133      3.145
REMARK  Name = 
REMARK  9 active torsions:
REMARK  status: ('A' for Active; 'I' for Inactive)
REMARK    1  A    between atoms: N_1  and  C_2
REMARK    2  A    between atoms: N_7  and  C_8
REMARK    3  A    between atoms: C_11  and  O_12
REMARK    4  A    between atoms: O_12  and  C_13
REMARK    5  A    between atoms: C_13  and  C_14
REMARK    6  A    between atoms: C_23  and  C_24
REMARK    7  A    between atoms: C_24  and  O_26
REMARK    8  A    between atoms: O_26  and  C_27
REMARK    9  A    between atoms: C_27  and  C_28
REMARK                            x       y       z     vdW  Elec       q    Type
REMARK                         _______ _______ _______ _____ _____    ______ ____
ROOT
ATOM      1  C   UNL     1       3.254   2.699  18.207  0.00  0.00    +0.000 A 
ATOM      2  N   UNL     1       2.016   2.308  18.549  0.00  0.00    +0.000 NA
ATOM      3  C   UNL     1       1.297   3.183  19.243  0.00  0.00    +0.000 A 
ATOM      4  N   UNL     1       1.695   4.410  19.572  0.00  0.00    +0.000 NA
ATOM      5  C   UNL     1       2.929   4.821  19.201  0.00  0.00    +0.000 A 
ATOM      6  N   UNL     1       3.227   6.201  19.311  0.00  0.00    +0.000 N 
ATOM      7  C   UNL     1       3.792   3.939  18.560  0.00  0.00    +0.000 A 
ATOM      8  H   UNL     1       4.214   6.438  19.260  0.00  0.00    +0.000 HD
ENDROOT
BRANCH   6   9
ATOM      9  C   UNL     1       2.321   7.277  19.352  0.00  0.00    +0.000 A 
ATOM     10  C   UNL     1       2.124   8.115  18.250  0.00  0.00    +0.000 A 
ATOM     11  C   UNL     1       1.464   9.331  18.358  0.00  0.00    +0.000 A 
ATOM     12  C   UNL     1       0.901   9.723  19.567  0.00  0.00    +0.000 A 
ATOM     13  C   UNL     1       1.044   8.878  20.675  0.00  0.00    +0.000 A 
ATOM     14 CL   UNL     1       0.392   9.308  22.218  0.00  0.00    +0.000 Cl
ATOM     15  C   UNL     1       1.746   7.664  20.568  0.00  0.00    +0.000 A 
BRANCH  12  16
ATOM     16  O   UNL     1       0.216  10.904  19.717  0.00  0.00    +0.000 OA
BRANCH  16  17
ATOM     17  C   UNL     1       0.128  11.701  18.532  0.00  0.00    +0.000 C 
BRANCH  17  18
ATOM     18  C   UNL     1       1.015  12.916  18.577  0.00  0.00    +0.000 A 
ATOM     19  C   UNL     1       2.359  12.879  18.197  0.00  0.00    +0.000 A 
ATOM     20  C   UNL     1       3.152  14.021  18.319  0.00  0.00    +0.000 A 
ATOM     21  C   UNL     1       2.602  15.207  18.806  0.00  0.00    +0.000 A 
ATOM     22  C   UNL     1       1.256  15.263  19.156  0.00  0.00    +0.000 A 
ATOM     23  C   UNL     1       0.465  14.124  19.037  0.00  0.00    +0.000 A 
ENDBRANCH  17  18
ENDBRANCH  16  17
ENDBRANCH  12  16
ENDBRANCH   6   9
BRANCH   1  24
ATOM     24  N   UNL     1       3.965   1.719  17.522  0.00  0.00    +0.000 N 
ATOM     25  H   UNL     1       3.297   1.054  17.140  0.00  0.00    +0.000 HD
ATOM     26  H   UNL     1       4.587   2.115  16.817  0.00  0.00    +0.000 HD
ENDBRANCH   1  24
BRANCH   7  27
ATOM     27  C   UNL     1       5.191   4.263  18.216  0.00  0.00    +0.000 C 
ATOM     28  O   UNL     1       6.051   4.545  19.034  0.00  0.00    +0.000 OA
BRANCH  27  29
ATOM     29  O   UNL     1       5.348   4.281  16.865  0.00  0.00    +0.000 OA
BRANCH  29  30
ATOM     30  C   UNL     1       6.676   4.570  16.401  0.00  0.00    +0.000 C 
BRANCH  30  31
ATOM     31  C   UNL     1       6.774   4.490  14.899  0.00  0.00    +0.000 A 
ATOM     32  C   UNL     1       7.691   5.296  14.207  0.00  0.00    +0.000 A 
ATOM     33  C   UNL     1       7.781   5.239  12.814  0.00  0.00    +0.000 A 
ATOM     34  C   UNL     1       6.958   4.371  12.101  0.00  0.00    +0.000 A 
ATOM     35  C   UNL     1       6.051   3.572  12.786  0.00  0.00    +0.000 A 
ATOM     36  F   UNL     1       5.259   2.737  12.102  0.00  0.00    +0.000 F 
ATOM     37  C   UNL     1       5.947   3.624  14.173  0.00  0.00    +0.000 A 
ENDBRANCH  30  31
ENDBRANCH  29  30
ENDBRANCH  27  29
ENDBRANCH   7  27
TORSDOF 9
ENDMDL
MODEL 9
REMARK VINA RESULT:      -8.7      2.188      2.996
REMARK  Name = 
REMARK  9 active torsions:
REMARK  status: ('A' for Active; 'I' for Inactive)
REMARK    1  A    between atoms: N_1  and  C_2
REMARK    2  A    between atoms: N_7  and  C_8
REMARK    3  A    between atoms: C_11  and  O_12
REMARK    4  A    between atoms: O_12  and  C_13
REMARK    5  A    between atoms: C_13  and  C_14
REMARK    6  A    between atoms: C_23  and  C_24
REMARK    7  A    between atoms: C_24  and  O_26
REMARK    8  A    between atoms: O_26  and  C_27
REMARK    9  A    between atoms: C_27  and  C_28
REMARK                            x       y       z     vdW  Elec       q    Type
REMARK                         _______ _______ _______ _____ _____    ______ ____
ROOT
ATOM      1  C   UNL     1       3.248   2.502  18.645  0.00  0.00    +0.000 A 
ATOM      2  N   UNL     1       2.012   2.198  19.071  0.00  0.00    +0.000 NA
ATOM      3  C   UNL     1       1.328   3.188  19.635  0.00  0.00    +0.000 A 
ATOM      4  N   UNL     1       1.758   4.441  19.759  0.00  0.00    +0.000 NA
ATOM      5  C   UNL     1       2.989   4.760  19.301  0.00  0.00    +0.000 A 
ATOM      6  N   UNL     1       3.317   6.133  19.187  0.00  0.00    +0.000 N 
ATOM      7  C   UNL     1       3.819   3.769  18.787  0.00  0.00    +0.000 A 
ATOM      8  H   UNL     1       4.307   6.336  19.079  0.00  0.00    +0.000 HD
ENDROOT
BRANCH   6   9
ATOM      9  C   UNL     1       2.434   7.223  19.079  0.00  0.00    +0.000 A 
ATOM     10  C   UNL     1       2.291   7.939  17.887  0.00  0.00    +0.000 A 
ATOM     11  C   UNL     1       1.655   9.171  17.838  0.00  0.00    +0.000 A 
ATOM     12  C   UNL     1       1.061   9.703  18.977  0.00  0.00    +0.000 A 
ATOM     13  C   UNL     1       1.150   8.982  20.175  0.00  0.00    +0.000 A 
ATOM     14 CL   UNL     1       0.457   9.590  21.638  0.00  0.00    +0.000 Cl
ATOM     15  C   UNL     1       1.828   7.752  20.225  0.00  0.00    +0.000 A 
BRANCH  12  16
ATOM     16  O   UNL     1       0.397  10.905  18.974  0.00  0.00    +0.000 OA
BRANCH  16  17
ATOM     17  C   UNL     1       1.243  12.057  18.909  0.00  0.00    +0.000 C 
BRANCH  17  18
ATOM     18  C   UNL     1       0.710  13.221  19.702  0.00  0.00    +0.000 A 
ATOM     19  C   UNL     1       0.889  13.333  21.083  0.00  0.00    +0.000 A 
ATOM     20  C   UNL     1       0.319  14.401  21.778  0.00  0.00    +0.000 A 
ATOM     21  C   UNL     1      -0.419  15.368  21.094  0.00  0.00    +0.000 A 
ATOM     22  C   UNL     1      -0.575  15.281  19.713  0.00  0.00    +0.000 A 
ATOM     23  C   UNL     1      -0.008  14.216  19.019  0.00  0.00    +0.000 A 
ENDBRANCH  17  18
ENDBRANCH  16  17
ENDBRANCH  12  16
ENDBRANCH   6   9
BRANCH   1  24
ATOM     24  N   UNL     1       3.922   1.410  18.107  0.00  0.00    +0.000 N 
ATOM     25  H   UNL     1       3.403   0.570  18.346  0.00  0.00    +0.000 HD
ATOM     26  H   UNL     1       4.082   1.513  17.104  0.00  0.00    +0.000 HD
ENDBRANCH   1  24
BRANCH   7  27
ATOM     27  C   UNL     1       5.215   4.003  18.366  0.00  0.00    +0.000 C 
ATOM     28  O   UNL     1       6.088   4.443  19.097  0.00  0.00    +0.000 OA
BRANCH  27  29
ATOM     29  O   UNL     1       5.353   3.736  17.039  0.00  0.00    +0.000 OA
BRANCH  29  30
ATOM     30  C   UNL     1       5.173   4.860  16.162  0.00  0.00    +0.000 C 
BRANCH  30  31
ATOM     31  C   UNL     1       5.850   4.644  14.833  0.00  0.00    +0.000 A 
ATOM     32  C   UNL     1       5.297   3.757  13.894  0.00  0.00    +0.000 A 
ATOM     33  C   UNL     1       5.923   3.540  12.664  0.00  0.00    +0.000 A 
ATOM     34  C   UNL     1       7.104   4.212  12.359  0.00  0.00    +0.000 A 
ATOM     35  C   UNL     1       7.650   5.090  13.287  0.00  0.00    +0.000 A 
ATOM     36  F   UNL     1       8.785   5.737  12.994  0.00  0.00    +0.000 F 
ATOM     37  C   UNL     1       7.040   5.311  14.518  0.00  0.00    +0.000 A 
ENDBRANCH  30  31
ENDBRANCH  29  30
ENDBRANCH  27  29
ENDBRANCH   7  27
TORSDOF 9
ENDMDL
