MODEL 1
REMARK VINA RESULT:      -6.1      0.000      0.000
REMARK  Name = 
REMARK  12 active torsions:
REMARK  status: ('A' for Active; 'I' for Inactive)
REMARK    1  A    between atoms: C_2  and  C_3
REMARK    2  A    between atoms: C_3  and  C_4
REMARK    3  A    between atoms: C_3  and  C_5
REMARK    4  A    between atoms: C_5  and  C_6
REMARK    5  A    between atoms: C_5  and  S_10
REMARK    6  A    between atoms: C_6  and  O_8
REMARK    7  A    between atoms: O_8  and  C_9
REMARK    8  A    between atoms: S_10  and  C_13
REMARK    9  A    between atoms: N_19  and  C_20
REMARK   10  A    between atoms: N_19  and  C_22
REMARK   11  A    between atoms: C_20  and  C_21
REMARK   12  A    between atoms: C_22  and  C_23
REMARK                            x       y       z     vdW  Elec       q    Type
REMARK                         _______ _______ _______ _____ _____    ______ ____
ROOT
ATOM      1  S   UNL     1       3.984   5.708  18.319  0.00  0.00    +0.000 S 
ATOM      2  O   UNL     1       3.142   6.588  17.534  0.00  0.00    +0.000 OA
ATOM      3  O   UNL     1       4.735   6.224  19.456  0.00  0.00    +0.000 OA
ENDROOT
BRANCH   1   4
ATOM      4  C   UNL     1       5.259   5.158  17.222  0.00  0.00    +0.000 A 
ATOM      5  N   UNL     1       6.250   4.296  17.641  0.00  0.00    +0.000 NA
ATOM      6  C   UNL     1       6.918   4.047  16.545  0.00  0.00    +0.000 A 
ATOM      7  N   UNL     1       6.347   4.680  15.471  0.00  0.00    +0.000 N 
ATOM      8  C   UNL     1       6.986   4.936  14.244  0.00  0.00    +0.000 C 
ATOM      9  O   UNL     1       7.996   5.639  14.264  0.00  0.00    +0.000 OA
ATOM     10  N   UNL     1       6.471   4.273  13.123  0.00  0.00    +0.000 N 
ATOM     11  N   UNL     1       5.295   5.443  15.899  0.00  0.00    +0.000 NA
BRANCH  10  12
ATOM     12  C   UNL     1       5.460   3.200  13.137  0.00  0.00    +0.000 C 
ATOM     13  C   UNL     1       4.516   3.221  11.940  0.00  0.00    +0.000 C 
ENDBRANCH  10  12
BRANCH  10  14
ATOM     14  C   UNL     1       7.213   4.462  11.869  0.00  0.00    +0.000 C 
ATOM     15  C   UNL     1       7.678   3.154  11.247  0.00  0.00    +0.000 C 
ENDBRANCH  10  14
ENDBRANCH   1   4
BRANCH   1  16
ATOM     16  C   UNL     1       3.054   4.291  18.855  0.00  0.00    +0.000 C 
BRANCH  16  17
ATOM     17  C   UNL     1       1.695   4.720  19.475  0.00  0.00    +0.000 C 
ATOM     18  C   UNL     1       1.850   5.761  20.596  0.00  0.00    +0.000 C 
BRANCH  17  20
ATOM     19  C   UNL     1       1.312   2.888  21.159  0.00  0.00    +0.000 C 
ATOM     20  C   UNL     1       0.918   3.555  20.067  0.00  0.00    +0.000 C 
ENDBRANCH  17  20
ENDBRANCH  16  17
BRANCH  16  21
ATOM     21  C   UNL     1       2.861   3.405  17.654  0.00  0.00    +0.000 C 
ATOM     22  O   UNL     1       1.993   3.529  16.805  0.00  0.00    +0.000 OA
BRANCH  21  23
ATOM     23  O   UNL     1       3.800   2.411  17.649  0.00  0.00    +0.000 OA
ATOM     24  C   UNL     1       3.565   1.361  18.595  0.00  0.00    +0.000 C 
ENDBRANCH  21  23
ENDBRANCH  16  21
ENDBRANCH   1  16
TORSDOF 8
ENDMDL
MODEL 2
REMARK VINA RESULT:      -5.9      4.644      7.612
REMARK  Name = 
REMARK  12 active torsions:
REMARK  status: ('A' for Active; 'I' for Inactive)
REMARK    1  A    between atoms: C_2  and  C_3
REMARK    2  A    between atoms: C_3  and  C_4
REMARK    3  A    between atoms: C_3  and  C_5
REMARK    4  A    between atoms: C_5  and  C_6
REMARK    5  A    between atoms: C_5  and  S_10
REMARK    6  A    between atoms: C_6  and  O_8
REMARK    7  A    between atoms: O_8  and  C_9
REMARK    8  A    between atoms: S_10  and  C_13
REMARK    9  A    between atoms: N_19  and  C_20
REMARK   10  A    between atoms: N_19  and  C_22
REMARK   11  A    between atoms: C_20  and  C_21
REMARK   12  A    between atoms: C_22  and  C_23
REMARK                            x       y       z     vdW  Elec       q    Type
REMARK                         _______ _______ _______ _____ _____    ______ ____
ROOT
ATOM      1  S   UNL     1       3.231   6.514  18.262  0.00  0.00    +0.000 S 
ATOM      2  O   UNL     1       4.254   7.287  17.586  0.00  0.00    +0.000 OA
ATOM      3  O   UNL     1       2.306   5.687  17.498  0.00  0.00    +0.000 OA
ENDROOT
BRANCH   1   4
ATOM      4  C   UNL     1       2.162   7.698  19.028  0.00  0.00    +0.000 A 
ATOM      5  N   UNL     1       1.882   7.651  20.377  0.00  0.00    +0.000 NA
ATOM      6  C   UNL     1       1.165   8.726  20.575  0.00  0.00    +0.000 A 
ATOM      7  N   UNL     1       1.038   9.448  19.416  0.00  0.00    +0.000 N 
ATOM      8  C   UNL     1       0.059  10.429  19.172  0.00  0.00    +0.000 C 
ATOM      9  O   UNL     1      -1.120  10.078  19.215  0.00  0.00    +0.000 OA
ATOM     10  N   UNL     1       0.519  11.742  19.010  0.00  0.00    +0.000 N 
ATOM     11  N   UNL     1       1.641   8.773  18.390  0.00  0.00    +0.000 NA
BRANCH  10  12
ATOM     12  C   UNL     1       1.891  12.218  19.258  0.00  0.00    +0.000 C 
ATOM     13  C   UNL     1       2.623  12.685  18.004  0.00  0.00    +0.000 C 
ENDBRANCH  10  12
BRANCH  10  14
ATOM     14  C   UNL     1      -0.520  12.771  18.865  0.00  0.00    +0.000 C 
ATOM     15  C   UNL     1      -0.438  13.856  19.929  0.00  0.00    +0.000 C 
ENDBRANCH  10  14
ENDBRANCH   1   4
BRANCH   1  16
ATOM     16  C   UNL     1       3.965   5.512  19.534  0.00  0.00    +0.000 C 
BRANCH  16  17
ATOM     17  C   UNL     1       3.136   4.218  19.770  0.00  0.00    +0.000 C 
ATOM     18  C   UNL     1       2.336   4.249  21.081  0.00  0.00    +0.000 C 
BRANCH  17  20
ATOM     19  C   UNL     1       3.749   1.879  19.068  0.00  0.00    +0.000 C 
ATOM     20  C   UNL     1       3.995   2.965  19.813  0.00  0.00    +0.000 C 
ENDBRANCH  17  20
ENDBRANCH  16  17
BRANCH  16  21
ATOM     21  C   UNL     1       5.371   5.200  19.100  0.00  0.00    +0.000 C 
ATOM     22  O   UNL     1       6.376   5.339  19.777  0.00  0.00    +0.000 OA
BRANCH  21  23
ATOM     23  O   UNL     1       5.373   4.746  17.810  0.00  0.00    +0.000 OA
ATOM     24  C   UNL     1       6.676   4.540  17.250  0.00  0.00    +0.000 C 
ENDBRANCH  21  23
ENDBRANCH  16  21
ENDBRANCH   1  16
TORSDOF 8
ENDMDL
MODEL 3
REMARK VINA RESULT:      -5.8      5.157      7.654
REMARK  Name = 
REMARK  12 active torsions:
REMARK  status: ('A' for Active; 'I' for Inactive)
REMARK    1  A    between atoms: C_2  and  C_3
REMARK    2  A    between atoms: C_3  and  C_4
REMARK    3  A    between atoms: C_3  and  C_5
REMARK    4  A    between atoms: C_5  and  C_6
REMARK    5  A    between atoms: C_5  and  S_10
REMARK    6  A    between atoms: C_6  and  O_8
REMARK    7  A    between atoms: O_8  and  C_9
REMARK    8  A    between atoms: S_10  and  C_13
REMARK    9  A    between atoms: N_19  and  C_20
REMARK   10  A    between atoms: N_19  and  C_22
REMARK   11  A    between atoms: C_20  and  C_21
REMARK   12  A    between atoms: C_22  and  C_23
REMARK                            x       y       z     vdW  Elec       q    Type
REMARK                         _______ _______ _______ _____ _____    ______ ____
ROOT
ATOM      1  S   UNL     1       0.816   9.300  21.099  0.00  0.00    +0.000 S 
ATOM      2  O   UNL     1       1.858   9.490  22.089  0.00  0.00    +0.000 OA
ATOM      3  O   UNL     1      -0.405   8.582  21.441  0.00  0.00    +0.000 OA
ENDROOT
BRANCH   1   4
ATOM      4  C   UNL     1       1.531   8.286  19.838  0.00  0.00    +0.000 A 
ATOM      5  N   UNL     1       1.889   8.805  18.612  0.00  0.00    +0.000 NA
ATOM      6  C   UNL     1       2.465   7.795  18.013  0.00  0.00    +0.000 A 
ATOM      7  N   UNL     1       2.517   6.702  18.840  0.00  0.00    +0.000 N 
ATOM      8  C   UNL     1       2.720   5.374  18.420  0.00  0.00    +0.000 C 
ATOM      9  O   UNL     1       1.895   4.890  17.646  0.00  0.00    +0.000 OA
ATOM     10  N   UNL     1       3.907   4.763  18.842  0.00  0.00    +0.000 N 
ATOM     11  N   UNL     1       1.874   6.988  20.013  0.00  0.00    +0.000 NA
BRANCH  10  12
ATOM     12  C   UNL     1       5.038   5.431  19.511  0.00  0.00    +0.000 C 
ATOM     13  C   UNL     1       6.370   5.276  18.785  0.00  0.00    +0.000 C 
ENDBRANCH  10  12
BRANCH  10  14
ATOM     14  C   UNL     1       4.160   3.417  18.308  0.00  0.00    +0.000 C 
ATOM     15  C   UNL     1       3.736   2.308  19.259  0.00  0.00    +0.000 C 
ENDBRANCH  10  14
ENDBRANCH   1   4
BRANCH   1  16
ATOM     16  C   UNL     1       0.369  10.863  20.378  0.00  0.00    +0.000 C 
BRANCH  16  17
ATOM     17  C   UNL     1      -1.076  10.818  19.806  0.00  0.00    +0.000 C 
ATOM     18  C   UNL     1      -1.134  10.275  18.370  0.00  0.00    +0.000 C 
BRANCH  17  20
ATOM     19  C   UNL     1      -3.075  12.347  19.742  0.00  0.00    +0.000 C 
ATOM     20  C   UNL     1      -1.747  12.181  19.784  0.00  0.00    +0.000 C 
ENDBRANCH  17  20
ENDBRANCH  16  17
BRANCH  16  21
ATOM     21  C   UNL     1       0.508  11.906  21.455  0.00  0.00    +0.000 C 
ATOM     22  O   UNL     1      -0.189  12.002  22.451  0.00  0.00    +0.000 OA
BRANCH  21  23
ATOM     23  O   UNL     1       1.533  12.759  21.151  0.00  0.00    +0.000 OA
ATOM     24  C   UNL     1       1.927  12.753  19.774  0.00  0.00    +0.000 C 
ENDBRANCH  21  23
ENDBRANCH  16  21
ENDBRANCH   1  16
TORSDOF 8
ENDMDL
MODEL 4
REMARK VINA RESULT:      -5.8      4.451      7.687
REMARK  Name = 
REMARK  12 active torsions:
REMARK  status: ('A' for Active; 'I' for Inactive)
REMARK    1  A    between atoms: C_2  and  C_3
REMARK    2  A    between atoms: C_3  and  C_4
REMARK    3  A    between atoms: C_3  and  C_5
REMARK    4  A    between atoms: C_5  and  C_6
REMARK    5  A    between atoms: C_5  and  S_10
REMARK    6  A    between atoms: C_6  and  O_8
REMARK    7  A    between atoms: O_8  and  C_9
REMARK    8  A    between atoms: S_10  and  C_13
REMARK    9  A    between atoms: N_19  and  C_20
REMARK   10  A    between atoms: N_19  and  C_22
REMARK   11  A    between atoms: C_20  and  C_21
REMARK   12  A    between atoms: C_22  and  C_23
REMARK                            x       y       z     vdW  Elec       q    Type
REMARK                         _______ _______ _______ _____ _____    ______ ____
ROOT
ATOM      1  S   UNL     1       2.856   6.050  19.163  0.00  0.00    +0.000 S 
ATOM      2  O   UNL     1       1.777   5.454  19.925  0.00  0.00    +0.000 OA
ATOM      3  O   UNL     1       4.175   6.219  19.760  0.00  0.00    +0.000 OA
ENDROOT
BRANCH   1   4
ATOM      4  C   UNL     1       2.353   7.715  18.839  0.00  0.00    +0.000 A 
ATOM      5  N   UNL     1       2.740   8.376  17.692  0.00  0.00    +0.000 NA
ATOM      6  C   UNL     1       2.095   9.511  17.765  0.00  0.00    +0.000 A 
ATOM      7  N   UNL     1       1.296   9.548  18.880  0.00  0.00    +0.000 N 
ATOM      8  C   UNL     1       0.765  10.714  19.461  0.00  0.00    +0.000 C 
ATOM      9  O   UNL     1       1.562  11.561  19.866  0.00  0.00    +0.000 OA
ATOM     10  N   UNL     1      -0.628  10.849  19.426  0.00  0.00    +0.000 N 
ATOM     11  N   UNL     1       1.485   8.409  19.613  0.00  0.00    +0.000 NA
BRANCH  10  12
ATOM     12  C   UNL     1      -1.565   9.992  18.678  0.00  0.00    +0.000 C 
ATOM     13  C   UNL     1      -2.689  10.756  17.985  0.00  0.00    +0.000 C 
ENDBRANCH  10  12
BRANCH  10  14
ATOM     14  C   UNL     1      -1.162  12.119  19.937  0.00  0.00    +0.000 C 
ATOM     15  C   UNL     1      -1.583  12.047  21.396  0.00  0.00    +0.000 C 
ENDBRANCH  10  14
ENDBRANCH   1   4
BRANCH   1  16
ATOM     16  C   UNL     1       3.044   5.207  17.609  0.00  0.00    +0.000 C 
BRANCH  16  17
ATOM     17  C   UNL     1       4.532   5.197  17.159  0.00  0.00    +0.000 C 
ATOM     18  C   UNL     1       4.961   6.508  16.481  0.00  0.00    +0.000 C 
BRANCH  17  20
ATOM     19  C   UNL     1       5.705   4.210  15.162  0.00  0.00    +0.000 C 
ATOM     20  C   UNL     1       4.848   4.077  16.181  0.00  0.00    +0.000 C 
ENDBRANCH  17  20
ENDBRANCH  16  17
BRANCH  16  21
ATOM     21  C   UNL     1       2.510   3.812  17.793  0.00  0.00    +0.000 C 
ATOM     22  O   UNL     1       1.526   3.345  17.244  0.00  0.00    +0.000 OA
BRANCH  21  23
ATOM     23  O   UNL     1       3.285   3.127  18.688  0.00  0.00    +0.000 OA
ATOM     24  C   UNL     1       3.334   1.712  18.476  0.00  0.00    +0.000 C 
ENDBRANCH  21  23
ENDBRANCH  16  21
ENDBRANCH   1  16
TORSDOF 8
ENDMDL
MODEL 5
REMARK VINA RESULT:      -5.8      3.094      7.195
REMARK  Name = 
REMARK  12 active torsions:
REMARK  status: ('A' for Active; 'I' for Inactive)
REMARK    1  A    between atoms: C_2  and  C_3
REMARK    2  A    between atoms: C_3  and  C_4
REMARK    3  A    between atoms: C_3  and  C_5
REMARK    4  A    between atoms: C_5  and  C_6
REMARK    5  A    between atoms: C_5  and  S_10
REMARK    6  A    between atoms: C_6  and  O_8
REMARK    7  A    between atoms: O_8  and  C_9
REMARK    8  A    between atoms: S_10  and  C_13
REMARK    9  A    between atoms: N_19  and  C_20
REMARK   10  A    between atoms: N_19  and  C_22
REMARK   11  A    between atoms: C_20  and  C_21
REMARK   12  A    between atoms: C_22  and  C_23
REMARK                            x       y       z     vdW  Elec       q    Type
REMARK                         _______ _______ _______ _____ _____    ______ ____
ROOT
ATOM      1  S   UNL     1       5.037   4.074  18.826  0.00  0.00    +0.000 S 
ATOM      2  O   UNL     1       4.481   2.743  18.687  0.00  0.00    +0.000 OA
ATOM      3  O   UNL     1       5.531   4.537  20.116  0.00  0.00    +0.000 OA
ENDROOT
BRANCH   1   4
ATOM      4  C   UNL     1       3.705   5.189  18.490  0.00  0.00    +0.000 A 
ATOM      5  N   UNL     1       2.548   4.766  17.871  0.00  0.00    +0.000 NA
ATOM      6  C   UNL     1       1.784   5.827  17.899  0.00  0.00    +0.000 A 
ATOM      7  N   UNL     1       2.408   6.860  18.551  0.00  0.00    +0.000 N 
ATOM      8  C   UNL     1       2.053   8.218  18.449  0.00  0.00    +0.000 C 
ATOM      9  O   UNL     1       2.110   8.738  17.335  0.00  0.00    +0.000 OA
ATOM     10  N   UNL     1       1.563   8.823  19.613  0.00  0.00    +0.000 N 
ATOM     11  N   UNL     1       3.674   6.479  18.902  0.00  0.00    +0.000 NA
BRANCH  10  12
ATOM     12  C   UNL     1       1.206   8.134  20.866  0.00  0.00    +0.000 C 
ATOM     13  C   UNL     1       1.267   9.023  22.103  0.00  0.00    +0.000 C 
ENDBRANCH  10  12
BRANCH  10  14
ATOM     14  C   UNL     1       1.094  10.208  19.466  0.00  0.00    +0.000 C 
ATOM     15  C   UNL     1      -0.369  10.304  19.062  0.00  0.00    +0.000 C 
ENDBRANCH  10  14
ENDBRANCH   1   4
BRANCH   1  16
ATOM     16  C   UNL     1       6.308   4.334  17.610  0.00  0.00    +0.000 C 
BRANCH  16  17
ATOM     17  C   UNL     1       5.705   4.867  16.280  0.00  0.00    +0.000 C 
ATOM     18  C   UNL     1       4.847   3.821  15.551  0.00  0.00    +0.000 C 
BRANCH  17  20
ATOM     19  C   UNL     1       7.009   4.704  14.133  0.00  0.00    +0.000 C 
ATOM     20  C   UNL     1       6.763   5.328  15.292  0.00  0.00    +0.000 C 
ENDBRANCH  17  20
ENDBRANCH  16  17
BRANCH  16  21
ATOM     21  C   UNL     1       7.296   5.305  18.200  0.00  0.00    +0.000 C 
ATOM     22  O   UNL     1       8.307   5.010  18.816  0.00  0.00    +0.000 OA
BRANCH  21  23
ATOM     23  O   UNL     1       6.892   6.589  17.959  0.00  0.00    +0.000 OA
ATOM     24  C   UNL     1       7.937   7.566  18.025  0.00  0.00    +0.000 C 
ENDBRANCH  21  23
ENDBRANCH  16  21
ENDBRANCH   1  16
TORSDOF 8
ENDMDL
MODEL 6
REMARK VINA RESULT:      -5.7      1.075      1.180
REMARK  Name = 
REMARK  12 active torsions:
REMARK  status: ('A' for Active; 'I' for Inactive)
REMARK    1  A    between atoms: C_2  and  C_3
REMARK    2  A    between atoms: C_3  and  C_4
REMARK    3  A    between atoms: C_3  and  C_5
REMARK    4  A    between atoms: C_5  and  C_6
REMARK    5  A    between atoms: C_5  and  S_10
REMARK    6  A    between atoms: C_6  and  O_8
REMARK    7  A    between atoms: O_8  and  C_9
REMARK    8  A    between atoms: S_10  and  C_13
REMARK    9  A    between atoms: N_19  and  C_20
REMARK   10  A    between atoms: N_19  and  C_22
REMARK   11  A    between atoms: C_20  and  C_21
REMARK   12  A    between atoms: C_22  and  C_23
REMARK                            x       y       z     vdW  Elec       q    Type
REMARK                         _______ _______ _______ _____ _____    ______ ____
ROOT
ATOM      1  S   UNL     1       3.270   5.267  18.821  0.00  0.00    +0.000 S 
ATOM      2  O   UNL     1       2.402   5.958  17.888  0.00  0.00    +0.000 OA
ATOM      3  O   UNL     1       3.628   5.884  20.091  0.00  0.00    +0.000 OA
ENDROOT
BRANCH   1   4
ATOM      4  C   UNL     1       4.831   5.114  18.002  0.00  0.00    +0.000 A 
ATOM      5  N   UNL     1       5.893   4.461  18.590  0.00  0.00    +0.000 NA
ATOM      6  C   UNL     1       6.807   4.465  17.654  0.00  0.00    +0.000 A 
ATOM      7  N   UNL     1       6.328   5.049  16.508  0.00  0.00    +0.000 N 
ATOM      8  C   UNL     1       7.121   5.548  15.459  0.00  0.00    +0.000 C 
ATOM      9  O   UNL     1       7.911   6.454  15.724  0.00  0.00    +0.000 OA
ATOM     10  N   UNL     1       7.012   4.889  14.228  0.00  0.00    +0.000 N 
ATOM     11  N   UNL     1       5.062   5.517  16.730  0.00  0.00    +0.000 NA
BRANCH  10  12
ATOM     12  C   UNL     1       6.302   3.621  13.982  0.00  0.00    +0.000 C 
ATOM     13  C   UNL     1       4.904   3.795  13.398  0.00  0.00    +0.000 C 
ENDBRANCH  10  12
BRANCH  10  14
ATOM     14  C   UNL     1       7.924   5.349  13.171  0.00  0.00    +0.000 C 
ATOM     15  C   UNL     1       7.566   4.807  11.795  0.00  0.00    +0.000 C 
ENDBRANCH  10  14
ENDBRANCH   1   4
BRANCH   1  16
ATOM     16  C   UNL     1       2.642   3.635  19.143  0.00  0.00    +0.000 C 
BRANCH  16  17
ATOM     17  C   UNL     1       1.240   3.701  19.811  0.00  0.00    +0.000 C 
ATOM     18  C   UNL     1       0.969   5.046  20.504  0.00  0.00    +0.000 C 
BRANCH  17  20
ATOM     19  C   UNL     1       1.758   2.534  21.981  0.00  0.00    +0.000 C 
ATOM     20  C   UNL     1       1.031   2.620  20.859  0.00  0.00    +0.000 C 
ENDBRANCH  17  20
ENDBRANCH  16  17
BRANCH  16  21
ATOM     21  C   UNL     1       2.597   2.908  17.826  0.00  0.00    +0.000 C 
ATOM     22  O   UNL     1       2.032   3.291  16.816  0.00  0.00    +0.000 OA
BRANCH  21  23
ATOM     23  O   UNL     1       3.277   1.725  17.921  0.00  0.00    +0.000 OA
ATOM     24  C   UNL     1       4.070   1.585  19.106  0.00  0.00    +0.000 C 
ENDBRANCH  21  23
ENDBRANCH  16  21
ENDBRANCH   1  16
TORSDOF 8
ENDMDL
MODEL 7
REMARK VINA RESULT:      -5.6      4.478      7.815
REMARK  Name = 
REMARK  12 active torsions:
REMARK  status: ('A' for Active; 'I' for Inactive)
REMARK    1  A    between atoms: C_2  and  C_3
REMARK    2  A    between atoms: C_3  and  C_4
REMARK    3  A    between atoms: C_3  and  C_5
REMARK    4  A    between atoms: C_5  and  C_6
REMARK    5  A    between atoms: C_5  and  S_10
REMARK    6  A    between atoms: C_6  and  O_8
REMARK    7  A    between atoms: O_8  and  C_9
REMARK    8  A    between atoms: S_10  and  C_13
REMARK    9  A    between atoms: N_19  and  C_20
REMARK   10  A    between atoms: N_19  and  C_22
REMARK   11  A    between atoms: C_20  and  C_21
REMARK   12  A    between atoms: C_22  and  C_23
REMARK                            x       y       z     vdW  Elec       q    Type
REMARK                         _______ _______ _______ _____ _____    ______ ____
ROOT
ATOM      1  S   UNL     1       2.877   6.043  18.475  0.00  0.00    +0.000 S 
ATOM      2  O   UNL     1       1.770   5.301  17.904  0.00  0.00    +0.000 OA
ATOM      3  O   UNL     1       3.262   5.841  19.865  0.00  0.00    +0.000 OA
ENDROOT
BRANCH   1   4
ATOM      4  C   UNL     1       2.382   7.742  18.445  0.00  0.00    +0.000 A 
ATOM      5  N   UNL     1       2.757   8.585  17.421  0.00  0.00    +0.000 NA
ATOM      6  C   UNL     1       2.122   9.695  17.695  0.00  0.00    +0.000 A 
ATOM      7  N   UNL     1       1.340   9.547  18.812  0.00  0.00    +0.000 N 
ATOM      8  C   UNL     1       0.827  10.601  19.590  0.00  0.00    +0.000 C 
ATOM      9  O   UNL     1       1.635  11.362  20.120  0.00  0.00    +0.000 OA
ATOM     10  N   UNL     1      -0.566  10.747  19.599  0.00  0.00    +0.000 N 
ATOM     11  N   UNL     1       1.531   8.299  19.339  0.00  0.00    +0.000 NA
BRANCH  10  12
ATOM     12  C   UNL     1      -1.520  10.034  18.731  0.00  0.00    +0.000 C 
ATOM     13  C   UNL     1      -2.478  10.950  17.977  0.00  0.00    +0.000 C 
ENDBRANCH  10  12
BRANCH  10  14
ATOM     14  C   UNL     1      -1.083  11.915  20.326  0.00  0.00    +0.000 C 
ATOM     15  C   UNL     1      -1.295  11.651  21.809  0.00  0.00    +0.000 C 
ENDBRANCH  10  14
ENDBRANCH   1   4
BRANCH   1  16
ATOM     16  C   UNL     1       4.323   5.861  17.456  0.00  0.00    +0.000 C 
BRANCH  16  17
ATOM     17  C   UNL     1       5.574   6.462  18.155  0.00  0.00    +0.000 C 
ATOM     18  C   UNL     1       6.498   7.216  17.185  0.00  0.00    +0.000 C 
BRANCH  17  20
ATOM     19  C   UNL     1       7.723   5.595  19.140  0.00  0.00    +0.000 C 
ATOM     20  C   UNL     1       6.430   5.411  18.844  0.00  0.00    +0.000 C 
ENDBRANCH  17  20
ENDBRANCH  16  17
BRANCH  16  21
ATOM     21  C   UNL     1       4.491   4.391  17.182  0.00  0.00    +0.000 C 
ATOM     22  O   UNL     1       4.420   3.496  18.009  0.00  0.00    +0.000 OA
BRANCH  21  23
ATOM     23  O   UNL     1       4.756   4.189  15.856  0.00  0.00    +0.000 OA
ATOM     24  C   UNL     1       6.115   3.846  15.563  0.00  0.00    +0.000 C 
ENDBRANCH  21  23
ENDBRANCH  16  21
ENDBRANCH   1  16
TORSDOF 8
ENDMDL
MODEL 8
REMARK VINA RESULT:      -5.5      3.202      7.291
REMARK  Name = 
REMARK  12 active torsions:
REMARK  status: ('A' for Active; 'I' for Inactive)
REMARK    1  A    between atoms: C_2  and  C_3
REMARK    2  A    between atoms: C_3  and  C_4
REMARK    3  A    between atoms: C_3  and  C_5
REMARK    4  A    between atoms: C_5  and  C_6
REMARK    5  A    between atoms: C_5  and  S_10
REMARK    6  A    between atoms: C_6  and  O_8
REMARK    7  A    between atoms: O_8  and  C_9
REMARK    8  A    between atoms: S_10  and  C_13
REMARK    9  A    between atoms: N_19  and  C_20
REMARK   10  A    between atoms: N_19  and  C_22
REMARK   11  A    between atoms: C_20  and  C_21
REMARK   12  A    between atoms: C_22  and  C_23
REMARK                            x       y       z     vdW  Elec       q    Type
REMARK                         _______ _______ _______ _____ _____    ______ ____
ROOT
ATOM      1  S   UNL     1       5.589   4.857  18.659  0.00  0.00    +0.000 S 
ATOM      2  O   UNL     1       5.228   3.456  18.747  0.00  0.00    +0.000 OA
ATOM      3  O   UNL     1       6.168   5.543  19.807  0.00  0.00    +0.000 OA
ENDROOT
BRANCH   1   4
ATOM      4  C   UNL     1       4.072   5.729  18.402  0.00  0.00    +0.000 A 
ATOM      5  N   UNL     1       2.960   5.105  17.876  0.00  0.00    +0.000 NA
ATOM      6  C   UNL     1       2.036   6.028  17.941  0.00  0.00    +0.000 A 
ATOM      7  N   UNL     1       2.524   7.167  18.528  0.00  0.00    +0.000 N 
ATOM      8  C   UNL     1       1.944   8.445  18.429  0.00  0.00    +0.000 C 
ATOM      9  O   UNL     1       1.838   8.935  17.305  0.00  0.00    +0.000 OA
ATOM     10  N   UNL     1       1.442   8.996  19.615  0.00  0.00    +0.000 N 
ATOM     11  N   UNL     1       3.857   7.008  18.793  0.00  0.00    +0.000 NA
BRANCH  10  12
ATOM     12  C   UNL     1       1.291   8.294  20.902  0.00  0.00    +0.000 C 
ATOM     13  C   UNL     1      -0.027   8.579  21.614  0.00  0.00    +0.000 C 
ENDBRANCH  10  12
BRANCH  10  14
ATOM     14  C   UNL     1       0.742  10.281  19.479  0.00  0.00    +0.000 C 
ATOM     15  C   UNL     1      -0.577  10.166  18.729  0.00  0.00    +0.000 C 
ENDBRANCH  10  14
ENDBRANCH   1   4
BRANCH   1  16
ATOM     16  C   UNL     1       6.640   5.129  17.251  0.00  0.00    +0.000 C 
BRANCH  16  17
ATOM     17  C   UNL     1       5.935   4.685  15.938  0.00  0.00    +0.000 C 
ATOM     18  C   UNL     1       5.469   3.222  15.974  0.00  0.00    +0.000 C 
BRANCH  17  20
ATOM     19  C   UNL     1       6.605   4.174  13.565  0.00  0.00    +0.000 C 
ATOM     20  C   UNL     1       6.822   4.830  14.712  0.00  0.00    +0.000 C 
ENDBRANCH  17  20
ENDBRANCH  16  17
BRANCH  16  21
ATOM     21  C   UNL     1       6.985   6.594  17.229  0.00  0.00    +0.000 C 
ATOM     22  O   UNL     1       6.445   7.445  16.542  0.00  0.00    +0.000 OA
BRANCH  21  23
ATOM     23  O   UNL     1       8.017   6.845  18.090  0.00  0.00    +0.000 OA
ATOM     24  C   UNL     1       8.331   8.232  18.259  0.00  0.00    +0.000 C 
ENDBRANCH  21  23
ENDBRANCH  16  21
ENDBRANCH   1  16
TORSDOF 8
ENDMDL
MODEL 9
REMARK VINA RESULT:      -5.5      4.930      7.781
REMARK  Name = 
REMARK  12 active torsions:
REMARK  status: ('A' for Active; 'I' for Inactive)
REMARK    1  A    between atoms: C_2  and  C_3
REMARK    2  A    between atoms: C_3  and  C_4
REMARK    3  A    between atoms: C_3  and  C_5
REMARK    4  A    between atoms: C_5  and  C_6
REMARK    5  A    between atoms: C_5  and  S_10
REMARK    6  A    between atoms: C_6  and  O_8
REMARK    7  A    between atoms: O_8  and  C_9
REMARK    8  A    between atoms: S_10  and  C_13
REMARK    9  A    between atoms: N_19  and  C_20
REMARK   10  A    between atoms: N_19  and  C_22
REMARK   11  A    between atoms: C_20  and  C_21
REMARK   12  A    between atoms: C_22  and  C_23
REMARK                            x       y       z     vdW  Elec       q    Type
REMARK                         _______ _______ _______ _____ _____    ______ ____
ROOT
ATOM      1  S   UNL     1       0.781   8.755  21.207  0.00  0.00    +0.000 S 
ATOM      2  O   UNL     1       1.703   8.911  22.313  0.00  0.00    +0.000 OA
ATOM      3  O   UNL     1      -0.563   8.238  21.434  0.00  0.00    +0.000 OA
ENDROOT
BRANCH   1   4
ATOM      4  C   UNL     1       1.500   7.531  20.151  0.00  0.00    +0.000 A 
ATOM      5  N   UNL     1       2.597   7.811  19.364  0.00  0.00    +0.000 NA
ATOM      6  C   UNL     1       2.889   6.655  18.828  0.00  0.00    +0.000 A 
ATOM      7  N   UNL     1       2.049   5.676  19.293  0.00  0.00    +0.000 N 
ATOM      8  C   UNL     1       1.833   4.429  18.676  0.00  0.00    +0.000 C 
ATOM      9  O   UNL     1       1.379   4.432  17.532  0.00  0.00    +0.000 OA
ATOM     10  N   UNL     1       2.259   3.301  19.387  0.00  0.00    +0.000 N 
ATOM     11  N   UNL     1       1.112   6.234  20.119  0.00  0.00    +0.000 NA
BRANCH  10  12
ATOM     12  C   UNL     1       3.074   3.304  20.615  0.00  0.00    +0.000 C 
ATOM     13  C   UNL     1       2.295   2.961  21.880  0.00  0.00    +0.000 C 
ENDBRANCH  10  12
BRANCH  10  14
ATOM     14  C   UNL     1       2.128   2.015  18.687  0.00  0.00    +0.000 C 
ATOM     15  C   UNL     1       3.443   1.511  18.112  0.00  0.00    +0.000 C 
ENDBRANCH  10  14
ENDBRANCH   1   4
BRANCH   1  16
ATOM     16  C   UNL     1       0.654  10.277  20.298  0.00  0.00    +0.000 C 
BRANCH  16  17
ATOM     17  C   UNL     1      -0.571  10.253  19.340  0.00  0.00    +0.000 C 
ATOM     18  C   UNL     1      -0.230   9.701  17.947  0.00  0.00    +0.000 C 
BRANCH  17  20
ATOM     19  C   UNL     1      -2.502  11.836  19.022  0.00  0.00    +0.000 C 
ATOM     20  C   UNL     1      -1.184  11.627  19.128  0.00  0.00    +0.000 C 
ENDBRANCH  17  20
ENDBRANCH  16  17
BRANCH  16  21
ATOM     21  C   UNL     1       0.549  11.390  21.306  0.00  0.00    +0.000 C 
ATOM     22  O   UNL     1       1.274  12.368  21.370  0.00  0.00    +0.000 OA
BRANCH  21  23
ATOM     23  O   UNL     1      -0.483  11.143  22.170  0.00  0.00    +0.000 OA
ATOM     24  C   UNL     1      -1.056  12.313  22.765  0.00  0.00    +0.000 C 
ENDBRANCH  21  23
ENDBRANCH  16  21
ENDBRANCH   1  16
TORSDOF 8
ENDMDL
