MODEL 1
REMARK VINA RESULT:      -7.7      0.000      0.000
REMARK  Name = 
REMARK  4 active torsions:
REMARK  status: ('A' for Active; 'I' for Inactive)
REMARK    1  A    between atoms: C_2  and  C_4
REMARK    2  A    between atoms: C_7  and  C_8
REMARK    3  A    between atoms: C_10  and  C_11
REMARK    4  A    between atoms: C_19  and  N_20
REMARK                            x       y       z     vdW  Elec       q    Type
REMARK                         _______ _______ _______ _____ _____    ______ ____
ROOT
ATOM      1  C   UNL     1       4.220   4.946  18.057  0.00  0.00    +0.000 A 
ATOM      2  C   UNL     1       3.521   6.130  18.375  0.00  0.00    +0.000 A 
ATOM      3  C   UNL     1       2.714   6.260  19.515  0.00  0.00    +0.000 A 
ATOM      4  C   UNL     1       2.645   5.129  20.316  0.00  0.00    +0.000 A 
ATOM      5  N   UNL     1       3.271   3.956  20.059  0.00  0.00    +0.000 NA
ATOM      6  C   UNL     1       4.042   3.879  18.953  0.00  0.00    +0.000 A 
ENDROOT
BRANCH   1  10
ATOM      7  C   UNL     1       6.705   4.950  14.509  0.00  0.00    +0.000 A 
ATOM      8  C   UNL     1       7.116   5.612  15.666  0.00  0.00    +0.000 A 
ATOM      9  C   UNL     1       6.318   5.574  16.814  0.00  0.00    +0.000 A 
ATOM     10  C   UNL     1       5.072   4.911  16.837  0.00  0.00    +0.000 A 
ATOM     11  C   UNL     1       4.672   4.272  15.650  0.00  0.00    +0.000 A 
ATOM     12  C   UNL     1       5.479   4.280  14.505  0.00  0.00    +0.000 A 
BRANCH   7  14
ATOM     13  N   UNL     1       8.599   5.805  13.241  0.00  0.00    +0.000 N 
ATOM     14  C   UNL     1       7.521   4.965  13.269  0.00  0.00    +0.000 C 
ATOM     15  O   UNL     1       7.267   4.234  12.321  0.00  0.00    +0.000 OA
ATOM     16  H   UNL     1       9.204   5.729  12.432  0.00  0.00    +0.000 HD
ATOM     17  H   UNL     1       8.980   6.229  14.074  0.00  0.00    +0.000 HD
ENDBRANCH   7  14
ENDBRANCH   1  10
BRANCH   3  18
ATOM     18  C   UNL     1       2.000   7.514  19.800  0.00  0.00    +0.000 A 
ATOM     19  C   UNL     1       1.381   7.785  21.020  0.00  0.00    +0.000 A 
ATOM     20  C   UNL     1       0.681   8.980  21.181  0.00  0.00    +0.000 A 
ATOM     21  C   UNL     1       0.617   9.883  20.130  0.00  0.00    +0.000 A 
ATOM     22  C   UNL     1       1.263   9.553  18.954  0.00  0.00    +0.000 A 
ATOM     23  N   UNL     1       1.945   8.403  18.770  0.00  0.00    +0.000 NA
ENDBRANCH   3  18
BRANCH   6  24
ATOM     24  N   UNL     1       4.625   2.626  18.772  0.00  0.00    +0.000 N 
ATOM     25  H   UNL     1       4.132   1.983  19.387  0.00  0.00    +0.000 HD
ATOM     26  H   UNL     1       5.620   2.652  18.959  0.00  0.00    +0.000 HD
ENDBRANCH   6  24
TORSDOF 4
ENDMDL
MODEL 2
REMARK VINA RESULT:      -7.6      0.574      1.028
REMARK  Name = 
REMARK  4 active torsions:
REMARK  status: ('A' for Active; 'I' for Inactive)
REMARK    1  A    between atoms: C_2  and  C_4
REMARK    2  A    between atoms: C_7  and  C_8
REMARK    3  A    between atoms: C_10  and  C_11
REMARK    4  A    between atoms: C_19  and  N_20
REMARK                            x       y       z     vdW  Elec       q    Type
REMARK                         _______ _______ _______ _____ _____    ______ ____
ROOT
ATOM      1  C   UNL     1       4.235   5.076  17.959  0.00  0.00    +0.000 A 
ATOM      2  C   UNL     1       3.518   6.261  18.231  0.00  0.00    +0.000 A 
ATOM      3  C   UNL     1       2.700   6.419  19.360  0.00  0.00    +0.000 A 
ATOM      4  C   UNL     1       2.639   5.315  20.198  0.00  0.00    +0.000 A 
ATOM      5  N   UNL     1       3.282   4.142  19.986  0.00  0.00    +0.000 NA
ATOM      6  C   UNL     1       4.063   4.038  18.890  0.00  0.00    +0.000 A 
ENDROOT
BRANCH   1  10
ATOM      7  C   UNL     1       6.747   4.992  14.432  0.00  0.00    +0.000 A 
ATOM      8  C   UNL     1       7.131   5.717  15.561  0.00  0.00    +0.000 A 
ATOM      9  C   UNL     1       6.324   5.707  16.703  0.00  0.00    +0.000 A 
ATOM     10  C   UNL     1       5.097   5.011  16.748  0.00  0.00    +0.000 A 
ATOM     11  C   UNL     1       4.726   4.308  15.589  0.00  0.00    +0.000 A 
ATOM     12  C   UNL     1       5.542   4.287  14.450  0.00  0.00    +0.000 A 
BRANCH   7  14
ATOM     13  N   UNL     1       8.666   5.796  13.166  0.00  0.00    +0.000 N 
ATOM     14  C   UNL     1       7.573   4.975  13.199  0.00  0.00    +0.000 C 
ATOM     15  O   UNL     1       7.314   4.233  12.259  0.00  0.00    +0.000 OA
ATOM     16  H   UNL     1       9.276   5.697  12.363  0.00  0.00    +0.000 HD
ATOM     17  H   UNL     1       9.048   6.225  13.995  0.00  0.00    +0.000 HD
ENDBRANCH   7  14
ENDBRANCH   1  10
BRANCH   3  18
ATOM     18  C   UNL     1       1.967   7.673  19.596  0.00  0.00    +0.000 A 
ATOM     19  C   UNL     1       1.809   8.663  18.626  0.00  0.00    +0.000 A 
ATOM     20  C   UNL     1       1.144   9.843  18.957  0.00  0.00    +0.000 A 
ATOM     21  C   UNL     1       0.643  10.010  20.240  0.00  0.00    +0.000 A 
ATOM     22  C   UNL     1       0.827   8.983  21.144  0.00  0.00    +0.000 A 
ATOM     23  N   UNL     1       1.469   7.832  20.853  0.00  0.00    +0.000 NA
ENDBRANCH   3  18
BRANCH   6  24
ATOM     24  N   UNL     1       4.663   2.787  18.757  0.00  0.00    +0.000 N 
ATOM     25  H   UNL     1       5.356   2.872  18.018  0.00  0.00    +0.000 HD
ATOM     26  H   UNL     1       3.977   2.068  18.562  0.00  0.00    +0.000 HD
ENDBRANCH   6  24
TORSDOF 4
ENDMDL
MODEL 3
REMARK VINA RESULT:      -7.5      1.170      1.321
REMARK  Name = 
REMARK  4 active torsions:
REMARK  status: ('A' for Active; 'I' for Inactive)
REMARK    1  A    between atoms: C_2  and  C_4
REMARK    2  A    between atoms: C_7  and  C_8
REMARK    3  A    between atoms: C_10  and  C_11
REMARK    4  A    between atoms: C_19  and  N_20
REMARK                            x       y       z     vdW  Elec       q    Type
REMARK                         _______ _______ _______ _____ _____    ______ ____
ROOT
ATOM      1  C   UNL     1       3.495   5.323  18.853  0.00  0.00    +0.000 A 
ATOM      2  C   UNL     1       2.896   6.582  19.073  0.00  0.00    +0.000 A 
ATOM      3  C   UNL     1       2.049   6.848  20.159  0.00  0.00    +0.000 A 
ATOM      4  C   UNL     1       1.833   5.774  21.010  0.00  0.00    +0.000 A 
ATOM      5  N   UNL     1       2.357   4.535  20.847  0.00  0.00    +0.000 NA
ATOM      6  C   UNL     1       3.171   4.328  19.791  0.00  0.00    +0.000 A 
ENDROOT
BRANCH   1  10
ATOM      7  C   UNL     1       6.109   4.899  15.426  0.00  0.00    +0.000 A 
ATOM      8  C   UNL     1       6.292   5.942  16.335  0.00  0.00    +0.000 A 
ATOM      9  C   UNL     1       5.460   6.046  17.455  0.00  0.00    +0.000 A 
ATOM     10  C   UNL     1       4.400   5.143  17.685  0.00  0.00    +0.000 A 
ATOM     11  C   UNL     1       4.225   4.116  16.741  0.00  0.00    +0.000 A 
ATOM     12  C   UNL     1       5.073   3.987  15.633  0.00  0.00    +0.000 A 
BRANCH   7  14
ATOM     13  N   UNL     1       6.681   3.725  13.371  0.00  0.00    +0.000 N 
ATOM     14  C   UNL     1       6.970   4.752  14.225  0.00  0.00    +0.000 C 
ATOM     15  O   UNL     1       7.881   5.535  13.985  0.00  0.00    +0.000 OA
ATOM     16  H   UNL     1       7.210   3.700  12.507  0.00  0.00    +0.000 HD
ATOM     17  H   UNL     1       5.807   3.223  13.400  0.00  0.00    +0.000 HD
ENDBRANCH   7  14
ENDBRANCH   1  10
BRANCH   3  18
ATOM     18  C   UNL     1       1.443   8.177  20.341  0.00  0.00    +0.000 A 
ATOM     19  C   UNL     1       0.863   8.598  21.537  0.00  0.00    +0.000 A 
ATOM     20  C   UNL     1       0.266   9.856  21.600  0.00  0.00    +0.000 A 
ATOM     21  C   UNL     1       0.263  10.671  20.477  0.00  0.00    +0.000 A 
ATOM     22  C   UNL     1       0.865  10.191  19.330  0.00  0.00    +0.000 A 
ATOM     23  N   UNL     1       1.449   8.977  19.240  0.00  0.00    +0.000 NA
ENDBRANCH   3  18
BRANCH   6  24
ATOM     24  N   UNL     1       3.641   3.018  19.705  0.00  0.00    +0.000 N 
ATOM     25  H   UNL     1       2.857   2.411  19.927  0.00  0.00    +0.000 HD
ATOM     26  H   UNL     1       4.432   2.869  20.322  0.00  0.00    +0.000 HD
ENDBRANCH   6  24
TORSDOF 4
ENDMDL
MODEL 4
REMARK VINA RESULT:      -7.5      1.265      1.618
REMARK  Name = 
REMARK  4 active torsions:
REMARK  status: ('A' for Active; 'I' for Inactive)
REMARK    1  A    between atoms: C_2  and  C_4
REMARK    2  A    between atoms: C_7  and  C_8
REMARK    3  A    between atoms: C_10  and  C_11
REMARK    4  A    between atoms: C_19  and  N_20
REMARK                            x       y       z     vdW  Elec       q    Type
REMARK                         _______ _______ _______ _____ _____    ______ ____
ROOT
ATOM      1  C   UNL     1       3.290   5.323  18.677  0.00  0.00    +0.000 A 
ATOM      2  C   UNL     1       2.789   6.603  19.003  0.00  0.00    +0.000 A 
ATOM      3  C   UNL     1       1.980   6.846  20.123  0.00  0.00    +0.000 A 
ATOM      4  C   UNL     1       1.696   5.728  20.894  0.00  0.00    +0.000 A 
ATOM      5  N   UNL     1       2.125   4.471  20.628  0.00  0.00    +0.000 NA
ATOM      6  C   UNL     1       2.906   4.286  19.543  0.00  0.00    +0.000 A 
ENDROOT
BRANCH   1  10
ATOM      7  C   UNL     1       5.892   4.811  15.253  0.00  0.00    +0.000 A 
ATOM      8  C   UNL     1       5.415   3.703  15.956  0.00  0.00    +0.000 A 
ATOM      9  C   UNL     1       4.549   3.885  17.039  0.00  0.00    +0.000 A 
ATOM     10  C   UNL     1       4.161   5.168  17.481  0.00  0.00    +0.000 A 
ATOM     11  C   UNL     1       4.675   6.265  16.768  0.00  0.00    +0.000 A 
ATOM     12  C   UNL     1       5.519   6.092  15.663  0.00  0.00    +0.000 A 
BRANCH   7  14
ATOM     13  N   UNL     1       6.534   3.670  13.199  0.00  0.00    +0.000 N 
ATOM     14  C   UNL     1       6.812   4.663  14.097  0.00  0.00    +0.000 C 
ATOM     15  O   UNL     1       7.762   5.417  13.930  0.00  0.00    +0.000 OA
ATOM     16  H   UNL     1       7.109   3.648  12.365  0.00  0.00    +0.000 HD
ATOM     17  H   UNL     1       5.642   3.200  13.167  0.00  0.00    +0.000 HD
ENDBRANCH   7  14
ENDBRANCH   1  10
BRANCH   3  18
ATOM     18  C   UNL     1       1.477   8.197  20.416  0.00  0.00    +0.000 A 
ATOM     19  C   UNL     1       1.093   8.613  21.690  0.00  0.00    +0.000 A 
ATOM     20  C   UNL     1       0.578   9.897  21.864  0.00  0.00    +0.000 A 
ATOM     21  C   UNL     1       0.463  10.742  20.770  0.00  0.00    +0.000 A 
ATOM     22  C   UNL     1       0.873  10.267  19.540  0.00  0.00    +0.000 A 
ATOM     23  N   UNL     1       1.372   9.028  19.343  0.00  0.00    +0.000 NA
ENDBRANCH   3  18
BRANCH   6  24
ATOM     24  N   UNL     1       3.276   2.956  19.349  0.00  0.00    +0.000 N 
ATOM     25  H   UNL     1       2.493   2.386  19.660  0.00  0.00    +0.000 HD
ATOM     26  H   UNL     1       4.133   2.736  19.843  0.00  0.00    +0.000 HD
ENDBRANCH   6  24
TORSDOF 4
ENDMDL
MODEL 5
REMARK VINA RESULT:      -7.5      3.713      7.968
REMARK  Name = 
REMARK  4 active torsions:
REMARK  status: ('A' for Active; 'I' for Inactive)
REMARK    1  A    between atoms: C_2  and  C_4
REMARK    2  A    between atoms: C_7  and  C_8
REMARK    3  A    between atoms: C_10  and  C_11
REMARK    4  A    between atoms: C_19  and  N_20
REMARK                            x       y       z     vdW  Elec       q    Type
REMARK                         _______ _______ _______ _____ _____    ______ ____
ROOT
ATOM      1  C   UNL     1       5.489   4.769  16.728  0.00  0.00    +0.000 A 
ATOM      2  C   UNL     1       5.311   4.119  15.488  0.00  0.00    +0.000 A 
ATOM      3  C   UNL     1       6.150   4.331  14.384  0.00  0.00    +0.000 A 
ATOM      4  C   UNL     1       7.177   5.239  14.596  0.00  0.00    +0.000 A 
ATOM      5  N   UNL     1       7.393   5.914  15.751  0.00  0.00    +0.000 NA
ATOM      6  C   UNL     1       6.563   5.673  16.788  0.00  0.00    +0.000 A 
ENDROOT
BRANCH   1  10
ATOM      7  C   UNL     1       2.789   3.770  19.964  0.00  0.00    +0.000 A 
ATOM      8  C   UNL     1       3.997   3.088  19.810  0.00  0.00    +0.000 A 
ATOM      9  C   UNL     1       4.873   3.445  18.779  0.00  0.00    +0.000 A 
ATOM     10  C   UNL     1       4.561   4.460  17.850  0.00  0.00    +0.000 A 
ATOM     11  C   UNL     1       3.328   5.115  18.016  0.00  0.00    +0.000 A 
ATOM     12  C   UNL     1       2.458   4.784  19.064  0.00  0.00    +0.000 A 
BRANCH   7  14
ATOM     13  N   UNL     1       0.543   3.156  20.675  0.00  0.00    +0.000 N 
ATOM     14  C   UNL     1       1.831   3.423  21.044  0.00  0.00    +0.000 C 
ATOM     15  O   UNL     1       2.181   3.345  22.215  0.00  0.00    +0.000 OA
ATOM     16  H   UNL     1      -0.072   2.822  21.408  0.00  0.00    +0.000 HD
ATOM     17  H   UNL     1       0.278   2.969  19.719  0.00  0.00    +0.000 HD
ENDBRANCH   7  14
ENDBRANCH   1  10
BRANCH   3  18
ATOM     18  C   UNL     1       5.918   3.633  13.110  0.00  0.00    +0.000 A 
ATOM     19  C   UNL     1       4.666   3.540  12.503  0.00  0.00    +0.000 A 
ATOM     20  C   UNL     1       4.532   2.812  11.322  0.00  0.00    +0.000 A 
ATOM     21  C   UNL     1       5.645   2.200  10.764  0.00  0.00    +0.000 A 
ATOM     22  C   UNL     1       6.855   2.345  11.414  0.00  0.00    +0.000 A 
ATOM     23  N   UNL     1       7.013   3.040  12.560  0.00  0.00    +0.000 NA
ENDBRANCH   3  18
BRANCH   6  24
ATOM     24  N   UNL     1       6.860   6.429  17.920  0.00  0.00    +0.000 N 
ATOM     25  H   UNL     1       6.719   5.823  18.723  0.00  0.00    +0.000 HD
ATOM     26  H   UNL     1       6.290   7.266  17.963  0.00  0.00    +0.000 HD
ENDBRANCH   6  24
TORSDOF 4
ENDMDL
MODEL 6
REMARK VINA RESULT:      -7.5      0.724      1.255
REMARK  Name = 
REMARK  4 active torsions:
REMARK  status: ('A' for Active; 'I' for Inactive)
REMARK    1  A    between atoms: C_2  and  C_4
REMARK    2  A    between atoms: C_7  and  C_8
REMARK    3  A    between atoms: C_10  and  C_11
REMARK    4  A    between atoms: C_19  and  N_20
REMARK                            x       y       z     vdW  Elec       q    Type
REMARK                         _______ _______ _______ _____ _____    ______ ____
ROOT
ATOM      1  C   UNL     1       4.131   5.042  18.230  0.00  0.00    +0.000 A 
ATOM      2  C   UNL     1       3.402   6.201  18.575  0.00  0.00    +0.000 A 
ATOM      3  C   UNL     1       2.589   6.283  19.716  0.00  0.00    +0.000 A 
ATOM      4  C   UNL     1       2.546   5.131  20.488  0.00  0.00    +0.000 A 
ATOM      5  N   UNL     1       3.201   3.980  20.204  0.00  0.00    +0.000 NA
ATOM      6  C   UNL     1       3.976   3.950  19.100  0.00  0.00    +0.000 A 
ENDROOT
BRANCH   1  10
ATOM      7  C   UNL     1       6.611   4.984  14.680  0.00  0.00    +0.000 A 
ATOM      8  C   UNL     1       5.362   4.362  14.685  0.00  0.00    +0.000 A 
ATOM      9  C   UNL     1       4.559   4.418  15.829  0.00  0.00    +0.000 A 
ATOM     10  C   UNL     1       4.986   5.058  17.012  0.00  0.00    +0.000 A 
ATOM     11  C   UNL     1       6.258   5.656  16.986  0.00  0.00    +0.000 A 
ATOM     12  C   UNL     1       7.057   5.631  15.834  0.00  0.00    +0.000 A 
BRANCH   7  14
ATOM     13  N   UNL     1       7.152   4.089  12.481  0.00  0.00    +0.000 N 
ATOM     14  C   UNL     1       7.494   4.949  13.487  0.00  0.00    +0.000 C 
ATOM     15  O   UNL     1       8.471   5.681  13.387  0.00  0.00    +0.000 OA
ATOM     16  H   UNL     1       7.704   4.151  11.633  0.00  0.00    +0.000 HD
ATOM     17  H   UNL     1       6.241   3.662  12.417  0.00  0.00    +0.000 HD
ENDBRANCH   7  14
ENDBRANCH   1  10
BRANCH   3  18
ATOM     18  C   UNL     1       1.843   7.512  20.028  0.00  0.00    +0.000 A 
ATOM     19  C   UNL     1       1.155   7.708  21.226  0.00  0.00    +0.000 A 
ATOM     20  C   UNL     1       0.431   8.885  21.413  0.00  0.00    +0.000 A 
ATOM     21  C   UNL     1       0.413   9.844  20.411  0.00  0.00    +0.000 A 
ATOM     22  C   UNL     1       1.126   9.586  19.256  0.00  0.00    +0.000 A 
ATOM     23  N   UNL     1       1.832   8.455  19.047  0.00  0.00    +0.000 NA
ENDBRANCH   3  18
BRANCH   6  24
ATOM     24  N   UNL     1       4.590   2.716  18.890  0.00  0.00    +0.000 N 
ATOM     25  H   UNL     1       3.850   2.020  18.869  0.00  0.00    +0.000 HD
ATOM     26  H   UNL     1       5.282   2.522  19.605  0.00  0.00    +0.000 HD
ENDBRANCH   6  24
TORSDOF 4
ENDMDL
MODEL 7
REMARK VINA RESULT:      -7.4      1.409      1.954
REMARK  Name = 
REMARK  4 active torsions:
REMARK  status: ('A' for Active; 'I' for Inactive)
REMARK    1  A    between atoms: C_2  and  C_4
REMARK    2  A    between atoms: C_7  and  C_8
REMARK    3  A    between atoms: C_10  and  C_11
REMARK    4  A    between atoms: C_19  and  N_20
REMARK                            x       y       z     vdW  Elec       q    Type
REMARK                         _______ _______ _______ _____ _____    ______ ____
ROOT
ATOM      1  C   UNL     1       3.260   5.390  18.707  0.00  0.00    +0.000 A 
ATOM      2  C   UNL     1       2.742   6.671  18.999  0.00  0.00    +0.000 A 
ATOM      3  C   UNL     1       1.934   6.933  20.115  0.00  0.00    +0.000 A 
ATOM      4  C   UNL     1       1.670   5.833  20.918  0.00  0.00    +0.000 A 
ATOM      5  N   UNL     1       2.115   4.575  20.685  0.00  0.00    +0.000 NA
ATOM      6  C   UNL     1       2.894   4.371  19.602  0.00  0.00    +0.000 A 
ENDROOT
BRANCH   1  10
ATOM      7  C   UNL     1       5.854   4.817  15.285  0.00  0.00    +0.000 A 
ATOM      8  C   UNL     1       5.369   3.722  16.002  0.00  0.00    +0.000 A 
ATOM      9  C   UNL     1       4.506   3.923  17.084  0.00  0.00    +0.000 A 
ATOM     10  C   UNL     1       4.129   5.214  17.511  0.00  0.00    +0.000 A 
ATOM     11  C   UNL     1       4.650   6.299  16.786  0.00  0.00    +0.000 A 
ATOM     12  C   UNL     1       5.491   6.106  15.681  0.00  0.00    +0.000 A 
BRANCH   7  14
ATOM     13  N   UNL     1       6.494   3.638  13.254  0.00  0.00    +0.000 N 
ATOM     14  C   UNL     1       6.771   4.649  14.131  0.00  0.00    +0.000 C 
ATOM     15  O   UNL     1       7.719   5.403  13.945  0.00  0.00    +0.000 OA
ATOM     16  H   UNL     1       7.067   3.600  12.419  0.00  0.00    +0.000 HD
ATOM     17  H   UNL     1       5.603   3.165  13.233  0.00  0.00    +0.000 HD
ENDBRANCH   7  14
ENDBRANCH   1  10
BRANCH   3  18
ATOM     18  C   UNL     1       1.414   8.285  20.373  0.00  0.00    +0.000 A 
ATOM     19  C   UNL     1       1.231   9.240  19.374  0.00  0.00    +0.000 A 
ATOM     20  C   UNL     1       0.782  10.514  19.721  0.00  0.00    +0.000 A 
ATOM     21  C   UNL     1       0.518  10.809  21.050  0.00  0.00    +0.000 A 
ATOM     22  C   UNL     1       0.711   9.810  21.984  0.00  0.00    +0.000 A 
ATOM     23  N   UNL     1       1.147   8.570  21.678  0.00  0.00    +0.000 NA
ENDBRANCH   3  18
BRANCH   6  24
ATOM     24  N   UNL     1       3.282   3.042  19.444  0.00  0.00    +0.000 N 
ATOM     25  H   UNL     1       3.606   2.944  18.485  0.00  0.00    +0.000 HD
ATOM     26  H   UNL     1       2.522   2.408  19.662  0.00  0.00    +0.000 HD
ENDBRANCH   6  24
TORSDOF 4
ENDMDL
MODEL 8
REMARK VINA RESULT:      -7.4      1.483      2.127
REMARK  Name = 
REMARK  4 active torsions:
REMARK  status: ('A' for Active; 'I' for Inactive)
REMARK    1  A    between atoms: C_2  and  C_4
REMARK    2  A    between atoms: C_7  and  C_8
REMARK    3  A    between atoms: C_10  and  C_11
REMARK    4  A    between atoms: C_19  and  N_20
REMARK                            x       y       z     vdW  Elec       q    Type
REMARK                         _______ _______ _______ _____ _____    ______ ____
ROOT
ATOM      1  C   UNL     1       3.170   6.005  18.793  0.00  0.00    +0.000 A 
ATOM      2  C   UNL     1       2.618   7.304  18.833  0.00  0.00    +0.000 A 
ATOM      3  C   UNL     1       1.758   7.740  19.851  0.00  0.00    +0.000 A 
ATOM      4  C   UNL     1       1.478   6.793  20.826  0.00  0.00    +0.000 A 
ATOM      5  N   UNL     1       1.955   5.525  20.838  0.00  0.00    +0.000 NA
ATOM      6  C   UNL     1       2.784   5.152  19.840  0.00  0.00    +0.000 A 
ENDROOT
BRANCH   1  10
ATOM      7  C   UNL     1       5.820   5.030  15.508  0.00  0.00    +0.000 A 
ATOM      8  C   UNL     1       5.810   6.314  16.057  0.00  0.00    +0.000 A 
ATOM      9  C   UNL     1       4.971   6.603  17.139  0.00  0.00    +0.000 A 
ATOM     10  C   UNL     1       4.093   5.642  17.683  0.00  0.00    +0.000 A 
ATOM     11  C   UNL     1       4.108   4.365  17.096  0.00  0.00    +0.000 A 
ATOM     12  C   UNL     1       4.966   4.057  16.031  0.00  0.00    +0.000 A 
BRANCH   7  14
ATOM     13  N   UNL     1       6.350   3.580  13.625  0.00  0.00    +0.000 N 
ATOM     14  C   UNL     1       6.694   4.681  14.360  0.00  0.00    +0.000 C 
ATOM     15  O   UNL     1       7.663   5.364  14.057  0.00  0.00    +0.000 OA
ATOM     16  H   UNL     1       6.895   3.415  12.787  0.00  0.00    +0.000 HD
ATOM     17  H   UNL     1       5.442   3.147  13.688  0.00  0.00    +0.000 HD
ENDBRANCH   7  14
ENDBRANCH   1  10
BRANCH   3  18
ATOM     18  C   UNL     1       1.203   9.102  19.845  0.00  0.00    +0.000 A 
ATOM     19  C   UNL     1       1.148   9.902  18.703  0.00  0.00    +0.000 A 
ATOM     20  C   UNL     1       0.654  11.202  18.803  0.00  0.00    +0.000 A 
ATOM     21  C   UNL     1       0.218  11.676  20.032  0.00  0.00    +0.000 A 
ATOM     22  C   UNL     1       0.293  10.824  21.117  0.00  0.00    +0.000 A 
ATOM     23  N   UNL     1       0.769   9.563  21.050  0.00  0.00    +0.000 NA
ENDBRANCH   3  18
BRANCH   6  24
ATOM     24  N   UNL     1       3.201   3.826  19.936  0.00  0.00    +0.000 N 
ATOM     25  H   UNL     1       2.480   3.328  20.452  0.00  0.00    +0.000 HD
ATOM     26  H   UNL     1       4.110   3.756  20.379  0.00  0.00    +0.000 HD
ENDBRANCH   6  24
TORSDOF 4
ENDMDL
MODEL 9
REMARK VINA RESULT:      -7.4      3.691      4.996
REMARK  Name = 
REMARK  4 active torsions:
REMARK  status: ('A' for Active; 'I' for Inactive)
REMARK    1  A    between atoms: C_2  and  C_4
REMARK    2  A    between atoms: C_7  and  C_8
REMARK    3  A    between atoms: C_10  and  C_11
REMARK    4  A    between atoms: C_19  and  N_20
REMARK                            x       y       z     vdW  Elec       q    Type
REMARK                         _______ _______ _______ _____ _____    ______ ____
ROOT
ATOM      1  C   UNL     1       2.448   7.265  19.016  0.00  0.00    +0.000 A 
ATOM      2  C   UNL     1       1.702   7.882  20.043  0.00  0.00    +0.000 A 
ATOM      3  C   UNL     1       1.166   9.174  19.931  0.00  0.00    +0.000 A 
ATOM      4  C   UNL     1       1.430   9.814  18.729  0.00  0.00    +0.000 A 
ATOM      5  N   UNL     1       2.156   9.291  17.712  0.00  0.00    +0.000 NA
ATOM      6  C   UNL     1       2.646   8.042  17.862  0.00  0.00    +0.000 A 
ENDROOT
BRANCH   1  10
ATOM      7  C   UNL     1       3.988   3.249  19.521  0.00  0.00    +0.000 A 
ATOM      8  C   UNL     1       4.856   4.338  19.443  0.00  0.00    +0.000 A 
ATOM      9  C   UNL     1       4.342   5.633  19.313  0.00  0.00    +0.000 A 
ATOM     10  C   UNL     1       2.955   5.881  19.218  0.00  0.00    +0.000 A 
ATOM     11  C   UNL     1       2.106   4.762  19.276  0.00  0.00    +0.000 A 
ATOM     12  C   UNL     1       2.612   3.465  19.436  0.00  0.00    +0.000 A 
BRANCH   7  14
ATOM     13  N   UNL     1       4.178   0.978  18.663  0.00  0.00    +0.000 N 
ATOM     14  C   UNL     1       4.492   1.859  19.659  0.00  0.00    +0.000 C 
ATOM     15  O   UNL     1       5.190   1.518  20.606  0.00  0.00    +0.000 OA
ATOM     16  H   UNL     1       4.614   0.065  18.720  0.00  0.00    +0.000 HD
ATOM     17  H   UNL     1       3.827   1.275  17.765  0.00  0.00    +0.000 HD
ENDBRANCH   7  14
ENDBRANCH   1  10
BRANCH   3  18
ATOM     18  C   UNL     1       0.400   9.775  21.034  0.00  0.00    +0.000 A 
ATOM     19  C   UNL     1       0.281   9.190  22.294  0.00  0.00    +0.000 A 
ATOM     20  C   UNL     1      -0.510   9.807  23.262  0.00  0.00    +0.000 A 
ATOM     21  C   UNL     1      -1.160  10.995  22.960  0.00  0.00    +0.000 A 
ATOM     22  C   UNL     1      -0.988  11.522  21.695  0.00  0.00    +0.000 A 
ATOM     23  N   UNL     1      -0.230  10.945  20.738  0.00  0.00    +0.000 NA
ENDBRANCH   3  18
BRANCH   6  24
ATOM     24  N   UNL     1       3.391   7.607  16.768  0.00  0.00    +0.000 N 
ATOM     25  H   UNL     1       2.767   7.616  15.966  0.00  0.00    +0.000 HD
ATOM     26  H   UNL     1       3.791   6.691  16.936  0.00  0.00    +0.000 HD
ENDBRANCH   6  24
TORSDOF 4
ENDMDL
