MODEL 1
REMARK VINA RESULT:      -7.9      0.000      0.000
REMARK  Name = 
REMARK  3 active torsions:
REMARK  status: ('A' for Active; 'I' for Inactive)
REMARK    1  A    between atoms: C_5  and  C_6
REMARK    2  A    between atoms: C_6  and  N_7
REMARK    3  A    between atoms: C_8  and  C_9
REMARK                            x       y       z     vdW  Elec       q    Type
REMARK                         _______ _______ _______ _____ _____    ______ ____
ROOT
ATOM      1  N   UNL     1       5.946   4.572  17.112  0.00  0.00    +0.000 N 
ATOM      2  C   UNL     1       5.553   4.474  15.793  0.00  0.00    +0.000 A 
ATOM      3  N   UNL     1       4.252   4.264  15.708  0.00  0.00    +0.000 NA
ATOM      4  C   UNL     1       3.788   4.219  16.992  0.00  0.00    +0.000 A 
ATOM      5  C   UNL     1       2.479   4.012  17.448  0.00  0.00    +0.000 A 
ATOM      6  C   UNL     1       2.255   3.961  18.825  0.00  0.00    +0.000 A 
ATOM      7  C   UNL     1       3.297   4.173  19.730  0.00  0.00    +0.000 A 
ATOM      8  C   UNL     1       4.602   4.434  19.289  0.00  0.00    +0.000 A 
ATOM      9  C   UNL     1       4.821   4.417  17.903  0.00  0.00    +0.000 A 
ATOM     10  O   UNL     1       3.087   4.224  21.084  0.00  0.00    +0.000 OA
ATOM     11  C   UNL     1       2.669   2.959  21.604  0.00  0.00    +0.000 C 
ATOM     12  C   UNL     1       1.179   2.708  21.416  0.00  0.00    +0.000 C 
ATOM     13  C   UNL     1       0.821   2.539  19.947  0.00  0.00    +0.000 C 
ATOM     14  O   UNL     1       0.959   3.765  19.226  0.00  0.00    +0.000 OA
ENDROOT
BRANCH   2  15
ATOM     15  C   UNL     1       6.410   4.580  14.573  0.00  0.00    +0.000 A 
ATOM     16  C   UNL     1       6.205   3.775  13.465  0.00  0.00    +0.000 A 
ATOM     17  S   UNL     1       7.383   4.210  12.300  0.00  0.00    +0.000 S 
ATOM     18  N   UNL     1       8.063   5.379  13.286  0.00  0.00    +0.000 NA
ATOM     19  N   UNL     1       7.459   5.474  14.461  0.00  0.00    +0.000 NA
ENDBRANCH   2  15
BRANCH   1  20
ATOM     20  C   UNL     1       7.287   4.846  17.609  0.00  0.00    +0.000 C 
BRANCH  20  25
ATOM     21  C   UNL     1       7.136   7.387  17.077  0.00  0.00    +0.000 A 
ATOM     22  S   UNL     1       7.803   8.797  17.787  0.00  0.00    +0.000 S 
ATOM     23  N   UNL     1       8.584   7.936  18.986  0.00  0.00    +0.000 NA
ATOM     24  N   UNL     1       8.379   6.635  18.902  0.00  0.00    +0.000 NA
ATOM     25  C   UNL     1       7.552   6.298  17.833  0.00  0.00    +0.000 A 
ENDBRANCH  20  25
ENDBRANCH   1  20
TORSDOF 3
ENDMDL
MODEL 2
REMARK VINA RESULT:      -7.5      1.199      1.325
REMARK  Name = 
REMARK  3 active torsions:
REMARK  status: ('A' for Active; 'I' for Inactive)
REMARK    1  A    between atoms: C_5  and  C_6
REMARK    2  A    between atoms: C_6  and  N_7
REMARK    3  A    between atoms: C_8  and  C_9
REMARK                            x       y       z     vdW  Elec       q    Type
REMARK                         _______ _______ _______ _____ _____    ______ ____
ROOT
ATOM      1  N   UNL     1       4.932   5.511  16.529  0.00  0.00    +0.000 N 
ATOM      2  C   UNL     1       5.391   4.540  15.663  0.00  0.00    +0.000 A 
ATOM      3  N   UNL     1       4.839   3.372  15.936  0.00  0.00    +0.000 NA
ATOM      4  C   UNL     1       4.008   3.582  17.000  0.00  0.00    +0.000 A 
ATOM      5  C   UNL     1       3.196   2.663  17.677  0.00  0.00    +0.000 A 
ATOM      6  C   UNL     1       2.461   3.108  18.777  0.00  0.00    +0.000 A 
ATOM      7  C   UNL     1       2.484   4.452  19.158  0.00  0.00    +0.000 A 
ATOM      8  C   UNL     1       3.250   5.394  18.457  0.00  0.00    +0.000 A 
ATOM      9  C   UNL     1       4.032   4.916  17.395  0.00  0.00    +0.000 A 
ATOM     10  O   UNL     1       1.699   4.934  20.174  0.00  0.00    +0.000 OA
ATOM     11  C   UNL     1       2.079   4.395  21.441  0.00  0.00    +0.000 C 
ATOM     12  C   UNL     1       1.496   3.011  21.692  0.00  0.00    +0.000 C 
ATOM     13  C   UNL     1       2.094   1.973  20.755  0.00  0.00    +0.000 C 
ATOM     14  O   UNL     1       1.674   2.178  19.405  0.00  0.00    +0.000 OA
ENDROOT
BRANCH   2  15
ATOM     15  C   UNL     1       6.374   4.699  14.547  0.00  0.00    +0.000 A 
ATOM     16  C   UNL     1       6.216   4.045  13.337  0.00  0.00    +0.000 A 
ATOM     17  S   UNL     1       7.539   4.495  12.345  0.00  0.00    +0.000 S 
ATOM     18  N   UNL     1       8.208   5.479  13.522  0.00  0.00    +0.000 NA
ATOM     19  N   UNL     1       7.498   5.499  14.639  0.00  0.00    +0.000 NA
ENDBRANCH   2  15
BRANCH   1  20
ATOM     20  C   UNL     1       5.271   6.927  16.518  0.00  0.00    +0.000 C 
BRANCH  20  25
ATOM     21  C   UNL     1       7.188   8.441  17.412  0.00  0.00    +0.000 A 
ATOM     22  S   UNL     1       8.481   8.205  18.512  0.00  0.00    +0.000 S 
ATOM     23  N   UNL     1       8.046   6.625  18.829  0.00  0.00    +0.000 NA
ATOM     24  N   UNL     1       6.973   6.242  18.162  0.00  0.00    +0.000 NA
ATOM     25  C   UNL     1       6.460   7.258  17.358  0.00  0.00    +0.000 A 
ENDBRANCH  20  25
ENDBRANCH   1  20
TORSDOF 3
ENDMDL
MODEL 3
REMARK VINA RESULT:      -7.5      4.298      5.122
REMARK  Name = 
REMARK  3 active torsions:
REMARK  status: ('A' for Active; 'I' for Inactive)
REMARK    1  A    between atoms: C_5  and  C_6
REMARK    2  A    between atoms: C_6  and  N_7
REMARK    3  A    between atoms: C_8  and  C_9
REMARK                            x       y       z     vdW  Elec       q    Type
REMARK                         _______ _______ _______ _____ _____    ______ ____
ROOT
ATOM      1  N   UNL     1       4.020   5.868  18.292  0.00  0.00    +0.000 N 
ATOM      2  C   UNL     1       4.480   6.311  17.069  0.00  0.00    +0.000 A 
ATOM      3  N   UNL     1       4.005   7.513  16.800  0.00  0.00    +0.000 NA
ATOM      4  C   UNL     1       3.219   7.860  17.862  0.00  0.00    +0.000 A 
ATOM      5  C   UNL     1       2.481   9.033  18.064  0.00  0.00    +0.000 A 
ATOM      6  C   UNL     1       1.708   9.142  19.222  0.00  0.00    +0.000 A 
ATOM      7  C   UNL     1       1.716   8.132  20.187  0.00  0.00    +0.000 A 
ATOM      8  C   UNL     1       2.491   6.976  20.023  0.00  0.00    +0.000 A 
ATOM      9  C   UNL     1       3.211   6.855  18.825  0.00  0.00    +0.000 A 
ATOM     10  O   UNL     1       1.042   8.254  21.375  0.00  0.00    +0.000 OA
ATOM     11  C   UNL     1      -0.374   8.289  21.181  0.00  0.00    +0.000 C 
ATOM     12  C   UNL     1      -0.882   9.669  20.788  0.00  0.00    +0.000 C 
ATOM     13  C   UNL     1      -0.400  10.070  19.402  0.00  0.00    +0.000 C 
ATOM     14  O   UNL     1       1.009  10.309  19.383  0.00  0.00    +0.000 OA
ENDROOT
BRANCH   2  15
ATOM     15  C   UNL     1       5.389   5.597  16.120  0.00  0.00    +0.000 A 
ATOM     16  C   UNL     1       4.958   4.514  15.374  0.00  0.00    +0.000 A 
ATOM     17  S   UNL     1       6.287   3.996  14.424  0.00  0.00    +0.000 S 
ATOM     18  N   UNL     1       7.303   5.179  15.030  0.00  0.00    +0.000 NA
ATOM     19  N   UNL     1       6.708   5.960  15.920  0.00  0.00    +0.000 NA
ENDBRANCH   2  15
BRANCH   1  20
ATOM     20  C   UNL     1       4.358   4.615  18.954  0.00  0.00    +0.000 C 
BRANCH  20  25
ATOM     21  C   UNL     1       2.356   3.197  18.091  0.00  0.00    +0.000 A 
ATOM     22  S   UNL     1       1.173   2.215  18.850  0.00  0.00    +0.000 S 
ATOM     23  N   UNL     1       1.796   2.484  20.376  0.00  0.00    +0.000 NA
ATOM     24  N   UNL     1       2.855   3.271  20.369  0.00  0.00    +0.000 NA
ATOM     25  C   UNL     1       3.200   3.681  19.083  0.00  0.00    +0.000 A 
ENDBRANCH  20  25
ENDBRANCH   1  20
TORSDOF 3
ENDMDL
MODEL 4
REMARK VINA RESULT:      -7.3      4.857      5.800
REMARK  Name = 
REMARK  3 active torsions:
REMARK  status: ('A' for Active; 'I' for Inactive)
REMARK    1  A    between atoms: C_5  and  C_6
REMARK    2  A    between atoms: C_6  and  N_7
REMARK    3  A    between atoms: C_8  and  C_9
REMARK                            x       y       z     vdW  Elec       q    Type
REMARK                         _______ _______ _______ _____ _____    ______ ____
ROOT
ATOM      1  N   UNL     1       3.514   6.275  18.781  0.00  0.00    +0.000 N 
ATOM      2  C   UNL     1       4.044   6.411  17.514  0.00  0.00    +0.000 A 
ATOM      3  N   UNL     1       3.644   7.540  16.959  0.00  0.00    +0.000 NA
ATOM      4  C   UNL     1       2.836   8.151  17.877  0.00  0.00    +0.000 A 
ATOM      5  C   UNL     1       2.154   9.370  17.775  0.00  0.00    +0.000 A 
ATOM      6  C   UNL     1       1.343   9.770  18.839  0.00  0.00    +0.000 A 
ATOM      7  C   UNL     1       1.260   9.004  20.004  0.00  0.00    +0.000 A 
ATOM      8  C   UNL     1       1.978   7.809  20.142  0.00  0.00    +0.000 A 
ATOM      9  C   UNL     1       2.737   7.391  19.038  0.00  0.00    +0.000 A 
ATOM     10  O   UNL     1       0.547   9.420  21.099  0.00  0.00    +0.000 OA
ATOM     11  C   UNL     1      -0.857   9.470  20.832  0.00  0.00    +0.000 C 
ATOM     12  C   UNL     1      -1.275  10.747  20.116  0.00  0.00    +0.000 C 
ATOM     13  C   UNL     1      -0.719  10.804  18.702  0.00  0.00    +0.000 C 
ATOM     14  O   UNL     1       0.700  10.972  18.700  0.00  0.00    +0.000 OA
ENDROOT
BRANCH   2  15
ATOM     15  C   UNL     1       4.950   5.463  16.795  0.00  0.00    +0.000 A 
ATOM     16  C   UNL     1       6.250   5.806  16.466  0.00  0.00    +0.000 A 
ATOM     17  S   UNL     1       6.939   4.457  15.663  0.00  0.00    +0.000 S 
ATOM     18  N   UNL     1       5.540   3.548  15.792  0.00  0.00    +0.000 NA
ATOM     19  N   UNL     1       4.562   4.194  16.408  0.00  0.00    +0.000 NA
ENDBRANCH   2  15
BRANCH   1  20
ATOM     20  C   UNL     1       3.758   5.191  19.721  0.00  0.00    +0.000 C 
BRANCH  20  25
ATOM     21  C   UNL     1       1.994   3.571  18.706  0.00  0.00    +0.000 A 
ATOM     22  S   UNL     1       0.786   2.554  19.372  0.00  0.00    +0.000 S 
ATOM     23  N   UNL     1       1.171   2.967  20.942  0.00  0.00    +0.000 NA
ATOM     24  N   UNL     1       2.167   3.830  21.018  0.00  0.00    +0.000 NA
ATOM     25  C   UNL     1       2.659   4.182  19.763  0.00  0.00    +0.000 A 
ENDBRANCH  20  25
ENDBRANCH   1  20
TORSDOF 3
ENDMDL
MODEL 5
REMARK VINA RESULT:      -7.2      4.668      5.806
REMARK  Name = 
REMARK  3 active torsions:
REMARK  status: ('A' for Active; 'I' for Inactive)
REMARK    1  A    between atoms: C_5  and  C_6
REMARK    2  A    between atoms: C_6  and  N_7
REMARK    3  A    between atoms: C_8  and  C_9
REMARK                            x       y       z     vdW  Elec       q    Type
REMARK                         _______ _______ _______ _____ _____    ______ ____
ROOT
ATOM      1  N   UNL     1       3.252   6.102  18.345  0.00  0.00    +0.000 N 
ATOM      2  C   UNL     1       2.994   5.157  19.317  0.00  0.00    +0.000 A 
ATOM      3  N   UNL     1       2.177   5.641  20.234  0.00  0.00    +0.000 NA
ATOM      4  C   UNL     1       1.899   6.925  19.858  0.00  0.00    +0.000 A 
ATOM      5  C   UNL     1       1.087   7.872  20.496  0.00  0.00    +0.000 A 
ATOM      6  C   UNL     1       0.992   9.149  19.939  0.00  0.00    +0.000 A 
ATOM      7  C   UNL     1       1.639   9.459  18.741  0.00  0.00    +0.000 A 
ATOM      8  C   UNL     1       2.412   8.506  18.064  0.00  0.00    +0.000 A 
ATOM      9  C   UNL     1       2.549   7.248  18.671  0.00  0.00    +0.000 A 
ATOM     10  O   UNL     1       1.486  10.674  18.124  0.00  0.00    +0.000 OA
ATOM     11  C   UNL     1       2.046  11.738  18.897  0.00  0.00    +0.000 C 
ATOM     12  C   UNL     1       1.115  12.218  20.001  0.00  0.00    +0.000 C 
ATOM     13  C   UNL     1       0.927  11.159  21.076  0.00  0.00    +0.000 C 
ATOM     14  O   UNL     1       0.181  10.041  20.591  0.00  0.00    +0.000 OA
ENDROOT
BRANCH   2  15
ATOM     15  C   UNL     1       3.523   3.760  19.398  0.00  0.00    +0.000 A 
ATOM     16  C   UNL     1       2.937   2.717  18.702  0.00  0.00    +0.000 A 
ATOM     17  S   UNL     1       3.836   1.304  19.060  0.00  0.00    +0.000 S 
ATOM     18  N   UNL     1       4.894   2.119  20.069  0.00  0.00    +0.000 NA
ATOM     19  N   UNL     1       4.619   3.411  20.164  0.00  0.00    +0.000 NA
ENDBRANCH   2  15
BRANCH   1  20
ATOM     20  C   UNL     1       4.067   5.932  17.151  0.00  0.00    +0.000 C 
BRANCH  20  25
ATOM     21  C   UNL     1       6.267   6.036  18.535  0.00  0.00    +0.000 A 
ATOM     22  S   UNL     1       7.859   6.580  18.206  0.00  0.00    +0.000 S 
ATOM     23  N   UNL     1       7.488   7.008  16.636  0.00  0.00    +0.000 NA
ATOM     24  N   UNL     1       6.229   6.767  16.320  0.00  0.00    +0.000 NA
ATOM     25  C   UNL     1       5.517   6.205  17.377  0.00  0.00    +0.000 A 
ENDBRANCH  20  25
ENDBRANCH   1  20
TORSDOF 3
ENDMDL
MODEL 6
REMARK VINA RESULT:      -7.1      5.146      6.654
REMARK  Name = 
REMARK  3 active torsions:
REMARK  status: ('A' for Active; 'I' for Inactive)
REMARK    1  A    between atoms: C_5  and  C_6
REMARK    2  A    between atoms: C_6  and  N_7
REMARK    3  A    between atoms: C_8  and  C_9
REMARK                            x       y       z     vdW  Elec       q    Type
REMARK                         _______ _______ _______ _____ _____    ______ ____
ROOT
ATOM      1  N   UNL     1       2.846   6.332  18.860  0.00  0.00    +0.000 N 
ATOM      2  C   UNL     1       2.444   5.724  20.032  0.00  0.00    +0.000 A 
ATOM      3  N   UNL     1       1.727   6.555  20.766  0.00  0.00    +0.000 NA
ATOM      4  C   UNL     1       1.662   7.726  20.064  0.00  0.00    +0.000 A 
ATOM      5  C   UNL     1       1.025   8.924  20.410  0.00  0.00    +0.000 A 
ATOM      6  C   UNL     1       1.138  10.012  19.542  0.00  0.00    +0.000 A 
ATOM      7  C   UNL     1       1.817   9.893  18.327  0.00  0.00    +0.000 A 
ATOM      8  C   UNL     1       2.414   8.684  17.943  0.00  0.00    +0.000 A 
ATOM      9  C   UNL     1       2.346   7.621  18.857  0.00  0.00    +0.000 A 
ATOM     10  O   UNL     1       1.861  10.915  17.414  0.00  0.00    +0.000 OA
ATOM     11  C   UNL     1       2.597  12.036  17.907  0.00  0.00    +0.000 C 
ATOM     12  C   UNL     1       1.769  12.931  18.819  0.00  0.00    +0.000 C 
ATOM     13  C   UNL     1       1.418  12.230  20.123  0.00  0.00    +0.000 C 
ATOM     14  O   UNL     1       0.493  11.162  19.915  0.00  0.00    +0.000 OA
ENDROOT
BRANCH   2  15
ATOM     15  C   UNL     1       2.735   4.330  20.486  0.00  0.00    +0.000 A 
ATOM     16  C   UNL     1       3.507   3.463  19.732  0.00  0.00    +0.000 A 
ATOM     17  S   UNL     1       3.599   1.987  20.597  0.00  0.00    +0.000 S 
ATOM     18  N   UNL     1       2.653   2.556  21.855  0.00  0.00    +0.000 NA
ATOM     19  N   UNL     1       2.258   3.807  21.675  0.00  0.00    +0.000 NA
ENDBRANCH   2  15
BRANCH   1  20
ATOM     20  C   UNL     1       3.610   5.728  17.777  0.00  0.00    +0.000 C 
BRANCH  20  25
ATOM     21  C   UNL     1       6.040   5.640  18.702  0.00  0.00    +0.000 A 
ATOM     22  S   UNL     1       7.506   6.422  18.281  0.00  0.00    +0.000 S 
ATOM     23  N   UNL     1       6.805   7.261  17.020  0.00  0.00    +0.000 NA
ATOM     24  N   UNL     1       5.520   6.996  16.877  0.00  0.00    +0.000 NA
ATOM     25  C   UNL     1       5.063   6.071  17.813  0.00  0.00    +0.000 A 
ENDBRANCH  20  25
ENDBRANCH   1  20
TORSDOF 3
ENDMDL
MODEL 7
REMARK VINA RESULT:      -7.0      9.859     11.914
REMARK  Name = 
REMARK  3 active torsions:
REMARK  status: ('A' for Active; 'I' for Inactive)
REMARK    1  A    between atoms: C_5  and  C_6
REMARK    2  A    between atoms: C_6  and  N_7
REMARK    3  A    between atoms: C_8  and  C_9
REMARK                            x       y       z     vdW  Elec       q    Type
REMARK                         _______ _______ _______ _____ _____    ______ ____
ROOT
ATOM      1  N   UNL     1       7.562  13.288  22.972  0.00  0.00    +0.000 N 
ATOM      2  C   UNL     1       7.453  12.036  23.541  0.00  0.00    +0.000 A 
ATOM      3  N   UNL     1       8.225  11.169  22.913  0.00  0.00    +0.000 NA
ATOM      4  C   UNL     1       8.847  11.864  21.915  0.00  0.00    +0.000 A 
ATOM      5  C   UNL     1       9.761  11.403  20.959  0.00  0.00    +0.000 A 
ATOM      6  C   UNL     1      10.230  12.301  19.999  0.00  0.00    +0.000 A 
ATOM      7  C   UNL     1       9.847  13.644  20.026  0.00  0.00    +0.000 A 
ATOM      8  C   UNL     1       8.974  14.132  21.008  0.00  0.00    +0.000 A 
ATOM      9  C   UNL     1       8.463  13.201  21.925  0.00  0.00    +0.000 A 
ATOM     10  O   UNL     1      10.366  14.567  19.154  0.00  0.00    +0.000 OA
ATOM     11  C   UNL     1       9.969  14.307  17.806  0.00  0.00    +0.000 C 
ATOM     12  C   UNL     1      10.825  13.241  17.135  0.00  0.00    +0.000 C 
ATOM     13  C   UNL     1      10.607  11.872  17.760  0.00  0.00    +0.000 C 
ATOM     14  O   UNL     1      11.129  11.810  19.089  0.00  0.00    +0.000 OA
ENDROOT
BRANCH   2  15
ATOM     15  C   UNL     1       6.605  11.631  24.704  0.00  0.00    +0.000 A 
ATOM     16  C   UNL     1       7.037  11.786  26.010  0.00  0.00    +0.000 A 
ATOM     17  S   UNL     1       5.784  11.210  27.027  0.00  0.00    +0.000 S 
ATOM     18  N   UNL     1       4.795  10.807  25.739  0.00  0.00    +0.000 NA
ATOM     19  N   UNL     1       5.346  11.078  24.565  0.00  0.00    +0.000 NA
ENDBRANCH   2  15
BRANCH   1  20
ATOM     20  C   UNL     1       6.905  14.511  23.410  0.00  0.00    +0.000 C 
BRANCH  20  25
ATOM     21  C   UNL     1       5.454  15.624  21.561  0.00  0.00    +0.000 A 
ATOM     22  S   UNL     1       3.779  15.622  21.194  0.00  0.00    +0.000 S 
ATOM     23  N   UNL     1       3.408  14.605  22.465  0.00  0.00    +0.000 NA
ATOM     24  N   UNL     1       4.468  14.249  23.167  0.00  0.00    +0.000 NA
ATOM     25  C   UNL     1       5.643  14.806  22.668  0.00  0.00    +0.000 A 
ENDBRANCH  20  25
ENDBRANCH   1  20
TORSDOF 3
ENDMDL
MODEL 8
REMARK VINA RESULT:      -7.0      6.296      8.255
REMARK  Name = 
REMARK  3 active torsions:
REMARK  status: ('A' for Active; 'I' for Inactive)
REMARK    1  A    between atoms: C_5  and  C_6
REMARK    2  A    between atoms: C_6  and  N_7
REMARK    3  A    between atoms: C_8  and  C_9
REMARK                            x       y       z     vdW  Elec       q    Type
REMARK                         _______ _______ _______ _____ _____    ______ ____
ROOT
ATOM      1  N   UNL     1       1.350   9.048  19.472  0.00  0.00    +0.000 N 
ATOM      2  C   UNL     1       1.013   9.256  20.794  0.00  0.00    +0.000 A 
ATOM      3  N   UNL     1       1.257   8.177  21.514  0.00  0.00    +0.000 NA
ATOM      4  C   UNL     1       1.758   7.246  20.648  0.00  0.00    +0.000 A 
ATOM      5  C   UNL     1       2.168   5.932  20.909  0.00  0.00    +0.000 A 
ATOM      6  C   UNL     1       2.607   5.147  19.841  0.00  0.00    +0.000 A 
ATOM      7  C   UNL     1       2.696   5.676  18.551  0.00  0.00    +0.000 A 
ATOM      8  C   UNL     1       2.340   7.005  18.284  0.00  0.00    +0.000 A 
ATOM      9  C   UNL     1       1.840   7.759  19.357  0.00  0.00    +0.000 A 
ATOM     10  O   UNL     1       3.213   4.958  17.503  0.00  0.00    +0.000 OA
ATOM     11  C   UNL     1       2.389   3.839  17.168  0.00  0.00    +0.000 C 
ATOM     12  C   UNL     1       2.633   2.637  18.070  0.00  0.00    +0.000 C 
ATOM     13  C   UNL     1       2.176   2.903  19.496  0.00  0.00    +0.000 C 
ATOM     14  O   UNL     1       3.005   3.871  20.142  0.00  0.00    +0.000 OA
ENDROOT
BRANCH   2  15
ATOM     15  C   UNL     1       0.447  10.496  21.409  0.00  0.00    +0.000 A 
ATOM     16  C   UNL     1      -0.754  10.485  22.097  0.00  0.00    +0.000 A 
ATOM     17  S   UNL     1      -1.039  12.085  22.639  0.00  0.00    +0.000 S 
ATOM     18  N   UNL     1       0.375  12.667  21.960  0.00  0.00    +0.000 NA
ATOM     19  N   UNL     1       1.070  11.728  21.336  0.00  0.00    +0.000 NA
ENDBRANCH   2  15
BRANCH   1  20
ATOM     20  C   UNL     1       1.269  10.012  18.384  0.00  0.00    +0.000 C 
BRANCH  20  25
ATOM     21  C   UNL     1      -0.790  11.601  18.358  0.00  0.00    +0.000 A 
ATOM     22  S   UNL     1      -2.396  11.464  17.775  0.00  0.00    +0.000 S 
ATOM     23  N   UNL     1      -2.153   9.917  17.196  0.00  0.00    +0.000 NA
ATOM     24  N   UNL     1      -0.926   9.476  17.404  0.00  0.00    +0.000 NA
ATOM     25  C   UNL     1      -0.129  10.417  18.053  0.00  0.00    +0.000 A 
ENDBRANCH  20  25
ENDBRANCH   1  20
TORSDOF 3
ENDMDL
MODEL 9
REMARK VINA RESULT:      -6.9      5.622      7.282
REMARK  Name = 
REMARK  3 active torsions:
REMARK  status: ('A' for Active; 'I' for Inactive)
REMARK    1  A    between atoms: C_5  and  C_6
REMARK    2  A    between atoms: C_6  and  N_7
REMARK    3  A    between atoms: C_8  and  C_9
REMARK                            x       y       z     vdW  Elec       q    Type
REMARK                         _______ _______ _______ _____ _____    ______ ____
ROOT
ATOM      1  N   UNL     1       2.171   6.901  19.092  0.00  0.00    +0.000 N 
ATOM      2  C   UNL     1       1.717   6.352  20.274  0.00  0.00    +0.000 A 
ATOM      3  N   UNL     1       1.168   7.278  21.038  0.00  0.00    +0.000 NA
ATOM      4  C   UNL     1       1.267   8.452  20.346  0.00  0.00    +0.000 A 
ATOM      5  C   UNL     1       0.842   9.733  20.722  0.00  0.00    +0.000 A 
ATOM      6  C   UNL     1       1.097  10.799  19.857  0.00  0.00    +0.000 A 
ATOM      7  C   UNL     1       1.706  10.587  18.618  0.00  0.00    +0.000 A 
ATOM      8  C   UNL     1       2.089   9.303  18.206  0.00  0.00    +0.000 A 
ATOM      9  C   UNL     1       1.883   8.254  19.115  0.00  0.00    +0.000 A 
ATOM     10  O   UNL     1       1.882  11.600  17.711  0.00  0.00    +0.000 OA
ATOM     11  C   UNL     1       2.805  12.584  18.185  0.00  0.00    +0.000 C 
ATOM     12  C   UNL     1       2.161  13.588  19.131  0.00  0.00    +0.000 C 
ATOM     13  C   UNL     1       1.748  12.937  20.442  0.00  0.00    +0.000 C 
ATOM     14  O   UNL     1       0.657  12.032  20.260  0.00  0.00    +0.000 OA
ENDROOT
BRANCH   2  15
ATOM     15  C   UNL     1       1.796   4.924  20.709  0.00  0.00    +0.000 A 
ATOM     16  C   UNL     1       1.016   3.940  20.125  0.00  0.00    +0.000 A 
ATOM     17  S   UNL     1       1.408   2.462  20.898  0.00  0.00    +0.000 S 
ATOM     18  N   UNL     1       2.530   3.180  21.911  0.00  0.00    +0.000 NA
ATOM     19  N   UNL     1       2.640   4.485  21.712  0.00  0.00    +0.000 NA
ENDBRANCH   2  15
BRANCH   1  20
ATOM     20  C   UNL     1       2.791   6.196  17.979  0.00  0.00    +0.000 C 
BRANCH  20  25
ATOM     21  C   UNL     1       5.003   5.296  19.010  0.00  0.00    +0.000 A 
ATOM     22  S   UNL     1       6.665   5.603  18.724  0.00  0.00    +0.000 S 
ATOM     23  N   UNL     1       6.348   6.696  17.502  0.00  0.00    +0.000 NA
ATOM     24  N   UNL     1       5.057   6.856  17.276  0.00  0.00    +0.000 NA
ATOM     25  C   UNL     1       4.272   6.064  18.112  0.00  0.00    +0.000 A 
ENDBRANCH  20  25
ENDBRANCH   1  20
TORSDOF 3
ENDMDL
