MODEL 1
REMARK VINA RESULT:      -8.2      0.000      0.000
REMARK  Name = 
REMARK  8 active torsions:
REMARK  status: ('A' for Active; 'I' for Inactive)
REMARK    1  A    between atoms: C_2  and  C_13
REMARK    2  A    between atoms: N_3  and  C_4
REMARK    3  A    between atoms: C_17  and  C_18
REMARK    4  A    between atoms: C_18  and  O_19
REMARK    5  A    between atoms: N_22  and  C_23
REMARK    6  A    between atoms: C_23  and  C_24
REMARK    7  A    between atoms: C_24  and  C_25
REMARK    8  A    between atoms: C_25  and  C_26
REMARK                            x       y       z     vdW  Elec       q    Type
REMARK                         _______ _______ _______ _____ _____    ______ ____
ROOT
ATOM      1  C   UNL     1       1.858   8.353  19.218  0.00  0.00    +0.000 A 
ATOM      2  C   UNL     1       1.119   8.473  20.375  0.00  0.00    +0.000 A 
ATOM      3  C   UNL     1       0.359   9.653  20.251  0.00  0.00    +0.000 A 
ATOM      4  C   UNL     1      -0.524  10.347  21.089  0.00  0.00    +0.000 A 
ATOM      5  C   UNL     1      -1.080  11.570  20.667  0.00  0.00    +0.000 A 
ATOM      6  C   UNL     1      -0.792  12.023  19.361  0.00  0.00    +0.000 A 
ATOM      7  C   UNL     1       0.075  11.334  18.495  0.00  0.00    +0.000 A 
ATOM      8  C   UNL     1       0.646  10.168  18.995  0.00  0.00    +0.000 A 
ATOM      9  O   UNL     1       1.559   9.379  18.357  0.00  0.00    +0.000 OA
ENDROOT
BRANCH   5  10
ATOM     10  C   UNL     1      -1.956  12.416  21.603  0.00  0.00    +0.000 C 
ATOM     11  C   UNL     1      -3.293  12.829  20.968  0.00  0.00    +0.000 C 
ATOM     12  C   UNL     1      -4.204  13.548  21.948  0.00  0.00    +0.000 C 
ATOM     13  N   UNL     1      -4.477  12.679  23.097  0.00  0.00    +0.000 NA
ATOM     14  C   UNL     1      -3.226  12.405  23.818  0.00  0.00    +0.000 C 
ATOM     15  C   UNL     1      -2.224  11.670  22.924  0.00  0.00    +0.000 C 
BRANCH  10  16
ATOM     16  O   UNL     1      -1.228  13.617  21.897  0.00  0.00    +0.000 OA
ATOM     17  H   UNL     1      -1.882  14.288  22.163  0.00  0.00    +0.000 HD
ENDBRANCH  10  16
BRANCH  13  18
ATOM     18  C   UNL     1      -5.478  13.267  23.999  0.00  0.00    +0.000 C 
BRANCH  18  19
ATOM     19  C   UNL     1      -6.786  12.470  24.063  0.00  0.00    +0.000 C 
BRANCH  19  20
ATOM     20  C   UNL     1      -7.915  13.099  23.240  0.00  0.00    +0.000 C 
BRANCH  20  21
ATOM     21  C   UNL     1      -7.686  12.835  21.773  0.00  0.00    +0.000 A 
ATOM     22  C   UNL     1      -7.763  13.882  20.844  0.00  0.00    +0.000 A 
ATOM     23  C   UNL     1      -7.646  13.619  19.480  0.00  0.00    +0.000 A 
ATOM     24  C   UNL     1      -7.454  12.313  19.035  0.00  0.00    +0.000 A 
ATOM     25  C   UNL     1      -7.367  11.268  19.953  0.00  0.00    +0.000 A 
ATOM     26  C   UNL     1      -7.482  11.528  21.319  0.00  0.00    +0.000 A 
ENDBRANCH  20  21
ENDBRANCH  19  20
ENDBRANCH  18  19
ENDBRANCH  13  18
ENDBRANCH   5  10
BRANCH   1  28
ATOM     27  O   UNL     1       2.993   6.361  19.584  0.00  0.00    +0.000 OA
ATOM     28  C   UNL     1       2.847   7.358  18.880  0.00  0.00    +0.000 C 
ATOM     29  N   UNL     1       3.615   7.670  17.770  0.00  0.00    +0.000 N 
ATOM     30  H   UNL     1       3.474   8.595  17.386  0.00  0.00    +0.000 HD
BRANCH  29  31
ATOM     31  C   UNL     1       4.687   6.900  17.273  0.00  0.00    +0.000 A 
ATOM     32  C   UNL     1       6.032   7.173  17.604  0.00  0.00    +0.000 A 
ATOM     33  C   UNL     1       7.083   6.459  17.027  0.00  0.00    +0.000 A 
ATOM     34  C   UNL     1       6.761   5.476  16.124  0.00  0.00    +0.000 A 
ATOM     35  C   UNL     1       5.454   5.172  15.824  0.00  0.00    +0.000 A 
ATOM     36  C   UNL     1       4.392   5.849  16.397  0.00  0.00    +0.000 A 
ATOM     37  O   UNL     1       5.360   4.177  14.902  0.00  0.00    +0.000 OA
ATOM     38  C   UNL     1       6.754   3.968  14.589  0.00  0.00    +0.000 C 
ATOM     39  O   UNL     1       7.648   4.718  15.433  0.00  0.00    +0.000 OA
ENDBRANCH  29  31
ENDBRANCH   1  28
TORSDOF 8
ENDMDL
MODEL 2
REMARK VINA RESULT:      -7.8      3.206      5.239
REMARK  Name = 
REMARK  8 active torsions:
REMARK  status: ('A' for Active; 'I' for Inactive)
REMARK    1  A    between atoms: C_2  and  C_13
REMARK    2  A    between atoms: N_3  and  C_4
REMARK    3  A    between atoms: C_17  and  C_18
REMARK    4  A    between atoms: C_18  and  O_19
REMARK    5  A    between atoms: N_22  and  C_23
REMARK    6  A    between atoms: C_23  and  C_24
REMARK    7  A    between atoms: C_24  and  C_25
REMARK    8  A    between atoms: C_25  and  C_26
REMARK                            x       y       z     vdW  Elec       q    Type
REMARK                         _______ _______ _______ _____ _____    ______ ____
ROOT
ATOM      1  C   UNL     1       1.593   7.938  20.369  0.00  0.00    +0.000 A 
ATOM      2  C   UNL     1       1.231   9.138  19.798  0.00  0.00    +0.000 A 
ATOM      3  C   UNL     1       0.510   9.852  20.777  0.00  0.00    +0.000 A 
ATOM      4  C   UNL     1      -0.163  11.080  20.802  0.00  0.00    +0.000 A 
ATOM      5  C   UNL     1      -0.858  11.479  21.960  0.00  0.00    +0.000 A 
ATOM      6  C   UNL     1      -0.781  10.656  23.105  0.00  0.00    +0.000 A 
ATOM      7  C   UNL     1      -0.095   9.429  23.110  0.00  0.00    +0.000 A 
ATOM      8  C   UNL     1       0.513   9.058  21.915  0.00  0.00    +0.000 A 
ATOM      9  O   UNL     1       1.174   7.888  21.675  0.00  0.00    +0.000 OA
ENDROOT
BRANCH   5  10
ATOM     10  C   UNL     1      -1.704  12.761  21.985  0.00  0.00    +0.000 C 
ATOM     11  C   UNL     1      -1.464  13.619  23.236  0.00  0.00    +0.000 C 
ATOM     12  C   UNL     1      -2.204  14.945  23.183  0.00  0.00    +0.000 C 
ATOM     13  N   UNL     1      -1.776  15.702  22.003  0.00  0.00    +0.000 NA
ATOM     14  C   UNL     1      -2.148  14.970  20.784  0.00  0.00    +0.000 C 
ATOM     15  C   UNL     1      -1.450  13.609  20.724  0.00  0.00    +0.000 C 
BRANCH  10  16
ATOM     16  O   UNL     1      -3.082  12.360  21.994  0.00  0.00    +0.000 OA
ATOM     17  H   UNL     1      -3.383  12.399  22.919  0.00  0.00    +0.000 HD
ENDBRANCH  10  16
BRANCH  13  18
ATOM     18  C   UNL     1      -2.346  17.056  21.989  0.00  0.00    +0.000 C 
BRANCH  18  19
ATOM     19  C   UNL     1      -1.434  18.097  21.331  0.00  0.00    +0.000 C 
BRANCH  19  20
ATOM     20  C   UNL     1       0.057  17.797  21.522  0.00  0.00    +0.000 C 
BRANCH  20  21
ATOM     21  C   UNL     1       0.701  17.535  20.184  0.00  0.00    +0.000 A 
ATOM     22  C   UNL     1       2.027  17.089  20.111  0.00  0.00    +0.000 A 
ATOM     23  C   UNL     1       2.650  16.939  18.872  0.00  0.00    +0.000 A 
ATOM     24  C   UNL     1       1.955  17.235  17.701  0.00  0.00    +0.000 A 
ATOM     25  C   UNL     1       0.633  17.670  17.766  0.00  0.00    +0.000 A 
ATOM     26  C   UNL     1       0.006  17.819  19.003  0.00  0.00    +0.000 A 
ENDBRANCH  20  21
ENDBRANCH  19  20
ENDBRANCH  18  19
ENDBRANCH  13  18
ENDBRANCH   5  10
BRANCH   1  28
ATOM     27  O   UNL     1       2.445   5.778  20.387  0.00  0.00    +0.000 OA
ATOM     28  C   UNL     1       2.281   6.823  19.762  0.00  0.00    +0.000 C 
ATOM     29  N   UNL     1       2.764   7.076  18.489  0.00  0.00    +0.000 N 
ATOM     30  H   UNL     1       2.678   8.032  18.168  0.00  0.00    +0.000 HD
BRANCH  29  31
ATOM     31  C   UNL     1       3.524   6.180  17.708  0.00  0.00    +0.000 A 
ATOM     32  C   UNL     1       3.203   4.810  17.599  0.00  0.00    +0.000 A 
ATOM     33  C   UNL     1       4.022   3.924  16.899  0.00  0.00    +0.000 A 
ATOM     34  C   UNL     1       5.154   4.435  16.315  0.00  0.00    +0.000 A 
ATOM     35  C   UNL     1       5.457   5.775  16.377  0.00  0.00    +0.000 A 
ATOM     36  C   UNL     1       4.652   6.679  17.046  0.00  0.00    +0.000 A 
ATOM     37  O   UNL     1       6.625   6.065  15.742  0.00  0.00    +0.000 OA
ATOM     38  C   UNL     1       7.062   4.741  15.366  0.00  0.00    +0.000 C 
ATOM     39  O   UNL     1       6.087   3.717  15.639  0.00  0.00    +0.000 OA
ENDBRANCH  29  31
ENDBRANCH   1  28
TORSDOF 8
ENDMDL
MODEL 3
REMARK VINA RESULT:      -7.8      2.937     13.184
REMARK  Name = 
REMARK  8 active torsions:
REMARK  status: ('A' for Active; 'I' for Inactive)
REMARK    1  A    between atoms: C_2  and  C_13
REMARK    2  A    between atoms: N_3  and  C_4
REMARK    3  A    between atoms: C_17  and  C_18
REMARK    4  A    between atoms: C_18  and  O_19
REMARK    5  A    between atoms: N_22  and  C_23
REMARK    6  A    between atoms: C_23  and  C_24
REMARK    7  A    between atoms: C_24  and  C_25
REMARK    8  A    between atoms: C_25  and  C_26
REMARK                            x       y       z     vdW  Elec       q    Type
REMARK                         _______ _______ _______ _____ _____    ______ ____
ROOT
ATOM      1  C   UNL     1       0.152  10.725  19.307  0.00  0.00    +0.000 A 
ATOM      2  C   UNL     1       0.883  10.245  18.242  0.00  0.00    +0.000 A 
ATOM      3  C   UNL     1       1.477   9.040  18.669  0.00  0.00    +0.000 A 
ATOM      4  C   UNL     1       2.364   8.122  18.091  0.00  0.00    +0.000 A 
ATOM      5  C   UNL     1       2.825   7.022  18.839  0.00  0.00    +0.000 A 
ATOM      6  C   UNL     1       2.305   6.828  20.137  0.00  0.00    +0.000 A 
ATOM      7  C   UNL     1       1.399   7.724  20.731  0.00  0.00    +0.000 A 
ATOM      8  C   UNL     1       1.034   8.828  19.967  0.00  0.00    +0.000 A 
ATOM      9  O   UNL     1       0.223   9.852  20.363  0.00  0.00    +0.000 OA
ENDROOT
BRANCH   5  10
ATOM     10  C   UNL     1       3.888   6.063  18.281  0.00  0.00    +0.000 C 
ATOM     11  C   UNL     1       3.285   4.816  17.616  0.00  0.00    +0.000 C 
ATOM     12  C   UNL     1       4.338   3.945  16.951  0.00  0.00    +0.000 C 
ATOM     13  N   UNL     1       5.051   4.724  15.933  0.00  0.00    +0.000 NA
ATOM     14  C   UNL     1       5.773   5.832  16.575  0.00  0.00    +0.000 C 
ATOM     15  C   UNL     1       4.805   6.787  17.277  0.00  0.00    +0.000 C 
BRANCH  10  16
ATOM     16  O   UNL     1       4.684   5.619  19.389  0.00  0.00    +0.000 OA
ATOM     17  H   UNL     1       4.450   4.688  19.552  0.00  0.00    +0.000 HD
ENDBRANCH  10  16
BRANCH  13  18
ATOM     18  C   UNL     1       5.973   3.885  15.155  0.00  0.00    +0.000 C 
BRANCH  18  19
ATOM     19  C   UNL     1       7.112   4.674  14.500  0.00  0.00    +0.000 C 
BRANCH  19  20
ATOM     20  C   UNL     1       6.880   4.941  13.009  0.00  0.00    +0.000 C 
BRANCH  20  21
ATOM     21  C   UNL     1       6.493   3.660  12.315  0.00  0.00    +0.000 A 
ATOM     22  C   UNL     1       7.478   2.759  11.887  0.00  0.00    +0.000 A 
ATOM     23  C   UNL     1       7.124   1.622  11.162  0.00  0.00    +0.000 A 
ATOM     24  C   UNL     1       5.786   1.378  10.858  0.00  0.00    +0.000 A 
ATOM     25  C   UNL     1       4.800   2.264  11.288  0.00  0.00    +0.000 A 
ATOM     26  C   UNL     1       5.151   3.401  12.015  0.00  0.00    +0.000 A 
ENDBRANCH  20  21
ENDBRANCH  19  20
ENDBRANCH  18  19
ENDBRANCH  13  18
ENDBRANCH   5  10
BRANCH   1  28
ATOM     27  O   UNL     1      -0.665  12.720  18.444  0.00  0.00    +0.000 OA
ATOM     28  C   UNL     1      -0.584  11.963  19.409  0.00  0.00    +0.000 C 
ATOM     29  N   UNL     1      -1.105  12.215  20.667  0.00  0.00    +0.000 N 
ATOM     30  H   UNL     1      -0.828  11.568  21.395  0.00  0.00    +0.000 HD
BRANCH  29  31
ATOM     31  C   UNL     1      -1.804  13.380  21.046  0.00  0.00    +0.000 A 
ATOM     32  C   UNL     1      -3.196  13.523  20.855  0.00  0.00    +0.000 A 
ATOM     33  C   UNL     1      -3.851  14.719  21.150  0.00  0.00    +0.000 A 
ATOM     34  C   UNL     1      -3.093  15.754  21.636  0.00  0.00    +0.000 A 
ATOM     35  C   UNL     1      -1.744  15.615  21.866  0.00  0.00    +0.000 A 
ATOM     36  C   UNL     1      -1.073  14.435  21.604  0.00  0.00    +0.000 A 
ATOM     37  O   UNL     1      -1.185  16.762  22.339  0.00  0.00    +0.000 OA
ATOM     38  C   UNL     1      -2.317  17.656  22.280  0.00  0.00    +0.000 C 
ATOM     39  O   UNL     1      -3.549  16.998  21.931  0.00  0.00    +0.000 OA
ENDBRANCH  29  31
ENDBRANCH   1  28
TORSDOF 8
ENDMDL
MODEL 4
REMARK VINA RESULT:      -7.8      2.929     12.604
REMARK  Name = 
REMARK  8 active torsions:
REMARK  status: ('A' for Active; 'I' for Inactive)
REMARK    1  A    between atoms: C_2  and  C_13
REMARK    2  A    between atoms: N_3  and  C_4
REMARK    3  A    between atoms: C_17  and  C_18
REMARK    4  A    between atoms: C_18  and  O_19
REMARK    5  A    between atoms: N_22  and  C_23
REMARK    6  A    between atoms: C_23  and  C_24
REMARK    7  A    between atoms: C_24  and  C_25
REMARK    8  A    between atoms: C_25  and  C_26
REMARK                            x       y       z     vdW  Elec       q    Type
REMARK                         _______ _______ _______ _____ _____    ______ ____
ROOT
ATOM      1  C   UNL     1      -0.246  11.042  21.791  0.00  0.00    +0.000 A 
ATOM      2  C   UNL     1       0.056   9.770  22.226  0.00  0.00    +0.000 A 
ATOM      3  C   UNL     1       0.727   9.127  21.166  0.00  0.00    +0.000 A 
ATOM      4  C   UNL     1       1.229   7.835  20.960  0.00  0.00    +0.000 A 
ATOM      5  C   UNL     1       1.804   7.493  19.720  0.00  0.00    +0.000 A 
ATOM      6  C   UNL     1       1.934   8.502  18.741  0.00  0.00    +0.000 A 
ATOM      7  C   UNL     1       1.456   9.809  18.932  0.00  0.00    +0.000 A 
ATOM      8  C   UNL     1       0.838  10.066  20.152  0.00  0.00    +0.000 A 
ATOM      9  O   UNL     1       0.247  11.239  20.526  0.00  0.00    +0.000 OA
ENDROOT
BRANCH   5  10
ATOM     10  C   UNL     1       2.256   6.057  19.417  0.00  0.00    +0.000 C 
ATOM     11  C   UNL     1       1.818   5.566  18.028  0.00  0.00    +0.000 C 
ATOM     12  C   UNL     1       2.385   4.198  17.689  0.00  0.00    +0.000 C 
ATOM     13  N   UNL     1       3.850   4.247  17.732  0.00  0.00    +0.000 NA
ATOM     14  C   UNL     1       4.295   4.554  19.099  0.00  0.00    +0.000 C 
ATOM     15  C   UNL     1       3.785   5.925  19.550  0.00  0.00    +0.000 C 
BRANCH  10  16
ATOM     16  O   UNL     1       1.638   5.202  20.391  0.00  0.00    +0.000 OA
ATOM     17  H   UNL     1       1.618   4.307  20.011  0.00  0.00    +0.000 HD
ENDBRANCH  10  16
BRANCH  13  18
ATOM     18  C   UNL     1       4.450   2.991  17.260  0.00  0.00    +0.000 C 
BRANCH  18  19
ATOM     19  C   UNL     1       5.601   3.198  16.269  0.00  0.00    +0.000 C 
BRANCH  19  20
ATOM     20  C   UNL     1       5.727   4.648  15.788  0.00  0.00    +0.000 C 
BRANCH  20  21
ATOM     21  C   UNL     1       6.499   5.456  16.800  0.00  0.00    +0.000 A 
ATOM     22  C   UNL     1       6.440   6.856  16.783  0.00  0.00    +0.000 A 
ATOM     23  C   UNL     1       7.229   7.603  17.658  0.00  0.00    +0.000 A 
ATOM     24  C   UNL     1       8.081   6.958  18.552  0.00  0.00    +0.000 A 
ATOM     25  C   UNL     1       8.138   5.566  18.582  0.00  0.00    +0.000 A 
ATOM     26  C   UNL     1       7.349   4.816  17.709  0.00  0.00    +0.000 A 
ENDBRANCH  20  21
ENDBRANCH  19  20
ENDBRANCH  18  19
ENDBRANCH  13  18
ENDBRANCH   5  10
BRANCH   1  28
ATOM     27  O   UNL     1      -0.433  12.821  23.272  0.00  0.00    +0.000 OA
ATOM     28  C   UNL     1      -0.992  12.073  22.472  0.00  0.00    +0.000 C 
ATOM     29  N   UNL     1      -2.347  12.080  22.185  0.00  0.00    +0.000 N 
ATOM     30  H   UNL     1      -2.681  11.308  21.621  0.00  0.00    +0.000 HD
BRANCH  29  31
ATOM     31  C   UNL     1      -3.303  12.940  22.766  0.00  0.00    +0.000 A 
ATOM     32  C   UNL     1      -4.068  12.570  23.893  0.00  0.00    +0.000 A 
ATOM     33  C   UNL     1      -5.073  13.396  24.394  0.00  0.00    +0.000 A 
ATOM     34  C   UNL     1      -5.291  14.590  23.751  0.00  0.00    +0.000 A 
ATOM     35  C   UNL     1      -4.526  14.981  22.678  0.00  0.00    +0.000 A 
ATOM     36  C   UNL     1      -3.509  14.191  22.174  0.00  0.00    +0.000 A 
ATOM     37  O   UNL     1      -4.915  16.189  22.186  0.00  0.00    +0.000 OA
ATOM     38  C   UNL     1      -6.071  16.454  23.010  0.00  0.00    +0.000 C 
ATOM     39  O   UNL     1      -6.253  15.493  24.067  0.00  0.00    +0.000 OA
ENDBRANCH  29  31
ENDBRANCH   1  28
TORSDOF 8
ENDMDL
MODEL 5
REMARK VINA RESULT:      -7.8      3.834     12.690
REMARK  Name = 
REMARK  8 active torsions:
REMARK  status: ('A' for Active; 'I' for Inactive)
REMARK    1  A    between atoms: C_2  and  C_13
REMARK    2  A    between atoms: N_3  and  C_4
REMARK    3  A    between atoms: C_17  and  C_18
REMARK    4  A    between atoms: C_18  and  O_19
REMARK    5  A    between atoms: N_22  and  C_23
REMARK    6  A    between atoms: C_23  and  C_24
REMARK    7  A    between atoms: C_24  and  C_25
REMARK    8  A    between atoms: C_25  and  C_26
REMARK                            x       y       z     vdW  Elec       q    Type
REMARK                         _______ _______ _______ _____ _____    ______ ____
ROOT
ATOM      1  C   UNL     1      -0.553  10.955  22.175  0.00  0.00    +0.000 A 
ATOM      2  C   UNL     1      -0.116   9.701  22.543  0.00  0.00    +0.000 A 
ATOM      3  C   UNL     1       0.559   9.163  21.427  0.00  0.00    +0.000 A 
ATOM      4  C   UNL     1       1.165   7.932  21.144  0.00  0.00    +0.000 A 
ATOM      5  C   UNL     1       1.706   7.692  19.867  0.00  0.00    +0.000 A 
ATOM      6  C   UNL     1       1.697   8.745  18.925  0.00  0.00    +0.000 A 
ATOM      7  C   UNL     1       1.112   9.994  19.193  0.00  0.00    +0.000 A 
ATOM      8  C   UNL     1       0.533  10.147  20.449  0.00  0.00    +0.000 A 
ATOM      9  O   UNL     1      -0.142  11.245  20.899  0.00  0.00    +0.000 OA
ENDROOT
BRANCH   5  10
ATOM     10  C   UNL     1       2.272   6.316  19.483  0.00  0.00    +0.000 C 
ATOM     11  C   UNL     1       1.839   5.855  18.083  0.00  0.00    +0.000 C 
ATOM     12  C   UNL     1       2.512   4.559  17.664  0.00  0.00    +0.000 C 
ATOM     13  N   UNL     1       3.968   4.733  17.674  0.00  0.00    +0.000 NA
ATOM     14  C   UNL     1       4.423   5.013  19.044  0.00  0.00    +0.000 C 
ATOM     15  C   UNL     1       3.810   6.312  19.573  0.00  0.00    +0.000 C 
BRANCH  10  16
ATOM     16  O   UNL     1       1.757   5.367  20.428  0.00  0.00    +0.000 OA
ATOM     17  H   UNL     1       0.996   4.930  20.007  0.00  0.00    +0.000 HD
ENDBRANCH  10  16
BRANCH  13  18
ATOM     18  C   UNL     1       4.660   3.557  17.127  0.00  0.00    +0.000 C 
BRANCH  18  19
ATOM     19  C   UNL     1       5.255   3.791  15.734  0.00  0.00    +0.000 C 
BRANCH  19  20
ATOM     20  C   UNL     1       6.772   4.001  15.755  0.00  0.00    +0.000 C 
BRANCH  20  21
ATOM     21  C   UNL     1       7.131   5.036  16.791  0.00  0.00    +0.000 A 
ATOM     22  C   UNL     1       7.026   6.402  16.496  0.00  0.00    +0.000 A 
ATOM     23  C   UNL     1       7.449   7.355  17.422  0.00  0.00    +0.000 A 
ATOM     24  C   UNL     1       7.979   6.951  18.646  0.00  0.00    +0.000 A 
ATOM     25  C   UNL     1       8.077   5.595  18.951  0.00  0.00    +0.000 A 
ATOM     26  C   UNL     1       7.654   4.640  18.027  0.00  0.00    +0.000 A 
ENDBRANCH  20  21
ENDBRANCH  19  20
ENDBRANCH  18  19
ENDBRANCH  13  18
ENDBRANCH   5  10
BRANCH   1  28
ATOM     27  O   UNL     1      -2.393  11.515  23.476  0.00  0.00    +0.000 OA
ATOM     28  C   UNL     1      -1.355  11.886  22.932  0.00  0.00    +0.000 C 
ATOM     29  N   UNL     1      -0.881  13.187  22.921  0.00  0.00    +0.000 N 
ATOM     30  H   UNL     1      -0.096  13.364  22.307  0.00  0.00    +0.000 HD
BRANCH  29  31
ATOM     31  C   UNL     1      -1.513  14.295  23.525  0.00  0.00    +0.000 A 
ATOM     32  C   UNL     1      -2.474  14.152  24.549  0.00  0.00    +0.000 A 
ATOM     33  C   UNL     1      -3.155  15.254  25.067  0.00  0.00    +0.000 A 
ATOM     34  C   UNL     1      -2.855  16.487  24.544  0.00  0.00    +0.000 A 
ATOM     35  C   UNL     1      -1.892  16.645  23.576  0.00  0.00    +0.000 A 
ATOM     36  C   UNL     1      -1.185  15.573  23.060  0.00  0.00    +0.000 A 
ATOM     37  O   UNL     1      -1.760  17.944  23.193  0.00  0.00    +0.000 OA
ATOM     38  C   UNL     1      -2.819  18.558  23.959  0.00  0.00    +0.000 C 
ATOM     39  O   UNL     1      -3.449  17.657  24.889  0.00  0.00    +0.000 OA
ENDBRANCH  29  31
ENDBRANCH   1  28
TORSDOF 8
ENDMDL
MODEL 6
REMARK VINA RESULT:      -7.7      2.655     13.043
REMARK  Name = 
REMARK  8 active torsions:
REMARK  status: ('A' for Active; 'I' for Inactive)
REMARK    1  A    between atoms: C_2  and  C_13
REMARK    2  A    between atoms: N_3  and  C_4
REMARK    3  A    between atoms: C_17  and  C_18
REMARK    4  A    between atoms: C_18  and  O_19
REMARK    5  A    between atoms: N_22  and  C_23
REMARK    6  A    between atoms: C_23  and  C_24
REMARK    7  A    between atoms: C_24  and  C_25
REMARK    8  A    between atoms: C_25  and  C_26
REMARK                            x       y       z     vdW  Elec       q    Type
REMARK                         _______ _______ _______ _____ _____    ______ ____
ROOT
ATOM      1  C   UNL     1      -0.049  10.804  21.013  0.00  0.00    +0.000 A 
ATOM      2  C   UNL     1       0.566  10.594  19.799  0.00  0.00    +0.000 A 
ATOM      3  C   UNL     1       1.081   9.282  19.826  0.00  0.00    +0.000 A 
ATOM      4  C   UNL     1       1.846   8.507  18.945  0.00  0.00    +0.000 A 
ATOM      5  C   UNL     1       2.258   7.214  19.321  0.00  0.00    +0.000 A 
ATOM      6  C   UNL     1       1.809   6.700  20.557  0.00  0.00    +0.000 A 
ATOM      7  C   UNL     1       1.024   7.452  21.449  0.00  0.00    +0.000 A 
ATOM      8  C   UNL     1       0.707   8.746  21.050  0.00  0.00    +0.000 A 
ATOM      9  O   UNL     1       0.015   9.669  21.780  0.00  0.00    +0.000 OA
ENDROOT
BRANCH   5  10
ATOM     10  C   UNL     1       3.195   6.383  18.432  0.00  0.00    +0.000 C 
ATOM     11  C   UNL     1       3.881   7.213  17.335  0.00  0.00    +0.000 C 
ATOM     12  C   UNL     1       4.903   6.409  16.551  0.00  0.00    +0.000 C 
ATOM     13  N   UNL     1       5.929   5.892  17.463  0.00  0.00    +0.000 NA
ATOM     14  C   UNL     1       5.316   4.962  18.422  0.00  0.00    +0.000 C 
ATOM     15  C   UNL     1       4.265   5.669  19.280  0.00  0.00    +0.000 C 
BRANCH  10  16
ATOM     16  O   UNL     1       2.391   5.388  17.781  0.00  0.00    +0.000 OA
ATOM     17  H   UNL     1       2.321   5.647  16.845  0.00  0.00    +0.000 HD
ENDBRANCH  10  16
BRANCH  13  18
ATOM     18  C   UNL     1       7.025   5.239  16.734  0.00  0.00    +0.000 C 
BRANCH  18  19
ATOM     19  C   UNL     1       6.545   4.301  15.621  0.00  0.00    +0.000 C 
BRANCH  19  20
ATOM     20  C   UNL     1       7.041   4.713  14.231  0.00  0.00    +0.000 C 
BRANCH  20  21
ATOM     21  C   UNL     1       6.369   3.869  13.177  0.00  0.00    +0.000 A 
ATOM     22  C   UNL     1       7.133   3.072  12.313  0.00  0.00    +0.000 A 
ATOM     23  C   UNL     1       6.517   2.367  11.280  0.00  0.00    +0.000 A 
ATOM     24  C   UNL     1       5.138   2.453  11.102  0.00  0.00    +0.000 A 
ATOM     25  C   UNL     1       4.370   3.235  11.963  0.00  0.00    +0.000 A 
ATOM     26  C   UNL     1       4.983   3.940  12.999  0.00  0.00    +0.000 A 
ENDBRANCH  20  21
ENDBRANCH  19  20
ENDBRANCH  18  19
ENDBRANCH  13  18
ENDBRANCH   5  10
BRANCH   1  28
ATOM     27  O   UNL     1      -0.106  12.689  22.369  0.00  0.00    +0.000 OA
ATOM     28  C   UNL     1      -0.668  12.010  21.512  0.00  0.00    +0.000 C 
ATOM     29  N   UNL     1      -1.926  12.264  20.991  0.00  0.00    +0.000 N 
ATOM     30  H   UNL     1      -2.314  11.534  20.408  0.00  0.00    +0.000 HD
BRANCH  29  31
ATOM     31  C   UNL     1      -2.765  13.335  21.362  0.00  0.00    +0.000 A 
ATOM     32  C   UNL     1      -2.624  14.630  20.819  0.00  0.00    +0.000 A 
ATOM     33  C   UNL     1      -3.403  15.697  21.268  0.00  0.00    +0.000 A 
ATOM     34  C   UNL     1      -4.317  15.440  22.260  0.00  0.00    +0.000 A 
ATOM     35  C   UNL     1      -4.493  14.175  22.769  0.00  0.00    +0.000 A 
ATOM     36  C   UNL     1      -3.751  13.095  22.327  0.00  0.00    +0.000 A 
ATOM     37  O   UNL     1      -5.439  14.144  23.747  0.00  0.00    +0.000 OA
ATOM     38  C   UNL     1      -5.756  15.549  23.857  0.00  0.00    +0.000 C 
ATOM     39  O   UNL     1      -5.121  16.360  22.850  0.00  0.00    +0.000 OA
ENDBRANCH  29  31
ENDBRANCH   1  28
TORSDOF 8
ENDMDL
MODEL 7
REMARK VINA RESULT:      -7.7      1.564      2.276
REMARK  Name = 
REMARK  8 active torsions:
REMARK  status: ('A' for Active; 'I' for Inactive)
REMARK    1  A    between atoms: C_2  and  C_13
REMARK    2  A    between atoms: N_3  and  C_4
REMARK    3  A    between atoms: C_17  and  C_18
REMARK    4  A    between atoms: C_18  and  O_19
REMARK    5  A    between atoms: N_22  and  C_23
REMARK    6  A    between atoms: C_23  and  C_24
REMARK    7  A    between atoms: C_24  and  C_25
REMARK    8  A    between atoms: C_25  and  C_26
REMARK                            x       y       z     vdW  Elec       q    Type
REMARK                         _______ _______ _______ _____ _____    ______ ____
ROOT
ATOM      1  C   UNL     1       1.809   8.030  19.468  0.00  0.00    +0.000 A 
ATOM      2  C   UNL     1       1.182   9.196  19.085  0.00  0.00    +0.000 A 
ATOM      3  C   UNL     1       0.576   9.729  20.241  0.00  0.00    +0.000 A 
ATOM      4  C   UNL     1      -0.240  10.838  20.501  0.00  0.00    +0.000 A 
ATOM      5  C   UNL     1      -0.743  11.053  21.800  0.00  0.00    +0.000 A 
ATOM      6  C   UNL     1      -0.332  10.179  22.830  0.00  0.00    +0.000 A 
ATOM      7  C   UNL     1       0.502   9.072  22.597  0.00  0.00    +0.000 A 
ATOM      8  C   UNL     1       0.909   8.874  21.282  0.00  0.00    +0.000 A 
ATOM      9  O   UNL     1       1.663   7.835  20.818  0.00  0.00    +0.000 OA
ENDROOT
BRANCH   5  10
ATOM     10  C   UNL     1      -1.734  12.188  22.096  0.00  0.00    +0.000 C 
ATOM     11  C   UNL     1      -2.583  11.935  23.352  0.00  0.00    +0.000 C 
ATOM     12  C   UNL     1      -3.461  13.123  23.709  0.00  0.00    +0.000 C 
ATOM     13  N   UNL     1      -2.624  14.305  23.935  0.00  0.00    +0.000 NA
ATOM     14  C   UNL     1      -1.927  14.663  22.691  0.00  0.00    +0.000 C 
ATOM     15  C   UNL     1      -1.000  13.534  22.235  0.00  0.00    +0.000 C 
BRANCH  10  16
ATOM     16  O   UNL     1      -2.631  12.271  20.979  0.00  0.00    +0.000 OA
ATOM     17  H   UNL     1      -2.084  12.386  20.183  0.00  0.00    +0.000 HD
ENDBRANCH  10  16
BRANCH  13  18
ATOM     18  C   UNL     1      -3.412  15.441  24.434  0.00  0.00    +0.000 C 
BRANCH  18  19
ATOM     19  C   UNL     1      -4.435  15.967  23.421  0.00  0.00    +0.000 C 
BRANCH  19  20
ATOM     20  C   UNL     1      -5.886  15.758  23.867  0.00  0.00    +0.000 C 
BRANCH  20  21
ATOM     21  C   UNL     1      -6.516  14.653  23.057  0.00  0.00    +0.000 A 
ATOM     22  C   UNL     1      -6.444  14.671  21.657  0.00  0.00    +0.000 A 
ATOM     23  C   UNL     1      -7.109  13.701  20.908  0.00  0.00    +0.000 A 
ATOM     24  C   UNL     1      -7.848  12.709  21.550  0.00  0.00    +0.000 A 
ATOM     25  C   UNL     1      -7.916  12.679  22.941  0.00  0.00    +0.000 A 
ATOM     26  C   UNL     1      -7.251  13.647  23.693  0.00  0.00    +0.000 A 
ENDBRANCH  20  21
ENDBRANCH  19  20
ENDBRANCH  18  19
ENDBRANCH  13  18
ENDBRANCH   5  10
BRANCH   1  28
ATOM     27  O   UNL     1       1.891   6.192  18.052  0.00  0.00    +0.000 OA
ATOM     28  C   UNL     1       2.509   7.073  18.646  0.00  0.00    +0.000 C 
ATOM     29  N   UNL     1       3.887   7.214  18.654  0.00  0.00    +0.000 N 
ATOM     30  H   UNL     1       4.255   7.893  19.308  0.00  0.00    +0.000 HD
BRANCH  29  31
ATOM     31  C   UNL     1       4.801   6.369  17.990  0.00  0.00    +0.000 A 
ATOM     32  C   UNL     1       5.703   5.535  18.685  0.00  0.00    +0.000 A 
ATOM     33  C   UNL     1       6.662   4.778  18.011  0.00  0.00    +0.000 A 
ATOM     34  C   UNL     1       6.696   4.873  16.641  0.00  0.00    +0.000 A 
ATOM     35  C   UNL     1       5.796   5.649  15.949  0.00  0.00    +0.000 A 
ATOM     36  C   UNL     1       4.822   6.392  16.591  0.00  0.00    +0.000 A 
ATOM     37  O   UNL     1       6.012   5.607  14.607  0.00  0.00    +0.000 OA
ATOM     38  C   UNL     1       7.208   4.799  14.552  0.00  0.00    +0.000 C 
ATOM     39  O   UNL     1       7.586   4.250  15.829  0.00  0.00    +0.000 OA
ENDBRANCH  29  31
ENDBRANCH   1  28
TORSDOF 8
ENDMDL
MODEL 8
REMARK VINA RESULT:      -7.6      1.382      2.096
REMARK  Name = 
REMARK  8 active torsions:
REMARK  status: ('A' for Active; 'I' for Inactive)
REMARK    1  A    between atoms: C_2  and  C_13
REMARK    2  A    between atoms: N_3  and  C_4
REMARK    3  A    between atoms: C_17  and  C_18
REMARK    4  A    between atoms: C_18  and  O_19
REMARK    5  A    between atoms: N_22  and  C_23
REMARK    6  A    between atoms: C_23  and  C_24
REMARK    7  A    between atoms: C_24  and  C_25
REMARK    8  A    between atoms: C_25  and  C_26
REMARK                            x       y       z     vdW  Elec       q    Type
REMARK                         _______ _______ _______ _____ _____    ______ ____
ROOT
ATOM      1  C   UNL     1       1.484   8.218  20.201  0.00  0.00    +0.000 A 
ATOM      2  C   UNL     1       0.921   9.342  19.638  0.00  0.00    +0.000 A 
ATOM      3  C   UNL     1       0.194   9.987  20.660  0.00  0.00    +0.000 A 
ATOM      4  C   UNL     1      -0.631  11.118  20.715  0.00  0.00    +0.000 A 
ATOM      5  C   UNL     1      -1.277  11.459  21.920  0.00  0.00    +0.000 A 
ATOM      6  C   UNL     1      -1.000  10.688  23.071  0.00  0.00    +0.000 A 
ATOM      7  C   UNL     1      -0.160   9.561  23.043  0.00  0.00    +0.000 A 
ATOM      8  C   UNL     1       0.393   9.236  21.809  0.00  0.00    +0.000 A 
ATOM      9  O   UNL     1       1.182   8.155  21.538  0.00  0.00    +0.000 OA
ENDROOT
BRANCH   5  10
ATOM     10  C   UNL     1      -2.280  12.620  21.989  0.00  0.00    +0.000 C 
ATOM     11  C   UNL     1      -2.925  12.941  20.632  0.00  0.00    +0.000 C 
ATOM     12  C   UNL     1      -4.011  13.998  20.740  0.00  0.00    +0.000 C 
ATOM     13  N   UNL     1      -5.056  13.540  21.662  0.00  0.00    +0.000 NA
ATOM     14  C   UNL     1      -4.491  13.385  23.011  0.00  0.00    +0.000 C 
ATOM     15  C   UNL     1      -3.382  12.330  23.025  0.00  0.00    +0.000 C 
BRANCH  10  16
ATOM     16  O   UNL     1      -1.554  13.784  22.408  0.00  0.00    +0.000 OA
ATOM     17  H   UNL     1      -1.110  13.557  23.244  0.00  0.00    +0.000 HD
ENDBRANCH  10  16
BRANCH  13  18
ATOM     18  C   UNL     1      -6.204  14.458  21.682  0.00  0.00    +0.000 C 
BRANCH  18  19
ATOM     19  C   UNL     1      -7.542  13.768  21.393  0.00  0.00    +0.000 C 
BRANCH  19  20
ATOM     20  C   UNL     1      -7.708  12.441  22.140  0.00  0.00    +0.000 C 
BRANCH  20  21
ATOM     21  C   UNL     1      -7.467  11.290  21.197  0.00  0.00    +0.000 A 
ATOM     22  C   UNL     1      -6.868  11.510  19.949  0.00  0.00    +0.000 A 
ATOM     23  C   UNL     1      -6.733  10.460  19.040  0.00  0.00    +0.000 A 
ATOM     24  C   UNL     1      -7.194   9.188  19.371  0.00  0.00    +0.000 A 
ATOM     25  C   UNL     1      -7.781   8.959  20.614  0.00  0.00    +0.000 A 
ATOM     26  C   UNL     1      -7.916  10.006  21.525  0.00  0.00    +0.000 A 
ENDBRANCH  20  21
ENDBRANCH  19  20
ENDBRANCH  18  19
ENDBRANCH  13  18
ENDBRANCH   5  10
BRANCH   1  28
ATOM     27  O   UNL     1       2.331   6.060  20.056  0.00  0.00    +0.000 OA
ATOM     28  C   UNL     1       2.261   7.183  19.561  0.00  0.00    +0.000 C 
ATOM     29  N   UNL     1       2.935   7.597  18.424  0.00  0.00    +0.000 N 
ATOM     30  H   UNL     1       2.896   8.590  18.227  0.00  0.00    +0.000 HD
BRANCH  29  31
ATOM     31  C   UNL     1       3.811   6.802  17.655  0.00  0.00    +0.000 A 
ATOM     32  C   UNL     1       4.752   7.359  16.762  0.00  0.00    +0.000 A 
ATOM     33  C   UNL     1       5.542   6.553  15.943  0.00  0.00    +0.000 A 
ATOM     34  C   UNL     1       5.374   5.194  16.038  0.00  0.00    +0.000 A 
ATOM     35  C   UNL     1       4.491   4.637  16.933  0.00  0.00    +0.000 A 
ATOM     36  C   UNL     1       3.711   5.411  17.772  0.00  0.00    +0.000 A 
ATOM     37  O   UNL     1       4.474   3.279  16.856  0.00  0.00    +0.000 OA
ATOM     38  C   UNL     1       5.370   3.061  15.745  0.00  0.00    +0.000 C 
ATOM     39  O   UNL     1       6.018   4.264  15.289  0.00  0.00    +0.000 OA
ENDBRANCH  29  31
ENDBRANCH   1  28
TORSDOF 8
ENDMDL
MODEL 9
REMARK VINA RESULT:      -7.6      2.536     13.231
REMARK  Name = 
REMARK  8 active torsions:
REMARK  status: ('A' for Active; 'I' for Inactive)
REMARK    1  A    between atoms: C_2  and  C_13
REMARK    2  A    between atoms: N_3  and  C_4
REMARK    3  A    between atoms: C_17  and  C_18
REMARK    4  A    between atoms: C_18  and  O_19
REMARK    5  A    between atoms: N_22  and  C_23
REMARK    6  A    between atoms: C_23  and  C_24
REMARK    7  A    between atoms: C_24  and  C_25
REMARK    8  A    between atoms: C_25  and  C_26
REMARK                            x       y       z     vdW  Elec       q    Type
REMARK                         _______ _______ _______ _____ _____    ______ ____
ROOT
ATOM      1  C   UNL     1       0.577  10.130  20.284  0.00  0.00    +0.000 A 
ATOM      2  C   UNL     1       1.363   9.872  19.182  0.00  0.00    +0.000 A 
ATOM      3  C   UNL     1       1.825   8.546  19.314  0.00  0.00    +0.000 A 
ATOM      4  C   UNL     1       2.690   7.728  18.575  0.00  0.00    +0.000 A 
ATOM      5  C   UNL     1       2.998   6.433  19.036  0.00  0.00    +0.000 A 
ATOM      6  C   UNL     1       2.350   5.963  20.199  0.00  0.00    +0.000 A 
ATOM      7  C   UNL     1       1.464   6.759  20.946  0.00  0.00    +0.000 A 
ATOM      8  C   UNL     1       1.253   8.052  20.477  0.00  0.00    +0.000 A 
ATOM      9  O   UNL     1       0.488   9.012  21.074  0.00  0.00    +0.000 OA
ENDROOT
BRANCH   5  10
ATOM     10  C   UNL     1       4.032   5.554  18.317  0.00  0.00    +0.000 C 
ATOM     11  C   UNL     1       3.393   4.484  17.417  0.00  0.00    +0.000 C 
ATOM     12  C   UNL     1       4.422   3.712  16.610  0.00  0.00    +0.000 C 
ATOM     13  N   UNL     1       5.188   4.639  15.771  0.00  0.00    +0.000 NA
ATOM     14  C   UNL     1       5.941   5.570  16.622  0.00  0.00    +0.000 C 
ATOM     15  C   UNL     1       4.998   6.415  17.483  0.00  0.00    +0.000 C 
BRANCH  10  16
ATOM     16  O   UNL     1       4.786   4.871  19.329  0.00  0.00    +0.000 OA
ATOM     17  H   UNL     1       5.649   4.647  18.938  0.00  0.00    +0.000 HD
ENDBRANCH  10  16
BRANCH  13  18
ATOM     18  C   UNL     1       6.091   3.925  14.857  0.00  0.00    +0.000 C 
BRANCH  18  19
ATOM     19  C   UNL     1       7.204   4.809  14.284  0.00  0.00    +0.000 C 
BRANCH  19  20
ATOM     20  C   UNL     1       7.159   4.918  12.756  0.00  0.00    +0.000 C 
BRANCH  20  21
ATOM     21  C   UNL     1       6.626   3.637  12.167  0.00  0.00    +0.000 A 
ATOM     22  C   UNL     1       7.507   2.653  11.695  0.00  0.00    +0.000 A 
ATOM     23  C   UNL     1       7.012   1.512  11.065  0.00  0.00    +0.000 A 
ATOM     24  C   UNL     1       5.638   1.346  10.901  0.00  0.00    +0.000 A 
ATOM     25  C   UNL     1       4.756   2.315  11.376  0.00  0.00    +0.000 A 
ATOM     26  C   UNL     1       5.248   3.456  12.008  0.00  0.00    +0.000 A 
ENDBRANCH  20  21
ENDBRANCH  19  20
ENDBRANCH  18  19
ENDBRANCH  13  18
ENDBRANCH   5  10
BRANCH   1  28
ATOM     27  O   UNL     1       0.543  12.428  20.611  0.00  0.00    +0.000 OA
ATOM     28  C   UNL     1      -0.070  11.364  20.659  0.00  0.00    +0.000 C 
ATOM     29  N   UNL     1      -1.370  11.211  21.114  0.00  0.00    +0.000 N 
ATOM     30  H   UNL     1      -1.683  10.256  21.235  0.00  0.00    +0.000 HD
BRANCH  29  31
ATOM     31  C   UNL     1      -2.194  12.247  21.602  0.00  0.00    +0.000 A 
ATOM     32  C   UNL     1      -2.270  12.572  22.973  0.00  0.00    +0.000 A 
ATOM     33  C   UNL     1      -3.162  13.536  23.444  0.00  0.00    +0.000 A 
ATOM     34  C   UNL     1      -3.964  14.161  22.522  0.00  0.00    +0.000 A 
ATOM     35  C   UNL     1      -3.872  13.884  21.179  0.00  0.00    +0.000 A 
ATOM     36  C   UNL     1      -2.981  12.949  20.682  0.00  0.00    +0.000 A 
ATOM     37  O   UNL     1      -4.761  14.606  20.445  0.00  0.00    +0.000 OA
ATOM     38  C   UNL     1      -5.485  15.286  21.494  0.00  0.00    +0.000 C 
ATOM     39  O   UNL     1      -4.919  15.084  22.802  0.00  0.00    +0.000 OA
ENDBRANCH  29  31
ENDBRANCH   1  28
TORSDOF 8
ENDMDL
