MODEL 1
REMARK VINA RESULT:      -8.3      0.000      0.000
REMARK  Name = 
REMARK  3 active torsions:
REMARK  status: ('A' for Active; 'I' for Inactive)
REMARK    1  A    between atoms: C_5  and  C_6
REMARK    2  A    between atoms: C_6  and  O_8
REMARK    3  A    between atoms: O_8  and  C_9
REMARK                            x       y       z     vdW  Elec       q    Type
REMARK                         _______ _______ _______ _____ _____    ______ ____
ROOT
ATOM      1  C   UNL     1       5.632   5.067  18.849  0.00  0.00    +0.000 C 
ATOM      2  O   UNL     1       6.479   5.072  19.733  0.00  0.00    +0.000 OA
ENDROOT
BRANCH   1   7
ATOM      3  O   UNL     1       7.228   5.158  14.109  0.00  0.00    +0.000 OA
ATOM      4  C   UNL     1       6.814   5.354  15.241  0.00  0.00    +0.000 C 
ATOM      5  C   UNL     1       5.515   4.729  15.680  0.00  0.00    +0.000 C 
ATOM      6  C   UNL     1       4.778   5.736  16.550  0.00  0.00    +0.000 C 
ATOM      7  C   UNL     1       5.642   6.126  17.774  0.00  0.00    +0.000 C 
ATOM      8  C   UNL     1       7.071   6.454  17.341  0.00  0.00    +0.000 C 
ATOM      9  O   UNL     1       7.801   7.048  18.119  0.00  0.00    +0.000 OA
ATOM     10  N   UNL     1       7.540   6.111  16.108  0.00  0.00    +0.000 N 
ATOM     11  H   UNL     1       8.477   6.439  15.822  0.00  0.00    +0.000 HD
ENDBRANCH   1   7
BRANCH   1  12
ATOM     12  O   UNL     1       4.656   4.119  18.836  0.00  0.00    +0.000 OA
BRANCH  12  13
ATOM     13  C   UNL     1       3.665   4.021  19.802  0.00  0.00    +0.000 C 
ATOM     14  C   UNL     1       3.291   2.531  20.071  0.00  0.00    +0.000 C 
ATOM     15  N   UNL     1       1.843   2.298  19.874  0.00  0.00    +0.000 NA
ATOM     16  C   UNL     1       1.074   3.177  20.786  0.00  0.00    +0.000 C 
ATOM     17  C   UNL     1       1.355   4.673  20.488  0.00  0.00    +0.000 C 
ATOM     18  C   UNL     1       2.394   4.776  19.353  0.00  0.00    +0.000 C 
ATOM     19  C   UNL     1       1.800   4.081  18.115  0.00  0.00    +0.000 C 
ATOM     20  C   UNL     1       1.495   2.600  18.464  0.00  0.00    +0.000 C 
ENDBRANCH  12  13
ENDBRANCH   1  12
TORSDOF 3
ENDMDL
MODEL 2
REMARK VINA RESULT:      -8.0      0.850      1.563
REMARK  Name = 
REMARK  3 active torsions:
REMARK  status: ('A' for Active; 'I' for Inactive)
REMARK    1  A    between atoms: C_5  and  C_6
REMARK    2  A    between atoms: C_6  and  O_8
REMARK    3  A    between atoms: O_8  and  C_9
REMARK                            x       y       z     vdW  Elec       q    Type
REMARK                         _______ _______ _______ _____ _____    ______ ____
ROOT
ATOM      1  C   UNL     1       5.474   5.242  18.907  0.00  0.00    +0.000 C 
ATOM      2  O   UNL     1       6.378   4.442  19.114  0.00  0.00    +0.000 OA
ENDROOT
BRANCH   1   7
ATOM      3  O   UNL     1       7.139   4.766  14.214  0.00  0.00    +0.000 OA
ATOM      4  C   UNL     1       6.716   5.097  15.311  0.00  0.00    +0.000 C 
ATOM      5  C   UNL     1       5.390   4.566  15.792  0.00  0.00    +0.000 C 
ATOM      6  C   UNL     1       4.676   5.684  16.535  0.00  0.00    +0.000 C 
ATOM      7  C   UNL     1       5.536   6.177  17.725  0.00  0.00    +0.000 C 
ATOM      8  C   UNL     1       6.980   6.410  17.285  0.00  0.00    +0.000 C 
ATOM      9  O   UNL     1       7.720   7.061  18.006  0.00  0.00    +0.000 OA
ATOM     10  N   UNL     1       7.455   5.920  16.104  0.00  0.00    +0.000 N 
ATOM     11  H   UNL     1       8.407   6.184  15.801  0.00  0.00    +0.000 HD
ENDBRANCH   1   7
BRANCH   1  12
ATOM     12  O   UNL     1       4.412   5.314  19.755  0.00  0.00    +0.000 OA
BRANCH  12  13
ATOM     13  C   UNL     1       3.135   4.881  19.428  0.00  0.00    +0.000 C 
ATOM     14  C   UNL     1       2.155   5.078  20.625  0.00  0.00    +0.000 C 
ATOM     15  N   UNL     1       1.498   3.804  20.994  0.00  0.00    +0.000 NA
ATOM     16  C   UNL     1       0.757   3.275  19.825  0.00  0.00    +0.000 C 
ATOM     17  C   UNL     1       1.717   2.984  18.642  0.00  0.00    +0.000 C 
ATOM     18  C   UNL     1       3.151   3.386  19.043  0.00  0.00    +0.000 C 
ATOM     19  C   UNL     1       3.541   2.548  20.273  0.00  0.00    +0.000 C 
ATOM     20  C   UNL     1       2.537   2.835  21.421  0.00  0.00    +0.000 C 
ENDBRANCH  12  13
ENDBRANCH   1  12
TORSDOF 3
ENDMDL
MODEL 3
REMARK VINA RESULT:      -8.0      1.354      1.486
REMARK  Name = 
REMARK  3 active torsions:
REMARK  status: ('A' for Active; 'I' for Inactive)
REMARK    1  A    between atoms: C_5  and  C_6
REMARK    2  A    between atoms: C_6  and  O_8
REMARK    3  A    between atoms: O_8  and  C_9
REMARK                            x       y       z     vdW  Elec       q    Type
REMARK                         _______ _______ _______ _____ _____    ______ ____
ROOT
ATOM      1  C   UNL     1       6.013   5.500  19.010  0.00  0.00    +0.000 C 
ATOM      2  O   UNL     1       6.625   5.207  20.030  0.00  0.00    +0.000 OA
ENDROOT
BRANCH   1   7
ATOM      3  O   UNL     1       5.489   4.280  14.187  0.00  0.00    +0.000 OA
ATOM      4  C   UNL     1       5.808   4.671  15.300  0.00  0.00    +0.000 C 
ATOM      5  C   UNL     1       4.948   5.685  16.009  0.00  0.00    +0.000 C 
ATOM      6  C   UNL     1       5.867   6.648  16.747  0.00  0.00    +0.000 C 
ATOM      7  C   UNL     1       6.757   5.879  17.754  0.00  0.00    +0.000 C 
ATOM      8  C   UNL     1       7.380   4.650  17.093  0.00  0.00    +0.000 C 
ATOM      9  O   UNL     1       8.320   4.097  17.642  0.00  0.00    +0.000 OA
ATOM     10  N   UNL     1       6.918   4.167  15.904  0.00  0.00    +0.000 N 
ATOM     11  H   UNL     1       7.431   3.396  15.447  0.00  0.00    +0.000 HD
ENDBRANCH   1   7
BRANCH   1  12
ATOM     12  O   UNL     1       4.653   5.508  19.003  0.00  0.00    +0.000 OA
BRANCH  12  13
ATOM     13  C   UNL     1       3.873   4.532  19.606  0.00  0.00    +0.000 C 
ATOM     14  C   UNL     1       4.179   3.124  19.009  0.00  0.00    +0.000 C 
ATOM     15  N   UNL     1       2.950   2.485  18.489  0.00  0.00    +0.000 NA
ATOM     16  C   UNL     1       1.960   2.357  19.584  0.00  0.00    +0.000 C 
ATOM     17  C   UNL     1       1.565   3.748  20.145  0.00  0.00    +0.000 C 
ATOM     18  C   UNL     1       2.372   4.837  19.408  0.00  0.00    +0.000 C 
ATOM     19  C   UNL     1       2.026   4.740  17.913  0.00  0.00    +0.000 C 
ATOM     20  C   UNL     1       2.396   3.324  17.398  0.00  0.00    +0.000 C 
ENDBRANCH  12  13
ENDBRANCH   1  12
TORSDOF 3
ENDMDL
MODEL 4
REMARK VINA RESULT:      -7.8      1.955      6.214
REMARK  Name = 
REMARK  3 active torsions:
REMARK  status: ('A' for Active; 'I' for Inactive)
REMARK    1  A    between atoms: C_5  and  C_6
REMARK    2  A    between atoms: C_6  and  O_8
REMARK    3  A    between atoms: O_8  and  C_9
REMARK                            x       y       z     vdW  Elec       q    Type
REMARK                         _______ _______ _______ _____ _____    ______ ____
ROOT
ATOM      1  C   UNL     1       3.145   4.241  18.219  0.00  0.00    +0.000 C 
ATOM      2  O   UNL     1       2.315   5.130  18.365  0.00  0.00    +0.000 OA
ENDROOT
BRANCH   1   7
ATOM      3  O   UNL     1       1.184   2.504  22.481  0.00  0.00    +0.000 OA
ATOM      4  C   UNL     1       1.718   2.717  21.403  0.00  0.00    +0.000 C 
ATOM      5  C   UNL     1       0.899   3.255  20.258  0.00  0.00    +0.000 C 
ATOM      6  C   UNL     1       1.376   2.581  18.980  0.00  0.00    +0.000 C 
ATOM      7  C   UNL     1       2.884   2.855  18.756  0.00  0.00    +0.000 C 
ATOM      8  C   UNL     1       3.673   2.608  20.041  0.00  0.00    +0.000 C 
ATOM      9  O   UNL     1       4.887   2.498  19.977  0.00  0.00    +0.000 OA
ATOM     10  N   UNL     1       3.052   2.495  21.250  0.00  0.00    +0.000 N 
ATOM     11  H   UNL     1       3.613   2.231  22.076  0.00  0.00    +0.000 HD
ENDBRANCH   1   7
BRANCH   1  12
ATOM     12  O   UNL     1       4.323   4.496  17.589  0.00  0.00    +0.000 OA
BRANCH  12  13
ATOM     13  C   UNL     1       5.203   5.497  17.976  0.00  0.00    +0.000 C 
ATOM     14  C   UNL     1       5.261   6.633  16.908  0.00  0.00    +0.000 C 
ATOM     15  N   UNL     1       6.649   6.861  16.445  0.00  0.00    +0.000 NA
ATOM     16  C   UNL     1       7.501   7.221  17.603  0.00  0.00    +0.000 C 
ATOM     17  C   UNL     1       7.536   6.075  18.648  0.00  0.00    +0.000 C 
ATOM     18  C   UNL     1       6.624   4.926  18.169  0.00  0.00    +0.000 C 
ATOM     19  C   UNL     1       7.165   4.438  16.813  0.00  0.00    +0.000 C 
ATOM     20  C   UNL     1       7.153   5.620  15.808  0.00  0.00    +0.000 C 
ENDBRANCH  12  13
ENDBRANCH   1  12
TORSDOF 3
ENDMDL
MODEL 5
REMARK VINA RESULT:      -7.7      1.845      5.873
REMARK  Name = 
REMARK  3 active torsions:
REMARK  status: ('A' for Active; 'I' for Inactive)
REMARK    1  A    between atoms: C_5  and  C_6
REMARK    2  A    between atoms: C_6  and  O_8
REMARK    3  A    between atoms: O_8  and  C_9
REMARK                            x       y       z     vdW  Elec       q    Type
REMARK                         _______ _______ _______ _____ _____    ______ ____
ROOT
ATOM      1  C   UNL     1       4.389   4.193  19.623  0.00  0.00    +0.000 C 
ATOM      2  O   UNL     1       3.690   5.138  19.964  0.00  0.00    +0.000 OA
ENDROOT
BRANCH   1   7
ATOM      3  O   UNL     1       0.075   1.945  18.457  0.00  0.00    +0.000 OA
ATOM      4  C   UNL     1       1.175   2.305  18.846  0.00  0.00    +0.000 C 
ATOM      5  C   UNL     1       2.251   2.633  17.843  0.00  0.00    +0.000 C 
ATOM      6  C   UNL     1       3.576   2.124  18.390  0.00  0.00    +0.000 C 
ATOM      7  C   UNL     1       3.882   2.778  19.760  0.00  0.00    +0.000 C 
ATOM      8  C   UNL     1       2.655   2.721  20.669  0.00  0.00    +0.000 C 
ATOM      9  O   UNL     1       2.796   2.927  21.865  0.00  0.00    +0.000 OA
ATOM     10  N   UNL     1       1.415   2.434  20.179  0.00  0.00    +0.000 N 
ATOM     11  H   UNL     1       0.634   2.309  20.843  0.00  0.00    +0.000 HD
ENDBRANCH   1   7
BRANCH   1  12
ATOM     12  O   UNL     1       5.642   4.404  19.137  0.00  0.00    +0.000 OA
BRANCH  12  13
ATOM     13  C   UNL     1       5.989   4.235  17.804  0.00  0.00    +0.000 C 
ATOM     14  C   UNL     1       7.451   4.710  17.543  0.00  0.00    +0.000 C 
ATOM     15  N   UNL     1       7.499   5.733  16.474  0.00  0.00    +0.000 NA
ATOM     16  C   UNL     1       6.928   5.169  15.228  0.00  0.00    +0.000 C 
ATOM     17  C   UNL     1       5.444   4.765  15.426  0.00  0.00    +0.000 C 
ATOM     18  C   UNL     1       5.038   5.037  16.890  0.00  0.00    +0.000 C 
ATOM     19  C   UNL     1       5.228   6.541  17.153  0.00  0.00    +0.000 C 
ATOM     20  C   UNL     1       6.713   6.915  16.904  0.00  0.00    +0.000 C 
ENDBRANCH  12  13
ENDBRANCH   1  12
TORSDOF 3
ENDMDL
MODEL 6
REMARK VINA RESULT:      -7.7      2.222      6.283
REMARK  Name = 
REMARK  3 active torsions:
REMARK  status: ('A' for Active; 'I' for Inactive)
REMARK    1  A    between atoms: C_5  and  C_6
REMARK    2  A    between atoms: C_6  and  O_8
REMARK    3  A    between atoms: O_8  and  C_9
REMARK                            x       y       z     vdW  Elec       q    Type
REMARK                         _______ _______ _______ _____ _____    ______ ____
ROOT
ATOM      1  C   UNL     1       2.419   3.567  17.487  0.00  0.00    +0.000 C 
ATOM      2  O   UNL     1       2.370   2.427  17.045  0.00  0.00    +0.000 OA
ENDROOT
BRANCH   1   7
ATOM      3  O   UNL     1       2.218   3.284  22.477  0.00  0.00    +0.000 OA
ATOM      4  C   UNL     1       2.058   3.424  21.274  0.00  0.00    +0.000 C 
ATOM      5  C   UNL     1       2.895   4.426  20.521  0.00  0.00    +0.000 C 
ATOM      6  C   UNL     1       2.010   5.092  19.479  0.00  0.00    +0.000 C 
ATOM      7  C   UNL     1       1.419   4.033  18.516  0.00  0.00    +0.000 C 
ATOM      8  C   UNL     1       0.850   2.851  19.300  0.00  0.00    +0.000 C 
ATOM      9  O   UNL     1       0.101   2.071  18.731  0.00  0.00    +0.000 OA
ATOM     10  N   UNL     1       1.147   2.657  20.616  0.00  0.00    +0.000 N 
ATOM     11  H   UNL     1       0.663   1.903  21.131  0.00  0.00    +0.000 HD
ENDBRANCH   1   7
BRANCH   1  12
ATOM     12  O   UNL     1       3.364   4.438  17.040  0.00  0.00    +0.000 OA
BRANCH  12  13
ATOM     13  C   UNL     1       4.698   4.101  16.855  0.00  0.00    +0.000 C 
ATOM     14  C   UNL     1       5.531   4.393  18.140  0.00  0.00    +0.000 C 
ATOM     15  N   UNL     1       6.670   5.292  17.846  0.00  0.00    +0.000 NA
ATOM     16  C   UNL     1       7.538   4.667  16.821  0.00  0.00    +0.000 C 
ATOM     17  C   UNL     1       6.764   4.442  15.496  0.00  0.00    +0.000 C 
ATOM     18  C   UNL     1       5.302   4.901  15.681  0.00  0.00    +0.000 C 
ATOM     19  C   UNL     1       5.328   6.396  16.044  0.00  0.00    +0.000 C 
ATOM     20  C   UNL     1       6.144   6.587  17.348  0.00  0.00    +0.000 C 
ENDBRANCH  12  13
ENDBRANCH   1  12
TORSDOF 3
ENDMDL
MODEL 7
REMARK VINA RESULT:      -7.7      1.565      1.969
REMARK  Name = 
REMARK  3 active torsions:
REMARK  status: ('A' for Active; 'I' for Inactive)
REMARK    1  A    between atoms: C_5  and  C_6
REMARK    2  A    between atoms: C_6  and  O_8
REMARK    3  A    between atoms: O_8  and  C_9
REMARK                            x       y       z     vdW  Elec       q    Type
REMARK                         _______ _______ _______ _____ _____    ______ ____
ROOT
ATOM      1  C   UNL     1       6.891   5.118  19.019  0.00  0.00    +0.000 C 
ATOM      2  O   UNL     1       7.234   5.402  20.160  0.00  0.00    +0.000 OA
ENDROOT
BRANCH   1   7
ATOM      3  O   UNL     1       4.883   7.003  14.843  0.00  0.00    +0.000 OA
ATOM      4  C   UNL     1       5.568   6.590  15.767  0.00  0.00    +0.000 C 
ATOM      5  C   UNL     1       5.476   7.252  17.117  0.00  0.00    +0.000 C 
ATOM      6  C   UNL     1       6.874   7.300  17.715  0.00  0.00    +0.000 C 
ATOM      7  C   UNL     1       7.457   5.871  17.840  0.00  0.00    +0.000 C 
ATOM      8  C   UNL     1       7.251   5.090  16.543  0.00  0.00    +0.000 C 
ATOM      9  O   UNL     1       7.890   4.064  16.363  0.00  0.00    +0.000 OA
ATOM     10  N   UNL     1       6.386   5.519  15.580  0.00  0.00    +0.000 N 
ATOM     11  H   UNL     1       6.352   5.014  14.680  0.00  0.00    +0.000 HD
ENDBRANCH   1   7
BRANCH   1  12
ATOM     12  O   UNL     1       5.978   4.133  18.801  0.00  0.00    +0.000 OA
BRANCH  12  13
ATOM     13  C   UNL     1       4.714   4.114  19.373  0.00  0.00    +0.000 C 
ATOM     14  C   UNL     1       4.359   2.689  19.897  0.00  0.00    +0.000 C 
ATOM     15  N   UNL     1       3.094   2.200  19.304  0.00  0.00    +0.000 NA
ATOM     16  C   UNL     1       1.998   3.141  19.637  0.00  0.00    +0.000 C 
ATOM     17  C   UNL     1       2.277   4.551  19.055  0.00  0.00    +0.000 C 
ATOM     18  C   UNL     1       3.646   4.542  18.343  0.00  0.00    +0.000 C 
ATOM     19  C   UNL     1       3.577   3.497  17.217  0.00  0.00    +0.000 C 
ATOM     20  C   UNL     1       3.257   2.109  17.833  0.00  0.00    +0.000 C 
ENDBRANCH  12  13
ENDBRANCH   1  12
TORSDOF 3
ENDMDL
MODEL 8
REMARK VINA RESULT:      -7.6      1.492      2.136
REMARK  Name = 
REMARK  3 active torsions:
REMARK  status: ('A' for Active; 'I' for Inactive)
REMARK    1  A    between atoms: C_5  and  C_6
REMARK    2  A    between atoms: C_6  and  O_8
REMARK    3  A    between atoms: O_8  and  C_9
REMARK                            x       y       z     vdW  Elec       q    Type
REMARK                         _______ _______ _______ _____ _____    ______ ____
ROOT
ATOM      1  C   UNL     1       3.827   6.196  17.935  0.00  0.00    +0.000 C 
ATOM      2  O   UNL     1       3.297   7.197  18.400  0.00  0.00    +0.000 OA
ENDROOT
BRANCH   1   7
ATOM      3  O   UNL     1       6.614   3.711  14.607  0.00  0.00    +0.000 OA
ATOM      4  C   UNL     1       6.128   4.383  15.503  0.00  0.00    +0.000 C 
ATOM      5  C   UNL     1       5.277   5.579  15.162  0.00  0.00    +0.000 C 
ATOM      6  C   UNL     1       5.586   6.680  16.165  0.00  0.00    +0.000 C 
ATOM      7  C   UNL     1       5.299   6.192  17.607  0.00  0.00    +0.000 C 
ATOM      8  C   UNL     1       5.909   4.810  17.839  0.00  0.00    +0.000 C 
ATOM      9  O   UNL     1       6.027   4.402  18.984  0.00  0.00    +0.000 OA
ATOM     10  N   UNL     1       6.333   4.033  16.802  0.00  0.00    +0.000 N 
ATOM     11  H   UNL     1       6.827   3.151  17.010  0.00  0.00    +0.000 HD
ENDBRANCH   1   7
BRANCH   1  12
ATOM     12  O   UNL     1       3.089   5.080  17.687  0.00  0.00    +0.000 OA
BRANCH  12  13
ATOM     13  C   UNL     1       2.211   4.518  18.602  0.00  0.00    +0.000 C 
ATOM     14  C   UNL     1       2.883   4.370  20.002  0.00  0.00    +0.000 C 
ATOM     15  N   UNL     1       2.830   2.969  20.477  0.00  0.00    +0.000 NA
ATOM     16  C   UNL     1       1.417   2.528  20.553  0.00  0.00    +0.000 C 
ATOM     17  C   UNL     1       0.741   2.578  19.158  0.00  0.00    +0.000 C 
ATOM     18  C   UNL     1       1.751   3.123  18.126  0.00  0.00    +0.000 C 
ATOM     19  C   UNL     1       2.957   2.168  18.108  0.00  0.00    +0.000 C 
ATOM     20  C   UNL     1       3.580   2.112  19.527  0.00  0.00    +0.000 C 
ENDBRANCH  12  13
ENDBRANCH   1  12
TORSDOF 3
ENDMDL
MODEL 9
REMARK VINA RESULT:      -7.6      1.329      1.735
REMARK  Name = 
REMARK  3 active torsions:
REMARK  status: ('A' for Active; 'I' for Inactive)
REMARK    1  A    between atoms: C_5  and  C_6
REMARK    2  A    between atoms: C_6  and  O_8
REMARK    3  A    between atoms: O_8  and  C_9
REMARK                            x       y       z     vdW  Elec       q    Type
REMARK                         _______ _______ _______ _____ _____    ______ ____
ROOT
ATOM      1  C   UNL     1       4.036   4.663  17.343  0.00  0.00    +0.000 C 
ATOM      2  O   UNL     1       4.104   3.566  16.803  0.00  0.00    +0.000 OA
ENDROOT
BRANCH   1   7
ATOM      3  O   UNL     1       7.881   5.206  14.189  0.00  0.00    +0.000 OA
ATOM      4  C   UNL     1       7.050   5.221  15.084  0.00  0.00    +0.000 C 
ATOM      5  C   UNL     1       5.651   5.701  14.796  0.00  0.00    +0.000 C 
ATOM      6  C   UNL     1       5.170   6.499  15.998  0.00  0.00    +0.000 C 
ATOM      7  C   UNL     1       5.199   5.622  17.274  0.00  0.00    +0.000 C 
ATOM      8  C   UNL     1       6.530   4.879  17.386  0.00  0.00    +0.000 C 
ATOM      9  O   UNL     1       6.836   4.375  18.455  0.00  0.00    +0.000 OA
ATOM     10  N   UNL     1       7.383   4.778  16.327  0.00  0.00    +0.000 N 
ATOM     11  H   UNL     1       8.312   4.353  16.475  0.00  0.00    +0.000 HD
ENDBRANCH   1   7
BRANCH   1  12
ATOM     12  O   UNL     1       2.919   5.024  18.030  0.00  0.00    +0.000 OA
BRANCH  12  13
ATOM     13  C   UNL     1       2.669   4.653  19.344  0.00  0.00    +0.000 C 
ATOM     14  C   UNL     1       3.733   3.630  19.847  0.00  0.00    +0.000 C 
ATOM     15  N   UNL     1       3.092   2.390  20.340  0.00  0.00    +0.000 NA
ATOM     16  C   UNL     1       2.160   2.723  21.443  0.00  0.00    +0.000 C 
ATOM     17  C   UNL     1       1.035   3.672  20.956  0.00  0.00    +0.000 C 
ATOM     18  C   UNL     1       1.270   4.012  19.469  0.00  0.00    +0.000 C 
ATOM     19  C   UNL     1       1.242   2.692  18.681  0.00  0.00    +0.000 C 
ATOM     20  C   UNL     1       2.352   1.754  19.223  0.00  0.00    +0.000 C 
ENDBRANCH  12  13
ENDBRANCH   1  12
TORSDOF 3
ENDMDL
