MODEL 1
REMARK VINA RESULT:      -6.1      0.000      0.000
REMARK  Name = 
REMARK  11 active torsions:
REMARK  status: ('A' for Active; 'I' for Inactive)
REMARK    1  A    between atoms: C_1  and  O_2
REMARK    2  A    between atoms: O_2  and  C_3
REMARK    3  A    between atoms: C_5  and  C_6
REMARK    4  A    between atoms: C_16  and  O_17
REMARK    5  A    between atoms: O_17  and  C_18
REMARK    6  A    between atoms: C_19  and  O_20
REMARK    7  A    between atoms: O_20  and  C_21
REMARK    8  A    between atoms: C_23  and  O_24
REMARK    9  A    between atoms: O_24  and  C_25
REMARK   10  A    between atoms: C_26  and  O_27
REMARK   11  A    between atoms: O_27  and  C_28
REMARK                            x       y       z     vdW  Elec       q    Type
REMARK                         _______ _______ _______ _____ _____    ______ ____
ROOT
ATOM      1  C   UNL     1       0.281  10.874  18.652  0.00  0.00    +0.000 C 
ATOM      2  N   UNL     1       0.823   9.716  18.903  0.00  0.00    +0.000 NA
ATOM      3  C   UNL     1       0.656   9.271  20.323  0.00  0.00    +0.000 C 
ATOM      4  C   UNL     1       0.319  10.426  21.264  0.00  0.00    +0.000 C 
ATOM      5  O   UNL     1      -0.766  10.564  21.823  0.00  0.00    +0.000 OA
ATOM      6  N   UNL     1       1.299  11.396  21.317  0.00  0.00    +0.000 N 
ATOM      7  C   UNL     1       1.154  12.456  20.354  0.00  0.00    +0.000 A 
ATOM      8  C   UNL     1       1.123  12.086  19.009  0.00  0.00    +0.000 A 
ATOM      9  C   UNL     1       2.207  12.562  18.260  0.00  0.00    +0.000 A 
ATOM     10  C   UNL     1       2.947  13.684  18.713  0.00  0.00    +0.000 A 
ATOM     11  C   UNL     1       2.567  14.343  19.885  0.00  0.00    +0.000 A 
ATOM     12  C   UNL     1       1.703  13.687  20.752  0.00  0.00    +0.000 A 
ATOM     13  H   UNL     1       2.213  10.977  21.158  0.00  0.00    +0.000 HD
ENDROOT
BRANCH   1  16
ATOM     14  C   UNL     1      -3.226  10.544  16.822  0.00  0.00    +0.000 A 
ATOM     15  C   UNL     1      -1.827  10.368  17.113  0.00  0.00    +0.000 A 
ATOM     16  C   UNL     1      -1.226  10.926  18.271  0.00  0.00    +0.000 A 
ATOM     17  C   UNL     1      -2.098  11.663  19.098  0.00  0.00    +0.000 A 
ATOM     18  C   UNL     1      -3.477  11.852  18.828  0.00  0.00    +0.000 A 
ATOM     19  C   UNL     1      -4.066  11.285  17.680  0.00  0.00    +0.000 A 
BRANCH  14  21
ATOM     20  C   UNL     1      -3.188  10.129  14.452  0.00  0.00    +0.000 C 
ATOM     21  O   UNL     1      -3.851  10.031  15.703  0.00  0.00    +0.000 OA
ENDBRANCH  14  21
BRANCH  18  22
ATOM     22  O   UNL     1      -4.104  12.615  19.795  0.00  0.00    +0.000 OA
ATOM     23  C   UNL     1      -3.355  13.185  20.869  0.00  0.00    +0.000 C 
ENDBRANCH  18  22
BRANCH  19  24
ATOM     24  O   UNL     1      -5.402  11.517  17.579  0.00  0.00    +0.000 OA
ATOM     25  C   UNL     1      -6.488  10.926  18.257  0.00  0.00    +0.000 C 
ENDBRANCH  19  24
ENDBRANCH   1  16
BRANCH  11  26
ATOM     26  O   UNL     1       3.155  15.558  20.132  0.00  0.00    +0.000 OA
ATOM     27  C   UNL     1       2.626  16.622  19.327  0.00  0.00    +0.000 C 
ENDBRANCH  11  26
BRANCH  12  28
ATOM     28  O   UNL     1       1.524  14.181  22.019  0.00  0.00    +0.000 OA
ATOM     29  C   UNL     1       0.246  14.790  22.225  0.00  0.00    +0.000 C 
ENDBRANCH  12  28
TORSDOF 6
ENDMDL
MODEL 2
REMARK VINA RESULT:      -6.0      9.228     11.747
REMARK  Name = 
REMARK  11 active torsions:
REMARK  status: ('A' for Active; 'I' for Inactive)
REMARK    1  A    between atoms: C_1  and  O_2
REMARK    2  A    between atoms: O_2  and  C_3
REMARK    3  A    between atoms: C_5  and  C_6
REMARK    4  A    between atoms: C_16  and  O_17
REMARK    5  A    between atoms: O_17  and  C_18
REMARK    6  A    between atoms: C_19  and  O_20
REMARK    7  A    between atoms: O_20  and  C_21
REMARK    8  A    between atoms: C_23  and  O_24
REMARK    9  A    between atoms: O_24  and  C_25
REMARK   10  A    between atoms: C_26  and  O_27
REMARK   11  A    between atoms: O_27  and  C_28
REMARK                            x       y       z     vdW  Elec       q    Type
REMARK                         _______ _______ _______ _____ _____    ______ ____
ROOT
ATOM      1  C   UNL     1       5.165   5.717  16.541  0.00  0.00    +0.000 C 
ATOM      2  N   UNL     1       5.758   6.801  16.954  0.00  0.00    +0.000 NA
ATOM      3  C   UNL     1       7.028   6.541  17.704  0.00  0.00    +0.000 C 
ATOM      4  C   UNL     1       7.119   5.109  18.225  0.00  0.00    +0.000 C 
ATOM      5  O   UNL     1       7.914   4.272  17.806  0.00  0.00    +0.000 OA
ATOM      6  N   UNL     1       6.117   4.783  19.117  0.00  0.00    +0.000 N 
ATOM      7  C   UNL     1       4.928   4.234  18.518  0.00  0.00    +0.000 A 
ATOM      8  C   UNL     1       4.284   5.020  17.562  0.00  0.00    +0.000 A 
ATOM      9  C   UNL     1       3.000   5.439  17.937  0.00  0.00    +0.000 A 
ATOM     10  C   UNL     1       2.283   4.728  18.934  0.00  0.00    +0.000 A 
ATOM     11  C   UNL     1       2.838   3.582  19.509  0.00  0.00    +0.000 A 
ATOM     12  C   UNL     1       4.201   3.366  19.350  0.00  0.00    +0.000 A 
ATOM     13  H   UNL     1       5.829   5.612  19.635  0.00  0.00    +0.000 HD
ENDROOT
BRANCH   1  16
ATOM     14  C   UNL     1       5.360   3.663  13.150  0.00  0.00    +0.000 A 
ATOM     15  C   UNL     1       4.828   4.237  14.359  0.00  0.00    +0.000 A 
ATOM     16  C   UNL     1       5.597   5.102  15.180  0.00  0.00    +0.000 A 
ATOM     17  C   UNL     1       6.908   5.346  14.724  0.00  0.00    +0.000 A 
ATOM     18  C   UNL     1       7.452   4.789  13.538  0.00  0.00    +0.000 A 
ATOM     19  C   UNL     1       6.677   3.938  12.726  0.00  0.00    +0.000 A 
BRANCH  14  21
ATOM     20  C   UNL     1       3.925   3.362  11.242  0.00  0.00    +0.000 C 
ATOM     21  O   UNL     1       4.655   2.808  12.327  0.00  0.00    +0.000 OA
ENDBRANCH  14  21
BRANCH  18  22
ATOM     22  O   UNL     1       8.759   5.186  13.322  0.00  0.00    +0.000 OA
ATOM     23  C   UNL     1       9.045   6.353  12.550  0.00  0.00    +0.000 C 
ENDBRANCH  18  22
BRANCH  19  24
ATOM     24  O   UNL     1       7.320   3.517  11.605  0.00  0.00    +0.000 OA
ATOM     25  C   UNL     1       7.516   2.216  11.096  0.00  0.00    +0.000 C 
ENDBRANCH  19  24
ENDBRANCH   1  16
BRANCH  11  26
ATOM     26  O   UNL     1       2.003   2.803  20.269  0.00  0.00    +0.000 OA
ATOM     27  C   UNL     1       1.847   3.278  21.614  0.00  0.00    +0.000 C 
ENDBRANCH  11  26
BRANCH  12  28
ATOM     28  O   UNL     1       4.820   2.412  20.115  0.00  0.00    +0.000 OA
ATOM     29  C   UNL     1       4.708   1.087  19.587  0.00  0.00    +0.000 C 
ENDBRANCH  12  28
TORSDOF 6
ENDMDL
MODEL 3
REMARK VINA RESULT:      -6.0      0.738      2.567
REMARK  Name = 
REMARK  11 active torsions:
REMARK  status: ('A' for Active; 'I' for Inactive)
REMARK    1  A    between atoms: C_1  and  O_2
REMARK    2  A    between atoms: O_2  and  C_3
REMARK    3  A    between atoms: C_5  and  C_6
REMARK    4  A    between atoms: C_16  and  O_17
REMARK    5  A    between atoms: O_17  and  C_18
REMARK    6  A    between atoms: C_19  and  O_20
REMARK    7  A    between atoms: O_20  and  C_21
REMARK    8  A    between atoms: C_23  and  O_24
REMARK    9  A    between atoms: O_24  and  C_25
REMARK   10  A    between atoms: C_26  and  O_27
REMARK   11  A    between atoms: O_27  and  C_28
REMARK                            x       y       z     vdW  Elec       q    Type
REMARK                         _______ _______ _______ _____ _____    ______ ____
ROOT
ATOM      1  C   UNL     1      -0.204  11.286  18.703  0.00  0.00    +0.000 C 
ATOM      2  N   UNL     1       0.227  10.066  18.849  0.00  0.00    +0.000 NA
ATOM      3  C   UNL     1       0.167   9.574  20.263  0.00  0.00    +0.000 C 
ATOM      4  C   UNL     1       0.069  10.713  21.275  0.00  0.00    +0.000 C 
ATOM      5  O   UNL     1      -0.925  10.943  21.960  0.00  0.00    +0.000 OA
ATOM      6  N   UNL     1       1.153  11.567  21.250  0.00  0.00    +0.000 N 
ATOM      7  C   UNL     1       1.025  12.681  20.348  0.00  0.00    +0.000 A 
ATOM      8  C   UNL     1       0.805  12.380  19.003  0.00  0.00    +0.000 A 
ATOM      9  C   UNL     1       1.847  12.771  18.151  0.00  0.00    +0.000 A 
ATOM     10  C   UNL     1       2.755  13.782  18.556  0.00  0.00    +0.000 A 
ATOM     11  C   UNL     1       2.584  14.422  19.786  0.00  0.00    +0.000 A 
ATOM     12  C   UNL     1       1.751  13.824  20.723  0.00  0.00    +0.000 A 
ATOM     13  H   UNL     1       1.991  11.058  20.973  0.00  0.00    +0.000 HD
ENDROOT
BRANCH   1  16
ATOM     14  C   UNL     1      -4.043  12.183  19.167  0.00  0.00    +0.000 A 
ATOM     15  C   UNL     1      -2.632  12.084  19.436  0.00  0.00    +0.000 A 
ATOM     16  C   UNL     1      -1.728  11.521  18.498  0.00  0.00    +0.000 A 
ATOM     17  C   UNL     1      -2.317  11.068  17.301  0.00  0.00    +0.000 A 
ATOM     18  C   UNL     1      -3.704  11.154  17.017  0.00  0.00    +0.000 A 
ATOM     19  C   UNL     1      -4.592  11.722  17.952  0.00  0.00    +0.000 A 
BRANCH  14  21
ATOM     20  C   UNL     1      -4.517  13.676  20.993  0.00  0.00    +0.000 C 
ATOM     21  O   UNL     1      -4.961  12.710  20.052  0.00  0.00    +0.000 OA
ENDBRANCH  14  21
BRANCH  18  22
ATOM     22  O   UNL     1      -4.020  10.635  15.775  0.00  0.00    +0.000 OA
ATOM     23  C   UNL     1      -2.991  10.291  14.848  0.00  0.00    +0.000 C 
ENDBRANCH  18  22
BRANCH  19  24
ATOM     24  O   UNL     1      -5.881  11.771  17.522  0.00  0.00    +0.000 OA
ATOM     25  C   UNL     1      -6.647  12.857  17.048  0.00  0.00    +0.000 C 
ENDBRANCH  19  24
ENDBRANCH   1  16
BRANCH  11  26
ATOM     26  O   UNL     1       3.330  15.552  20.006  0.00  0.00    +0.000 OA
ATOM     27  C   UNL     1       3.255  16.503  18.934  0.00  0.00    +0.000 C 
ENDBRANCH  11  26
BRANCH  12  28
ATOM     28  O   UNL     1       1.770  14.274  22.018  0.00  0.00    +0.000 OA
ATOM     29  C   UNL     1       0.674  15.134  22.346  0.00  0.00    +0.000 C 
ENDBRANCH  12  28
TORSDOF 6
ENDMDL
MODEL 4
REMARK VINA RESULT:      -6.0      2.758      6.207
REMARK  Name = 
REMARK  11 active torsions:
REMARK  status: ('A' for Active; 'I' for Inactive)
REMARK    1  A    between atoms: C_1  and  O_2
REMARK    2  A    between atoms: O_2  and  C_3
REMARK    3  A    between atoms: C_5  and  C_6
REMARK    4  A    between atoms: C_16  and  O_17
REMARK    5  A    between atoms: O_17  and  C_18
REMARK    6  A    between atoms: C_19  and  O_20
REMARK    7  A    between atoms: O_20  and  C_21
REMARK    8  A    between atoms: C_23  and  O_24
REMARK    9  A    between atoms: O_24  and  C_25
REMARK   10  A    between atoms: C_26  and  O_27
REMARK   11  A    between atoms: O_27  and  C_28
REMARK                            x       y       z     vdW  Elec       q    Type
REMARK                         _______ _______ _______ _____ _____    ______ ____
ROOT
ATOM      1  C   UNL     1      -1.324  11.811  18.569  0.00  0.00    +0.000 C 
ATOM      2  N   UNL     1      -0.845  12.804  17.876  0.00  0.00    +0.000 NA
ATOM      3  C   UNL     1      -0.344  13.937  18.719  0.00  0.00    +0.000 C 
ATOM      4  C   UNL     1      -0.910  13.906  20.137  0.00  0.00    +0.000 C 
ATOM      5  O   UNL     1      -0.242  13.670  21.141  0.00  0.00    +0.000 OA
ATOM      6  N   UNL     1      -2.285  14.019  20.184  0.00  0.00    +0.000 N 
ATOM      7  C   UNL     1      -2.997  12.769  20.131  0.00  0.00    +0.000 A 
ATOM      8  C   UNL     1      -2.766  11.958  19.019  0.00  0.00    +0.000 A 
ATOM      9  C   UNL     1      -3.889  11.777  18.201  0.00  0.00    +0.000 A 
ATOM     10  C   UNL     1      -5.191  11.981  18.724  0.00  0.00    +0.000 A 
ATOM     11  C   UNL     1      -5.358  12.319  20.069  0.00  0.00    +0.000 A 
ATOM     12  C   UNL     1      -4.250  12.783  20.767  0.00  0.00    +0.000 A 
ATOM     13  H   UNL     1      -2.615  14.579  19.399  0.00  0.00    +0.000 HD
ENDROOT
BRANCH   1  16
ATOM     14  C   UNL     1       1.552   9.099  18.925  0.00  0.00    +0.000 A 
ATOM     15  C   UNL     1       0.756  10.166  18.378  0.00  0.00    +0.000 A 
ATOM     16  C   UNL     1      -0.345  10.718  19.083  0.00  0.00    +0.000 A 
ATOM     17  C   UNL     1      -0.595  10.139  20.344  0.00  0.00    +0.000 A 
ATOM     18  C   UNL     1       0.175   9.086  20.900  0.00  0.00    +0.000 A 
ATOM     19  C   UNL     1       1.271   8.551  20.195  0.00  0.00    +0.000 A 
BRANCH  14  21
ATOM     20  C   UNL     1       2.401   7.337  17.524  0.00  0.00    +0.000 C 
ATOM     21  O   UNL     1       2.623   8.523  18.272  0.00  0.00    +0.000 OA
ENDBRANCH  14  21
BRANCH  18  22
ATOM     22  O   UNL     1      -0.282   8.701  22.146  0.00  0.00    +0.000 OA
ATOM     23  C   UNL     1      -0.414   9.656  23.199  0.00  0.00    +0.000 C 
ENDBRANCH  18  22
BRANCH  19  24
ATOM     24  O   UNL     1       1.935   7.577  20.872  0.00  0.00    +0.000 OA
ATOM     25  C   UNL     1       1.826   6.173  20.798  0.00  0.00    +0.000 C 
ENDBRANCH  19  24
ENDBRANCH   1  16
BRANCH  11  26
ATOM     26  O   UNL     1      -6.633  12.253  20.572  0.00  0.00    +0.000 OA
ATOM     27  C   UNL     1      -7.260  10.979  20.370  0.00  0.00    +0.000 C 
ENDBRANCH  11  26
BRANCH  12  28
ATOM     28  O   UNL     1      -4.431  13.371  21.993  0.00  0.00    +0.000 OA
ATOM     29  C   UNL     1      -3.808  12.663  23.070  0.00  0.00    +0.000 C 
ENDBRANCH  12  28
TORSDOF 6
ENDMDL
MODEL 5
REMARK VINA RESULT:      -5.9      9.212     11.866
REMARK  Name = 
REMARK  11 active torsions:
REMARK  status: ('A' for Active; 'I' for Inactive)
REMARK    1  A    between atoms: C_1  and  O_2
REMARK    2  A    between atoms: O_2  and  C_3
REMARK    3  A    between atoms: C_5  and  C_6
REMARK    4  A    between atoms: C_16  and  O_17
REMARK    5  A    between atoms: O_17  and  C_18
REMARK    6  A    between atoms: C_19  and  O_20
REMARK    7  A    between atoms: O_20  and  C_21
REMARK    8  A    between atoms: C_23  and  O_24
REMARK    9  A    between atoms: O_24  and  C_25
REMARK   10  A    between atoms: C_26  and  O_27
REMARK   11  A    between atoms: O_27  and  C_28
REMARK                            x       y       z     vdW  Elec       q    Type
REMARK                         _______ _______ _______ _____ _____    ______ ____
ROOT
ATOM      1  C   UNL     1       5.056   5.583  16.646  0.00  0.00    +0.000 C 
ATOM      2  N   UNL     1       5.452   6.732  17.115  0.00  0.00    +0.000 NA
ATOM      3  C   UNL     1       6.651   6.634  18.008  0.00  0.00    +0.000 C 
ATOM      4  C   UNL     1       6.866   5.222  18.547  0.00  0.00    +0.000 C 
ATOM      5  O   UNL     1       7.806   4.498  18.229  0.00  0.00    +0.000 OA
ATOM      6  N   UNL     1       5.819   4.763  19.321  0.00  0.00    +0.000 N 
ATOM      7  C   UNL     1       4.788   4.068  18.593  0.00  0.00    +0.000 A 
ATOM      8  C   UNL     1       4.161   4.771  17.564  0.00  0.00    +0.000 A 
ATOM      9  C   UNL     1       2.800   5.017  17.787  0.00  0.00    +0.000 A 
ATOM     10  C   UNL     1       2.071   4.212  18.700  0.00  0.00    +0.000 A 
ATOM     11  C   UNL     1       2.700   3.144  19.344  0.00  0.00    +0.000 A 
ATOM     12  C   UNL     1       4.089   3.108  19.344  0.00  0.00    +0.000 A 
ATOM     13  H   UNL     1       5.368   5.543  19.796  0.00  0.00    +0.000 HD
ENDROOT
BRANCH   1  16
ATOM     14  C   UNL     1       7.513   4.815  13.625  0.00  0.00    +0.000 A 
ATOM     15  C   UNL     1       7.031   5.312  14.887  0.00  0.00    +0.000 A 
ATOM     16  C   UNL     1       5.717   5.040  15.347  0.00  0.00    +0.000 A 
ATOM     17  C   UNL     1       4.931   4.258  14.477  0.00  0.00    +0.000 A 
ATOM     18  C   UNL     1       5.386   3.760  13.229  0.00  0.00    +0.000 A 
ATOM     19  C   UNL     1       6.695   4.029  12.785  0.00  0.00    +0.000 A 
BRANCH  14  21
ATOM     20  C   UNL     1       9.012   6.291  12.457  0.00  0.00    +0.000 C 
ATOM     21  O   UNL     1       8.778   5.063  13.131  0.00  0.00    +0.000 OA
ENDBRANCH  14  21
BRANCH  18  22
ATOM     22  O   UNL     1       4.418   3.025  12.571  0.00  0.00    +0.000 OA
ATOM     23  C   UNL     1       3.929   3.442  11.296  0.00  0.00    +0.000 C 
ENDBRANCH  18  22
BRANCH  19  24
ATOM     24  O   UNL     1       6.999   3.453  11.592  0.00  0.00    +0.000 OA
ATOM     25  C   UNL     1       7.378   2.129  11.285  0.00  0.00    +0.000 C 
ENDBRANCH  19  24
ENDBRANCH   1  16
BRANCH  11  26
ATOM     26  O   UNL     1       1.891   2.258  20.009  0.00  0.00    +0.000 OA
ATOM     27  C   UNL     1       1.371   2.775  21.242  0.00  0.00    +0.000 C 
ENDBRANCH  11  26
BRANCH  12  28
ATOM     28  O   UNL     1       4.735   2.236  20.182  0.00  0.00    +0.000 OA
ATOM     29  C   UNL     1       4.839   0.907  19.663  0.00  0.00    +0.000 C 
ENDBRANCH  12  28
TORSDOF 6
ENDMDL
MODEL 6
REMARK VINA RESULT:      -5.8      2.757      6.679
REMARK  Name = 
REMARK  11 active torsions:
REMARK  status: ('A' for Active; 'I' for Inactive)
REMARK    1  A    between atoms: C_1  and  O_2
REMARK    2  A    between atoms: O_2  and  C_3
REMARK    3  A    between atoms: C_5  and  C_6
REMARK    4  A    between atoms: C_16  and  O_17
REMARK    5  A    between atoms: O_17  and  C_18
REMARK    6  A    between atoms: C_19  and  O_20
REMARK    7  A    between atoms: O_20  and  C_21
REMARK    8  A    between atoms: C_23  and  O_24
REMARK    9  A    between atoms: O_24  and  C_25
REMARK   10  A    between atoms: C_26  and  O_27
REMARK   11  A    between atoms: O_27  and  C_28
REMARK                            x       y       z     vdW  Elec       q    Type
REMARK                         _______ _______ _______ _____ _____    ______ ____
ROOT
ATOM      1  C   UNL     1      -1.417  11.660  18.590  0.00  0.00    +0.000 C 
ATOM      2  N   UNL     1      -0.853  12.612  17.903  0.00  0.00    +0.000 NA
ATOM      3  C   UNL     1      -0.354  13.745  18.747  0.00  0.00    +0.000 C 
ATOM      4  C   UNL     1      -1.004  13.777  20.129  0.00  0.00    +0.000 C 
ATOM      5  O   UNL     1      -0.408  13.540  21.176  0.00  0.00    +0.000 OA
ATOM      6  N   UNL     1      -2.373  13.951  20.089  0.00  0.00    +0.000 N 
ATOM      7  C   UNL     1      -3.136  12.732  20.023  0.00  0.00    +0.000 A 
ATOM      8  C   UNL     1      -2.875  11.881  18.948  0.00  0.00    +0.000 A 
ATOM      9  C   UNL     1      -3.954  11.726  18.067  0.00  0.00    +0.000 A 
ATOM     10  C   UNL     1      -5.275  12.000  18.505  0.00  0.00    +0.000 A 
ATOM     11  C   UNL     1      -5.506  12.382  19.829  0.00  0.00    +0.000 A 
ATOM     12  C   UNL     1      -4.423  12.817  20.582  0.00  0.00    +0.000 A 
ATOM     13  H   UNL     1      -2.630  14.503  19.272  0.00  0.00    +0.000 HD
ENDROOT
BRANCH   1  16
ATOM     14  C   UNL     1       0.577   9.229  21.013  0.00  0.00    +0.000 A 
ATOM     15  C   UNL     1      -0.343  10.242  20.566  0.00  0.00    +0.000 A 
ATOM     16  C   UNL     1      -0.520  10.540  19.190  0.00  0.00    +0.000 A 
ATOM     17  C   UNL     1       0.273   9.777  18.308  0.00  0.00    +0.000 A 
ATOM     18  C   UNL     1       1.186   8.776  18.728  0.00  0.00    +0.000 A 
ATOM     19  C   UNL     1       1.347   8.482  20.096  0.00  0.00    +0.000 A 
BRANCH  14  21
ATOM     20  C   UNL     1      -0.040   9.514  23.320  0.00  0.00    +0.000 C 
ATOM     21  O   UNL     1       0.791   8.912  22.339  0.00  0.00    +0.000 OA
ENDBRANCH  14  21
BRANCH  18  22
ATOM     22  O   UNL     1       1.838   8.180  17.665  0.00  0.00    +0.000 OA
ATOM     23  C   UNL     1       3.257   8.275  17.537  0.00  0.00    +0.000 C 
ENDBRANCH  18  22
BRANCH  19  24
ATOM     24  O   UNL     1       2.226   7.474  20.339  0.00  0.00    +0.000 OA
ATOM     25  C   UNL     1       2.029   6.077  20.382  0.00  0.00    +0.000 C 
ENDBRANCH  19  24
ENDBRANCH   1  16
BRANCH  11  26
ATOM     26  O   UNL     1      -6.810  12.384  20.255  0.00  0.00    +0.000 OA
ATOM     27  C   UNL     1      -7.316  11.075  20.553  0.00  0.00    +0.000 C 
ENDBRANCH  11  26
BRANCH  12  28
ATOM     28  O   UNL     1      -4.650  13.444  21.779  0.00  0.00    +0.000 OA
ATOM     29  C   UNL     1      -4.130  12.737  22.909  0.00  0.00    +0.000 C 
ENDBRANCH  12  28
TORSDOF 6
ENDMDL
MODEL 7
REMARK VINA RESULT:      -5.7      2.111      6.805
REMARK  Name = 
REMARK  11 active torsions:
REMARK  status: ('A' for Active; 'I' for Inactive)
REMARK    1  A    between atoms: C_1  and  O_2
REMARK    2  A    between atoms: O_2  and  C_3
REMARK    3  A    between atoms: C_5  and  C_6
REMARK    4  A    between atoms: C_16  and  O_17
REMARK    5  A    between atoms: O_17  and  C_18
REMARK    6  A    between atoms: C_19  and  O_20
REMARK    7  A    between atoms: O_20  and  C_21
REMARK    8  A    between atoms: C_23  and  O_24
REMARK    9  A    between atoms: O_24  and  C_25
REMARK   10  A    between atoms: C_26  and  O_27
REMARK   11  A    between atoms: O_27  and  C_28
REMARK                            x       y       z     vdW  Elec       q    Type
REMARK                         _______ _______ _______ _____ _____    ______ ____
ROOT
ATOM      1  C   UNL     1      -0.894  12.918  20.264  0.00  0.00    +0.000 C 
ATOM      2  N   UNL     1      -0.470  12.188  21.256  0.00  0.00    +0.000 NA
ATOM      3  C   UNL     1       0.294  10.975  20.824  0.00  0.00    +0.000 C 
ATOM      4  C   UNL     1       0.023  10.599  19.369  0.00  0.00    +0.000 C 
ATOM      5  O   UNL     1       0.853  10.690  18.467  0.00  0.00    +0.000 OA
ATOM      6  N   UNL     1      -1.297  10.285  19.118  0.00  0.00    +0.000 N 
ATOM      7  C   UNL     1      -2.122  11.400  18.732  0.00  0.00    +0.000 A 
ATOM      8  C   UNL     1      -2.196  12.469  19.626  0.00  0.00    +0.000 A 
ATOM      9  C   UNL     1      -3.472  12.673  20.168  0.00  0.00    +0.000 A 
ATOM     10  C   UNL     1      -4.618  12.172  19.500  0.00  0.00    +0.000 A 
ATOM     11  C   UNL     1      -4.479  11.514  18.275  0.00  0.00    +0.000 A 
ATOM     12  C   UNL     1      -3.215  11.063  17.916  0.00  0.00    +0.000 A 
ATOM     13  H   UNL     1      -1.723   9.879  19.951  0.00  0.00    +0.000 HD
ENDROOT
BRANCH   1  16
ATOM     14  C   UNL     1       2.254  15.106  19.237  0.00  0.00    +0.000 A 
ATOM     15  C   UNL     1       1.475  14.018  19.767  0.00  0.00    +0.000 A 
ATOM     16  C   UNL     1       0.059  13.991  19.665  0.00  0.00    +0.000 A 
ATOM     17  C   UNL     1      -0.513  15.104  19.018  0.00  0.00    +0.000 A 
ATOM     18  C   UNL     1       0.236  16.187  18.491  0.00  0.00    +0.000 A 
ATOM     19  C   UNL     1       1.642  16.200  18.590  0.00  0.00    +0.000 A 
BRANCH  14  21
ATOM     20  C   UNL     1       4.405  14.594  18.289  0.00  0.00    +0.000 C 
ATOM     21  O   UNL     1       3.630  15.182  19.322  0.00  0.00    +0.000 OA
ENDBRANCH  14  21
BRANCH  18  22
ATOM     22  O   UNL     1      -0.567  17.150  17.910  0.00  0.00    +0.000 OA
ATOM     23  C   UNL     1      -1.503  17.887  18.697  0.00  0.00    +0.000 C 
ENDBRANCH  18  22
BRANCH  19  24
ATOM     24  O   UNL     1       2.222  17.282  18.004  0.00  0.00    +0.000 OA
ATOM     25  C   UNL     1       2.625  17.494  16.669  0.00  0.00    +0.000 C 
ENDBRANCH  19  24
ENDBRANCH   1  16
BRANCH  11  26
ATOM     26  O   UNL     1      -5.628  11.282  17.561  0.00  0.00    +0.000 OA
ATOM     27  C   UNL     1      -6.543  12.387  17.579  0.00  0.00    +0.000 C 
ENDBRANCH  11  26
BRANCH  12  28
ATOM     28  O   UNL     1      -3.090  10.191  16.865  0.00  0.00    +0.000 OA
ATOM     29  C   UNL     1      -2.795  10.827  15.618  0.00  0.00    +0.000 C 
ENDBRANCH  12  28
TORSDOF 6
ENDMDL
MODEL 8
REMARK VINA RESULT:      -5.7      2.906      6.109
REMARK  Name = 
REMARK  11 active torsions:
REMARK  status: ('A' for Active; 'I' for Inactive)
REMARK    1  A    between atoms: C_1  and  O_2
REMARK    2  A    between atoms: O_2  and  C_3
REMARK    3  A    between atoms: C_5  and  C_6
REMARK    4  A    between atoms: C_16  and  O_17
REMARK    5  A    between atoms: O_17  and  C_18
REMARK    6  A    between atoms: C_19  and  O_20
REMARK    7  A    between atoms: O_20  and  C_21
REMARK    8  A    between atoms: C_23  and  O_24
REMARK    9  A    between atoms: O_24  and  C_25
REMARK   10  A    between atoms: C_26  and  O_27
REMARK   11  A    between atoms: O_27  and  C_28
REMARK                            x       y       z     vdW  Elec       q    Type
REMARK                         _______ _______ _______ _____ _____    ______ ____
ROOT
ATOM      1  C   UNL     1      -1.643  12.875  23.112  0.00  0.00    +0.000 C 
ATOM      2  N   UNL     1      -0.752  13.726  23.535  0.00  0.00    +0.000 NA
ATOM      3  C   UNL     1      -0.160  14.566  22.445  0.00  0.00    +0.000 C 
ATOM      4  C   UNL     1      -0.360  13.954  21.060  0.00  0.00    +0.000 C 
ATOM      5  O   UNL     1      -1.089  14.432  20.194  0.00  0.00    +0.000 OA
ATOM      6  N   UNL     1       0.240  12.720  20.911  0.00  0.00    +0.000 N 
ATOM      7  C   UNL     1      -0.591  11.597  21.262  0.00  0.00    +0.000 A 
ATOM      8  C   UNL     1      -1.097  11.570  22.562  0.00  0.00    +0.000 A 
ATOM      9  C   UNL     1      -0.619  10.505  23.339  0.00  0.00    +0.000 A 
ATOM     10  C   UNL     1      -0.094   9.347  22.712  0.00  0.00    +0.000 A 
ATOM     11  C   UNL     1      -0.095   9.246  21.319  0.00  0.00    +0.000 A 
ATOM     12  C   UNL     1      -0.284  10.408  20.580  0.00  0.00    +0.000 A 
ATOM     13  H   UNL     1       1.072  12.665  21.497  0.00  0.00    +0.000 HD
ENDROOT
BRANCH   1  16
ATOM     14  C   UNL     1      -5.122  14.751  23.468  0.00  0.00    +0.000 A 
ATOM     15  C   UNL     1      -3.722  14.450  23.621  0.00  0.00    +0.000 A 
ATOM     16  C   UNL     1      -3.116  13.348  22.964  0.00  0.00    +0.000 A 
ATOM     17  C   UNL     1      -3.987  12.579  22.165  0.00  0.00    +0.000 A 
ATOM     18  C   UNL     1      -5.368  12.856  22.003  0.00  0.00    +0.000 A 
ATOM     19  C   UNL     1      -5.958  13.959  22.653  0.00  0.00    +0.000 A 
BRANCH  14  21
ATOM     20  C   UNL     1      -5.458  17.125  23.670  0.00  0.00    +0.000 C 
ATOM     21  O   UNL     1      -5.758  15.804  24.095  0.00  0.00    +0.000 OA
ENDBRANCH  14  21
BRANCH  18  22
ATOM     22  O   UNL     1      -5.993  11.948  21.169  0.00  0.00    +0.000 OA
ATOM     23  C   UNL     1      -5.914  12.090  19.751  0.00  0.00    +0.000 C 
ENDBRANCH  18  22
BRANCH  19  24
ATOM     24  O   UNL     1      -7.278  14.119  22.369  0.00  0.00    +0.000 OA
ATOM     25  C   UNL     1      -7.916  14.941  21.417  0.00  0.00    +0.000 C 
ENDBRANCH  19  24
ENDBRANCH   1  16
BRANCH  11  26
ATOM     26  O   UNL     1       0.185   8.013  20.785  0.00  0.00    +0.000 OA
ATOM     27  C   UNL     1       1.581   7.685  20.808  0.00  0.00    +0.000 C 
ENDBRANCH  11  26
BRANCH  12  28
ATOM     28  O   UNL     1      -0.026  10.393  19.234  0.00  0.00    +0.000 OA
ATOM     29  C   UNL     1      -1.203  10.360  18.421  0.00  0.00    +0.000 C 
ENDBRANCH  12  28
TORSDOF 6
ENDMDL
MODEL 9
REMARK VINA RESULT:      -5.6      6.206      8.437
REMARK  Name = 
REMARK  11 active torsions:
REMARK  status: ('A' for Active; 'I' for Inactive)
REMARK    1  A    between atoms: C_1  and  O_2
REMARK    2  A    between atoms: O_2  and  C_3
REMARK    3  A    between atoms: C_5  and  C_6
REMARK    4  A    between atoms: C_16  and  O_17
REMARK    5  A    between atoms: O_17  and  C_18
REMARK    6  A    between atoms: C_19  and  O_20
REMARK    7  A    between atoms: O_20  and  C_21
REMARK    8  A    between atoms: C_23  and  O_24
REMARK    9  A    between atoms: O_24  and  C_25
REMARK   10  A    between atoms: C_26  and  O_27
REMARK   11  A    between atoms: O_27  and  C_28
REMARK                            x       y       z     vdW  Elec       q    Type
REMARK                         _______ _______ _______ _____ _____    ______ ____
ROOT
ATOM      1  C   UNL     1       2.614   5.473  17.990  0.00  0.00    +0.000 C 
ATOM      2  N   UNL     1       1.857   4.424  18.148  0.00  0.00    +0.000 NA
ATOM      3  C   UNL     1       2.188   3.627  19.373  0.00  0.00    +0.000 C 
ATOM      4  C   UNL     1       3.589   3.921  19.903  0.00  0.00    +0.000 C 
ATOM      5  O   UNL     1       3.817   4.497  20.964  0.00  0.00    +0.000 OA
ATOM      6  N   UNL     1       4.592   3.613  19.007  0.00  0.00    +0.000 N 
ATOM      7  C   UNL     1       4.964   4.686  18.123  0.00  0.00    +0.000 A 
ATOM      8  C   UNL     1       3.954   5.222  17.323  0.00  0.00    +0.000 A 
ATOM      9  C   UNL     1       4.145   5.021  15.949  0.00  0.00    +0.000 A 
ATOM     10  C   UNL     1       5.443   4.755  15.443  0.00  0.00    +0.000 A 
ATOM     11  C   UNL     1       6.540   4.739  16.308  0.00  0.00    +0.000 A 
ATOM     12  C   UNL     1       6.294   4.638  17.672  0.00  0.00    +0.000 A 
ATOM     13  H   UNL     1       4.306   2.832  18.418  0.00  0.00    +0.000 HD
ENDROOT
BRANCH   1  16
ATOM     14  C   UNL     1       1.378   8.208  20.588  0.00  0.00    +0.000 A 
ATOM     15  C   UNL     1       1.799   6.939  20.052  0.00  0.00    +0.000 A 
ATOM     16  C   UNL     1       2.216   6.796  18.703  0.00  0.00    +0.000 A 
ATOM     17  C   UNL     1       2.178   7.980  17.939  0.00  0.00    +0.000 A 
ATOM     18  C   UNL     1       1.764   9.238  18.446  0.00  0.00    +0.000 A 
ATOM     19  C   UNL     1       1.361   9.371  19.790  0.00  0.00    +0.000 A 
BRANCH  14  21
ATOM     20  C   UNL     1      -0.442   8.442  22.144  0.00  0.00    +0.000 C 
ATOM     21  O   UNL     1       0.954   8.393  21.888  0.00  0.00    +0.000 OA
ENDBRANCH  14  21
BRANCH  18  22
ATOM     22  O   UNL     1       1.819  10.235  17.490  0.00  0.00    +0.000 OA
ATOM     23  C   UNL     1       2.609  11.405  17.704  0.00  0.00    +0.000 C 
ENDBRANCH  18  22
BRANCH  19  24
ATOM     24  O   UNL     1       1.032  10.643  20.139  0.00  0.00    +0.000 OA
ATOM     25  C   UNL     1      -0.196  11.331  20.042  0.00  0.00    +0.000 C 
ENDBRANCH  19  24
ENDBRANCH   1  16
BRANCH  11  26
ATOM     26  O   UNL     1       7.785   4.732  15.732  0.00  0.00    +0.000 OA
ATOM     27  C   UNL     1       7.761   4.974  14.318  0.00  0.00    +0.000 C 
ENDBRANCH  11  26
BRANCH  12  28
ATOM     28  O   UNL     1       7.334   4.352  18.519  0.00  0.00    +0.000 OA
ATOM     29  C   UNL     1       7.827   5.491  19.232  0.00  0.00    +0.000 C 
ENDBRANCH  12  28
TORSDOF 6
ENDMDL
