MODEL 1
REMARK VINA RESULT:      -8.4      0.000      0.000
REMARK  Name = 
REMARK  4 active torsions:
REMARK  status: ('A' for Active; 'I' for Inactive)
REMARK    1  A    between atoms: C_1  and  N_2
REMARK    2  A    between atoms: C_4  and  N_5
REMARK    3  A    between atoms: C_11  and  C_12
REMARK    4  A    between atoms: C_12  and  C_13
REMARK                            x       y       z     vdW  Elec       q    Type
REMARK                         _______ _______ _______ _____ _____    ______ ____
ROOT
ATOM      1  N   UNL     1       1.258   8.228  21.300  0.00  0.00    +0.000 N 
ATOM      2  C   UNL     1       1.754   7.972  20.038  0.00  0.00    +0.000 C 
ATOM      3  O   UNL     1       1.688   8.762  19.098  0.00  0.00    +0.000 OA
ATOM      4  N   UNL     1       2.380   6.741  19.873  0.00  0.00    +0.000 N 
ATOM      5  C   UNL     1       3.076   6.513  18.601  0.00  0.00    +0.000 C 
ATOM      6  C   UNL     1       2.390   5.401  17.815  0.00  0.00    +0.000 C 
ATOM      7  C   UNL     1       2.368   4.094  18.623  0.00  0.00    +0.000 C 
ATOM      8  C   UNL     1       1.637   4.380  19.950  0.00  0.00    +0.000 C 
ATOM      9  C   UNL     1       2.237   5.559  20.728  0.00  0.00    +0.000 C 
ATOM     10  H   UNL     1       1.508   7.566  22.014  0.00  0.00    +0.000 HD
ENDROOT
BRANCH   1  14
ATOM     11  C   UNL     1       0.490  12.995  20.968  0.00  0.00    +0.000 C 
ATOM     12  N   UNL     1       0.192  11.716  21.579  0.00  0.00    +0.000 N 
ATOM     13  C   UNL     1       0.851  10.564  21.174  0.00  0.00    +0.000 A 
ATOM     14  C   UNL     1       0.603   9.364  21.749  0.00  0.00    +0.000 A 
ATOM     15  C   UNL     1      -0.366   9.317  22.824  0.00  0.00    +0.000 A 
ATOM     16  C   UNL     1      -1.034  10.405  23.221  0.00  0.00    +0.000 A 
ATOM     17  C   UNL     1      -0.770  11.714  22.588  0.00  0.00    +0.000 A 
ATOM     18  O   UNL     1      -1.384  12.704  22.967  0.00  0.00    +0.000 OA
ENDBRANCH   1  14
BRANCH   7  19
ATOM     19  C   UNL     1       3.769   3.487  18.884  0.00  0.00    +0.000 C 
BRANCH  19  20
ATOM     20  C   UNL     1       4.862   3.895  17.923  0.00  0.00    +0.000 A 
ATOM     21  C   UNL     1       6.019   4.534  18.395  0.00  0.00    +0.000 A 
ATOM     22  C   UNL     1       7.052   4.884  17.521  0.00  0.00    +0.000 A 
ATOM     23  C   UNL     1       6.951   4.580  16.167  0.00  0.00    +0.000 A 
ATOM     24  C   UNL     1       5.814   3.938  15.684  0.00  0.00    +0.000 A 
ATOM     25  C   UNL     1       4.772   3.605  16.556  0.00  0.00    +0.000 A 
ENDBRANCH  19  20
ENDBRANCH   7  19
TORSDOF 3
ENDMDL
MODEL 2
REMARK VINA RESULT:      -7.8      1.735      2.782
REMARK  Name = 
REMARK  4 active torsions:
REMARK  status: ('A' for Active; 'I' for Inactive)
REMARK    1  A    between atoms: C_1  and  N_2
REMARK    2  A    between atoms: C_4  and  N_5
REMARK    3  A    between atoms: C_11  and  C_12
REMARK    4  A    between atoms: C_12  and  C_13
REMARK                            x       y       z     vdW  Elec       q    Type
REMARK                         _______ _______ _______ _____ _____    ______ ____
ROOT
ATOM      1  N   UNL     1       1.786   7.971  19.642  0.00  0.00    +0.000 N 
ATOM      2  C   UNL     1       2.158   6.654  19.816  0.00  0.00    +0.000 C 
ATOM      3  O   UNL     1       1.962   6.012  20.846  0.00  0.00    +0.000 OA
ATOM      4  N   UNL     1       2.767   6.048  18.721  0.00  0.00    +0.000 N 
ATOM      5  C   UNL     1       3.009   4.603  18.808  0.00  0.00    +0.000 C 
ATOM      6  C   UNL     1       4.506   4.318  18.823  0.00  0.00    +0.000 C 
ATOM      7  C   UNL     1       5.180   4.869  17.558  0.00  0.00    +0.000 C 
ATOM      8  C   UNL     1       4.896   6.384  17.502  0.00  0.00    +0.000 C 
ATOM      9  C   UNL     1       3.401   6.721  17.583  0.00  0.00    +0.000 C 
ATOM     10  H   UNL     1       1.866   8.331  18.707  0.00  0.00    +0.000 HD
ENDROOT
BRANCH   1  14
ATOM     11  C   UNL     1      -1.241  11.648  20.505  0.00  0.00    +0.000 C 
ATOM     12  N   UNL     1      -0.359  10.608  20.994  0.00  0.00    +0.000 N 
ATOM     13  C   UNL     1       0.310   9.771  20.112  0.00  0.00    +0.000 A 
ATOM     14  C   UNL     1       1.157   8.810  20.548  0.00  0.00    +0.000 A 
ATOM     15  C   UNL     1       1.363   8.688  21.977  0.00  0.00    +0.000 A 
ATOM     16  C   UNL     1       0.715   9.464  22.853  0.00  0.00    +0.000 A 
ATOM     17  C   UNL     1      -0.215  10.508  22.376  0.00  0.00    +0.000 A 
ATOM     18  O   UNL     1      -0.796  11.217  23.190  0.00  0.00    +0.000 OA
ENDBRANCH   1  14
BRANCH   7  19
ATOM     19  C   UNL     1       4.734   4.175  16.247  0.00  0.00    +0.000 C 
BRANCH  19  20
ATOM     20  C   UNL     1       5.677   4.300  15.072  0.00  0.00    +0.000 A 
ATOM     21  C   UNL     1       5.344   3.733  13.832  0.00  0.00    +0.000 A 
ATOM     22  C   UNL     1       6.192   3.872  12.730  0.00  0.00    +0.000 A 
ATOM     23  C   UNL     1       7.372   4.600  12.847  0.00  0.00    +0.000 A 
ATOM     24  C   UNL     1       7.713   5.175  14.068  0.00  0.00    +0.000 A 
ATOM     25  C   UNL     1       6.874   5.020  15.176  0.00  0.00    +0.000 A 
ENDBRANCH  19  20
ENDBRANCH   7  19
TORSDOF 3
ENDMDL
MODEL 3
REMARK VINA RESULT:      -7.7      2.924      4.558
REMARK  Name = 
REMARK  4 active torsions:
REMARK  status: ('A' for Active; 'I' for Inactive)
REMARK    1  A    between atoms: C_1  and  N_2
REMARK    2  A    between atoms: C_4  and  N_5
REMARK    3  A    between atoms: C_11  and  C_12
REMARK    4  A    between atoms: C_12  and  C_13
REMARK                            x       y       z     vdW  Elec       q    Type
REMARK                         _______ _______ _______ _____ _____    ______ ____
ROOT
ATOM      1  N   UNL     1       1.315  11.807  18.321  0.00  0.00    +0.000 N 
ATOM      2  C   UNL     1       1.176  10.842  19.298  0.00  0.00    +0.000 C 
ATOM      3  O   UNL     1       0.996  11.087  20.489  0.00  0.00    +0.000 OA
ATOM      4  N   UNL     1       1.226   9.524  18.856  0.00  0.00    +0.000 N 
ATOM      5  C   UNL     1       0.901   8.480  19.836  0.00  0.00    +0.000 C 
ATOM      6  C   UNL     1       2.127   7.621  20.120  0.00  0.00    +0.000 C 
ATOM      7  C   UNL     1       2.644   6.963  18.831  0.00  0.00    +0.000 C 
ATOM      8  C   UNL     1       2.965   8.091  17.829  0.00  0.00    +0.000 C 
ATOM      9  C   UNL     1       1.783   9.040  17.590  0.00  0.00    +0.000 C 
ATOM     10  H   UNL     1       1.305  11.477  17.372  0.00  0.00    +0.000 HD
ENDROOT
BRANCH   1  14
ATOM     11  C   UNL     1       3.697  16.018  18.448  0.00  0.00    +0.000 C 
ATOM     12  N   UNL     1       2.453  15.279  18.507  0.00  0.00    +0.000 N 
ATOM     13  C   UNL     1       2.443  13.895  18.393  0.00  0.00    +0.000 A 
ATOM     14  C   UNL     1       1.294  13.185  18.469  0.00  0.00    +0.000 A 
ATOM     15  C   UNL     1       0.062  13.913  18.694  0.00  0.00    +0.000 A 
ATOM     16  C   UNL     1       0.036  15.247  18.785  0.00  0.00    +0.000 A 
ATOM     17  C   UNL     1       1.290  16.023  18.694  0.00  0.00    +0.000 A 
ATOM     18  O   UNL     1       1.253  17.245  18.787  0.00  0.00    +0.000 OA
ENDBRANCH   1  14
BRANCH   7  19
ATOM     19  C   UNL     1       1.667   5.934  18.209  0.00  0.00    +0.000 C 
BRANCH  19  20
ATOM     20  C   UNL     1       2.140   4.499  18.182  0.00  0.00    +0.000 A 
ATOM     21  C   UNL     1       3.328   4.155  17.517  0.00  0.00    +0.000 A 
ATOM     22  C   UNL     1       3.793   2.838  17.517  0.00  0.00    +0.000 A 
ATOM     23  C   UNL     1       3.090   1.850  18.200  0.00  0.00    +0.000 A 
ATOM     24  C   UNL     1       1.915   2.176  18.871  0.00  0.00    +0.000 A 
ATOM     25  C   UNL     1       1.438   3.491  18.857  0.00  0.00    +0.000 A 
ENDBRANCH  19  20
ENDBRANCH   7  19
TORSDOF 3
ENDMDL
MODEL 4
REMARK VINA RESULT:      -7.7      1.981      3.108
REMARK  Name = 
REMARK  4 active torsions:
REMARK  status: ('A' for Active; 'I' for Inactive)
REMARK    1  A    between atoms: C_1  and  N_2
REMARK    2  A    between atoms: C_4  and  N_5
REMARK    3  A    between atoms: C_11  and  C_12
REMARK    4  A    between atoms: C_12  and  C_13
REMARK                            x       y       z     vdW  Elec       q    Type
REMARK                         _______ _______ _______ _____ _____    ______ ____
ROOT
ATOM      1  N   UNL     1       2.181   7.734  19.010  0.00  0.00    +0.000 N 
ATOM      2  C   UNL     1       2.691   6.483  19.289  0.00  0.00    +0.000 C 
ATOM      3  O   UNL     1       2.617   5.936  20.387  0.00  0.00    +0.000 OA
ATOM      4  N   UNL     1       3.298   5.827  18.222  0.00  0.00    +0.000 N 
ATOM      5  C   UNL     1       3.687   4.428  18.435  0.00  0.00    +0.000 C 
ATOM      6  C   UNL     1       5.203   4.287  18.381  0.00  0.00    +0.000 C 
ATOM      7  C   UNL     1       5.750   4.765  17.027  0.00  0.00    +0.000 C 
ATOM      8  C   UNL     1       5.313   6.233  16.841  0.00  0.00    +0.000 C 
ATOM      9  C   UNL     1       3.798   6.434  16.985  0.00  0.00    +0.000 C 
ATOM     10  H   UNL     1       2.173   8.001  18.041  0.00  0.00    +0.000 HD
ENDROOT
BRANCH   1  14
ATOM     11  C   UNL     1      -0.033  11.973  19.758  0.00  0.00    +0.000 C 
ATOM     12  N   UNL     1       0.399  10.680  20.248  0.00  0.00    +0.000 N 
ATOM     13  C   UNL     1       1.088   9.802  19.423  0.00  0.00    +0.000 A 
ATOM     14  C   UNL     1       1.521   8.600  19.869  0.00  0.00    +0.000 A 
ATOM     15  C   UNL     1       1.258   8.257  21.251  0.00  0.00    +0.000 A 
ATOM     16  C   UNL     1       0.576   9.071  22.064  0.00  0.00    +0.000 A 
ATOM     17  C   UNL     1       0.097  10.380  21.575  0.00  0.00    +0.000 A 
ATOM     18  O   UNL     1      -0.521  11.120  22.333  0.00  0.00    +0.000 OA
ENDBRANCH   1  14
BRANCH   7  19
ATOM     19  C   UNL     1       5.304   3.900  15.822  0.00  0.00    +0.000 C 
BRANCH  19  20
ATOM     20  C   UNL     1       6.026   4.151  14.518  0.00  0.00    +0.000 A 
ATOM     21  C   UNL     1       7.125   5.023  14.473  0.00  0.00    +0.000 A 
ATOM     22  C   UNL     1       7.823   5.235  13.281  0.00  0.00    +0.000 A 
ATOM     23  C   UNL     1       7.446   4.560  12.124  0.00  0.00    +0.000 A 
ATOM     24  C   UNL     1       6.364   3.685  12.154  0.00  0.00    +0.000 A 
ATOM     25  C   UNL     1       5.654   3.486  13.342  0.00  0.00    +0.000 A 
ENDBRANCH  19  20
ENDBRANCH   7  19
TORSDOF 3
ENDMDL
MODEL 5
REMARK VINA RESULT:      -7.7      2.366      9.443
REMARK  Name = 
REMARK  4 active torsions:
REMARK  status: ('A' for Active; 'I' for Inactive)
REMARK    1  A    between atoms: C_1  and  N_2
REMARK    2  A    between atoms: C_4  and  N_5
REMARK    3  A    between atoms: C_11  and  C_12
REMARK    4  A    between atoms: C_12  and  C_13
REMARK                            x       y       z     vdW  Elec       q    Type
REMARK                         _______ _______ _______ _____ _____    ______ ____
ROOT
ATOM      1  N   UNL     1       2.393   7.231  18.993  0.00  0.00    +0.000 N 
ATOM      2  C   UNL     1       1.884   7.333  20.272  0.00  0.00    +0.000 C 
ATOM      3  O   UNL     1       1.854   6.406  21.079  0.00  0.00    +0.000 OA
ATOM      4  N   UNL     1       1.406   8.589  20.633  0.00  0.00    +0.000 N 
ATOM      5  C   UNL     1       1.028   8.779  22.039  0.00  0.00    +0.000 C 
ATOM      6  C   UNL     1      -0.472   9.027  22.153  0.00  0.00    +0.000 C 
ATOM      7  C   UNL     1      -0.884  10.267  21.344  0.00  0.00    +0.000 C 
ATOM      8  C   UNL     1      -0.462  10.029  19.880  0.00  0.00    +0.000 C 
ATOM      9  C   UNL     1       1.024   9.679  19.730  0.00  0.00    +0.000 C 
ATOM     10  H   UNL     1       2.496   8.095  18.490  0.00  0.00    +0.000 HD
ENDROOT
BRANCH   1  14
ATOM     11  C   UNL     1       6.296   4.839  17.420  0.00  0.00    +0.000 C 
ATOM     12  N   UNL     1       4.863   4.908  17.618  0.00  0.00    +0.000 N 
ATOM     13  C   UNL     1       4.280   6.023  18.205  0.00  0.00    +0.000 A 
ATOM     14  C   UNL     1       2.941   6.117  18.377  0.00  0.00    +0.000 A 
ATOM     15  C   UNL     1       2.120   5.018  17.910  0.00  0.00    +0.000 A 
ATOM     16  C   UNL     1       2.654   3.921  17.362  0.00  0.00    +0.000 A 
ATOM     17  C   UNL     1       4.117   3.815  17.182  0.00  0.00    +0.000 A 
ATOM     18  O   UNL     1       4.592   2.807  16.671  0.00  0.00    +0.000 OA
ENDBRANCH   1  14
BRANCH   7  19
ATOM     19  C   UNL     1      -0.296  11.597  21.880  0.00  0.00    +0.000 C 
BRANCH  19  20
ATOM     20  C   UNL     1      -1.239  12.468  22.678  0.00  0.00    +0.000 A 
ATOM     21  C   UNL     1      -2.497  11.981  23.067  0.00  0.00    +0.000 A 
ATOM     22  C   UNL     1      -3.362  12.764  23.835  0.00  0.00    +0.000 A 
ATOM     23  C   UNL     1      -2.972  14.035  24.246  0.00  0.00    +0.000 A 
ATOM     24  C   UNL     1      -1.724  14.529  23.876  0.00  0.00    +0.000 A 
ATOM     25  C   UNL     1      -0.865  13.753  23.091  0.00  0.00    +0.000 A 
ENDBRANCH  19  20
ENDBRANCH   7  19
TORSDOF 3
ENDMDL
MODEL 6
REMARK VINA RESULT:      -7.7      2.449      9.509
REMARK  Name = 
REMARK  4 active torsions:
REMARK  status: ('A' for Active; 'I' for Inactive)
REMARK    1  A    between atoms: C_1  and  N_2
REMARK    2  A    between atoms: C_4  and  N_5
REMARK    3  A    between atoms: C_11  and  C_12
REMARK    4  A    between atoms: C_12  and  C_13
REMARK                            x       y       z     vdW  Elec       q    Type
REMARK                         _______ _______ _______ _____ _____    ______ ____
ROOT
ATOM      1  N   UNL     1       2.198   7.437  18.787  0.00  0.00    +0.000 N 
ATOM      2  C   UNL     1       1.791   8.701  18.411  0.00  0.00    +0.000 C 
ATOM      3  O   UNL     1       2.155   9.265  17.381  0.00  0.00    +0.000 OA
ATOM      4  N   UNL     1       0.894   9.327  19.271  0.00  0.00    +0.000 N 
ATOM      5  C   UNL     1       0.302  10.590  18.812  0.00  0.00    +0.000 C 
ATOM      6  C   UNL     1       0.763  11.741  19.697  0.00  0.00    +0.000 C 
ATOM      7  C   UNL     1       0.366  11.498  21.162  0.00  0.00    +0.000 C 
ATOM      8  C   UNL     1       1.000  10.162  21.600  0.00  0.00    +0.000 C 
ATOM      9  C   UNL     1       0.640   8.991  20.675  0.00  0.00    +0.000 C 
ATOM     10  H   UNL     1       1.713   7.032  19.569  0.00  0.00    +0.000 HD
ENDROOT
BRANCH   1  14
ATOM     11  C   UNL     1       3.468   2.940  17.525  0.00  0.00    +0.000 C 
ATOM     12  N   UNL     1       3.694   4.370  17.468  0.00  0.00    +0.000 N 
ATOM     13  C   UNL     1       2.860   5.248  18.146  0.00  0.00    +0.000 A 
ATOM     14  C   UNL     1       3.068   6.585  18.124  0.00  0.00    +0.000 A 
ATOM     15  C   UNL     1       4.208   7.080  17.380  0.00  0.00    +0.000 A 
ATOM     16  C   UNL     1       5.016   6.261  16.698  0.00  0.00    +0.000 A 
ATOM     17  C   UNL     1       4.784   4.802  16.716  0.00  0.00    +0.000 A 
ATOM     18  O   UNL     1       5.537   4.063  16.092  0.00  0.00    +0.000 OA
ENDBRANCH   1  14
BRANCH   7  19
ATOM     19  C   UNL     1      -1.163  11.491  21.412  0.00  0.00    +0.000 C 
BRANCH  19  20
ATOM     20  C   UNL     1      -1.667  12.435  22.479  0.00  0.00    +0.000 A 
ATOM     21  C   UNL     1      -0.903  13.550  22.859  0.00  0.00    +0.000 A 
ATOM     22  C   UNL     1      -1.375  14.449  23.819  0.00  0.00    +0.000 A 
ATOM     23  C   UNL     1      -2.627  14.258  24.396  0.00  0.00    +0.000 A 
ATOM     24  C   UNL     1      -3.400  13.162  24.024  0.00  0.00    +0.000 A 
ATOM     25  C   UNL     1      -2.921  12.251  23.077  0.00  0.00    +0.000 A 
ENDBRANCH  19  20
ENDBRANCH   7  19
TORSDOF 3
ENDMDL
MODEL 7
REMARK VINA RESULT:      -7.7      2.390      9.494
REMARK  Name = 
REMARK  4 active torsions:
REMARK  status: ('A' for Active; 'I' for Inactive)
REMARK    1  A    between atoms: C_1  and  N_2
REMARK    2  A    between atoms: C_4  and  N_5
REMARK    3  A    between atoms: C_11  and  C_12
REMARK    4  A    between atoms: C_12  and  C_13
REMARK                            x       y       z     vdW  Elec       q    Type
REMARK                         _______ _______ _______ _____ _____    ______ ____
ROOT
ATOM      1  N   UNL     1       2.519   7.619  18.836  0.00  0.00    +0.000 N 
ATOM      2  C   UNL     1       2.004   7.610  20.116  0.00  0.00    +0.000 C 
ATOM      3  O   UNL     1       2.023   6.632  20.860  0.00  0.00    +0.000 OA
ATOM      4  N   UNL     1       1.460   8.812  20.557  0.00  0.00    +0.000 N 
ATOM      5  C   UNL     1       1.071   8.888  21.971  0.00  0.00    +0.000 C 
ATOM      6  C   UNL     1      -0.439   9.049  22.094  0.00  0.00    +0.000 C 
ATOM      7  C   UNL     1      -0.916  10.317  21.368  0.00  0.00    +0.000 C 
ATOM      8  C   UNL     1      -0.481  10.199  19.893  0.00  0.00    +0.000 C 
ATOM      9  C   UNL     1       1.022   9.938  19.726  0.00  0.00    +0.000 C 
ATOM     10  H   UNL     1       2.576   8.519  18.391  0.00  0.00    +0.000 HD
ENDROOT
BRANCH   1  14
ATOM     11  C   UNL     1       2.534   2.971  17.487  0.00  0.00    +0.000 C 
ATOM     12  N   UNL     1       3.132   4.289  17.450  0.00  0.00    +0.000 N 
ATOM     13  C   UNL     1       2.568   5.346  18.152  0.00  0.00    +0.000 A 
ATOM     14  C   UNL     1       3.125   6.579  18.149  0.00  0.00    +0.000 A 
ATOM     15  C   UNL     1       4.351   6.765  17.400  0.00  0.00    +0.000 A 
ATOM     16  C   UNL     1       4.906   5.774  16.696  0.00  0.00    +0.000 A 
ATOM     17  C   UNL     1       4.293   4.429  16.692  0.00  0.00    +0.000 A 
ATOM     18  O   UNL     1       4.817   3.527  16.048  0.00  0.00    +0.000 OA
ENDBRANCH   1  14
BRANCH   7  19
ATOM     19  C   UNL     1      -0.399  11.637  21.992  0.00  0.00    +0.000 C 
BRANCH  19  20
ATOM     20  C   UNL     1      -1.391  12.410  22.831  0.00  0.00    +0.000 A 
ATOM     21  C   UNL     1      -1.090  13.710  23.268  0.00  0.00    +0.000 A 
ATOM     22  C   UNL     1      -2.014  14.447  24.013  0.00  0.00    +0.000 A 
ATOM     23  C   UNL     1      -3.260  13.904  24.312  0.00  0.00    +0.000 A 
ATOM     24  C   UNL     1      -3.577  12.619  23.879  0.00  0.00    +0.000 A 
ATOM     25  C   UNL     1      -2.646  11.873  23.149  0.00  0.00    +0.000 A 
ENDBRANCH  19  20
ENDBRANCH   7  19
TORSDOF 3
ENDMDL
MODEL 8
REMARK VINA RESULT:      -7.6      2.427      9.426
REMARK  Name = 
REMARK  4 active torsions:
REMARK  status: ('A' for Active; 'I' for Inactive)
REMARK    1  A    between atoms: C_1  and  N_2
REMARK    2  A    between atoms: C_4  and  N_5
REMARK    3  A    between atoms: C_11  and  C_12
REMARK    4  A    between atoms: C_12  and  C_13
REMARK                            x       y       z     vdW  Elec       q    Type
REMARK                         _______ _______ _______ _____ _____    ______ ____
ROOT
ATOM      1  N   UNL     1       1.407   6.343  20.896  0.00  0.00    +0.000 N 
ATOM      2  C   UNL     1       1.484   7.592  20.316  0.00  0.00    +0.000 C 
ATOM      3  O   UNL     1       2.275   7.891  19.424  0.00  0.00    +0.000 OA
ATOM      4  N   UNL     1       0.574   8.534  20.787  0.00  0.00    +0.000 N 
ATOM      5  C   UNL     1       0.507   9.812  20.068  0.00  0.00    +0.000 C 
ATOM      6  C   UNL     1       0.974  10.949  20.969  0.00  0.00    +0.000 C 
ATOM      7  C   UNL     1       0.110  11.034  22.237  0.00  0.00    +0.000 C 
ATOM      8  C   UNL     1       0.203   9.672  22.955  0.00  0.00    +0.000 C 
ATOM      9  C   UNL     1      -0.166   8.487  22.051  0.00  0.00    +0.000 C 
ATOM     10  H   UNL     1       0.622   6.187  21.503  0.00  0.00    +0.000 HD
ENDROOT
BRANCH   1  14
ATOM     11  C   UNL     1       5.209   4.345  18.664  0.00  0.00    +0.000 C 
ATOM     12  N   UNL     1       4.065   4.223  19.544  0.00  0.00    +0.000 N 
ATOM     13  C   UNL     1       3.260   5.320  19.818  0.00  0.00    +0.000 A 
ATOM     14  C   UNL     1       2.173   5.221  20.618  0.00  0.00    +0.000 A 
ATOM     15  C   UNL     1       1.857   3.920  21.172  0.00  0.00    +0.000 A 
ATOM     16  C   UNL     1       2.626   2.850  20.945  0.00  0.00    +0.000 A 
ATOM     17  C   UNL     1       3.818   2.960  20.078  0.00  0.00    +0.000 A 
ATOM     18  O   UNL     1       4.510   1.969  19.873  0.00  0.00    +0.000 OA
ENDBRANCH   1  14
BRANCH   7  19
ATOM     19  C   UNL     1      -1.367  11.419  21.972  0.00  0.00    +0.000 C 
BRANCH  19  20
ATOM     20  C   UNL     1      -1.979  12.410  22.936  0.00  0.00    +0.000 A 
ATOM     21  C   UNL     1      -1.294  13.588  23.273  0.00  0.00    +0.000 A 
ATOM     22  C   UNL     1      -1.866  14.527  24.134  0.00  0.00    +0.000 A 
ATOM     23  C   UNL     1      -3.140  14.314  24.652  0.00  0.00    +0.000 A 
ATOM     24  C   UNL     1      -3.836  13.154  24.321  0.00  0.00    +0.000 A 
ATOM     25  C   UNL     1      -3.257  12.204  23.474  0.00  0.00    +0.000 A 
ENDBRANCH  19  20
ENDBRANCH   7  19
TORSDOF 3
ENDMDL
MODEL 9
REMARK VINA RESULT:      -7.6      2.877      4.608
REMARK  Name = 
REMARK  4 active torsions:
REMARK  status: ('A' for Active; 'I' for Inactive)
REMARK    1  A    between atoms: C_1  and  N_2
REMARK    2  A    between atoms: C_4  and  N_5
REMARK    3  A    between atoms: C_11  and  C_12
REMARK    4  A    between atoms: C_12  and  C_13
REMARK                            x       y       z     vdW  Elec       q    Type
REMARK                         _______ _______ _______ _____ _____    ______ ____
ROOT
ATOM      1  N   UNL     1       1.212  11.834  18.522  0.00  0.00    +0.000 N 
ATOM      2  C   UNL     1       1.100  10.823  19.454  0.00  0.00    +0.000 C 
ATOM      3  O   UNL     1       0.935  11.009  20.658  0.00  0.00    +0.000 OA
ATOM      4  N   UNL     1       1.161   9.528  18.950  0.00  0.00    +0.000 N 
ATOM      5  C   UNL     1       0.864   8.434  19.883  0.00  0.00    +0.000 C 
ATOM      6  C   UNL     1       2.105   7.580  20.108  0.00  0.00    +0.000 C 
ATOM      7  C   UNL     1       2.611   6.991  18.782  0.00  0.00    +0.000 C 
ATOM      8  C   UNL     1       2.903   8.169  17.830  0.00  0.00    +0.000 C 
ATOM      9  C   UNL     1       1.705   9.112  17.653  0.00  0.00    +0.000 C 
ATOM     10  H   UNL     1       1.192  11.549  17.559  0.00  0.00    +0.000 HD
ENDROOT
BRANCH   1  14
ATOM     11  C   UNL     1       3.537  15.951  19.558  0.00  0.00    +0.000 C 
ATOM     12  N   UNL     1       2.315  15.252  19.220  0.00  0.00    +0.000 N 
ATOM     13  C   UNL     1       2.312  13.878  19.029  0.00  0.00    +0.000 A 
ATOM     14  C   UNL     1       1.175  13.203  18.736  0.00  0.00    +0.000 A 
ATOM     15  C   UNL     1      -0.056  13.961  18.644  0.00  0.00    +0.000 A 
ATOM     16  C   UNL     1      -0.081  15.289  18.800  0.00  0.00    +0.000 A 
ATOM     17  C   UNL     1       1.161  16.026  19.111  0.00  0.00    +0.000 A 
ATOM     18  O   UNL     1       1.122  17.243  19.259  0.00  0.00    +0.000 OA
ENDBRANCH   1  14
BRANCH   7  19
ATOM     19  C   UNL     1       1.638   5.979  18.125  0.00  0.00    +0.000 C 
BRANCH  19  20
ATOM     20  C   UNL     1       1.873   4.522  18.452  0.00  0.00    +0.000 A 
ATOM     21  C   UNL     1       1.351   3.967  19.632  0.00  0.00    +0.000 A 
ATOM     22  C   UNL     1       1.531   2.613  19.927  0.00  0.00    +0.000 A 
ATOM     23  C   UNL     1       2.214   1.791  19.036  0.00  0.00    +0.000 A 
ATOM     24  C   UNL     1       2.730   2.324  17.858  0.00  0.00    +0.000 A 
ATOM     25  C   UNL     1       2.567   3.683  17.571  0.00  0.00    +0.000 A 
ENDBRANCH  19  20
ENDBRANCH   7  19
TORSDOF 3
ENDMDL
