MODEL 1
REMARK VINA RESULT:      -8.7      0.000      0.000
REMARK  Name = 
REMARK  6 active torsions:
REMARK  status: ('A' for Active; 'I' for Inactive)
REMARK    1  A    between atoms: C_2  and  C_3
REMARK    2  A    between atoms: C_3  and  C_4
REMARK    3  A    between atoms: C_4  and  C_5
REMARK    4  A    between atoms: C_4  and  C_11
REMARK    5  A    between atoms: N_20  and  C_21
REMARK    6  A    between atoms: C_21  and  C_22
REMARK                            x       y       z     vdW  Elec       q    Type
REMARK                         _______ _______ _______ _____ _____    ______ ____
ROOT
ATOM      1  O   UNL     1       2.140   8.514  17.662  0.00  0.00    +0.000 OA
ATOM      2  C   UNL     1       2.027   8.210  18.852  0.00  0.00    +0.000 C 
ATOM      3  N   UNL     1       1.352   9.019  19.753  0.00  0.00    +0.000 N 
ATOM      4  C   UNL     1       0.887   8.631  21.094  0.00  0.00    +0.000 C 
ATOM      5  C   UNL     1       1.033   9.783  22.107  0.00  0.00    +0.000 C 
ATOM      6  N   UNL     1       0.437  11.060  21.669  0.00  0.00    +0.000 NA
ATOM      7  C   UNL     1       1.014  11.406  20.344  0.00  0.00    +0.000 C 
ATOM      8  C   UNL     1       0.846  10.310  19.274  0.00  0.00    +0.000 C 
ENDROOT
BRANCH   2   9
ATOM      9  C   UNL     1       2.593   6.908  19.377  0.00  0.00    +0.000 C 
BRANCH   9  10
ATOM     10  C   UNL     1       3.087   5.982  18.249  0.00  0.00    +0.000 C 
BRANCH  10  11
ATOM     11  C   UNL     1       4.616   5.979  18.185  0.00  0.00    +0.000 A 
ATOM     12  C   UNL     1       5.404   5.341  19.156  0.00  0.00    +0.000 A 
ATOM     13  C   UNL     1       6.798   5.457  19.134  0.00  0.00    +0.000 A 
ATOM     14  C   UNL     1       7.424   6.201  18.137  0.00  0.00    +0.000 A 
ATOM     15  C   UNL     1       6.659   6.829  17.159  0.00  0.00    +0.000 A 
ATOM     16  C   UNL     1       5.267   6.719  17.183  0.00  0.00    +0.000 A 
ENDBRANCH  10  11
BRANCH  10  17
ATOM     17  C   UNL     1       2.468   4.583  18.346  0.00  0.00    +0.000 A 
ATOM     18  C   UNL     1       1.527   4.325  19.355  0.00  0.00    +0.000 A 
ATOM     19  C   UNL     1       1.022   3.037  19.551  0.00  0.00    +0.000 A 
ATOM     20  C   UNL     1       1.439   1.987  18.730  0.00  0.00    +0.000 A 
ATOM     21  C   UNL     1       2.339   2.235  17.699  0.00  0.00    +0.000 A 
ATOM     22  C   UNL     1       2.840   3.526  17.500  0.00  0.00    +0.000 A 
ENDBRANCH  10  17
ENDBRANCH   9  10
ENDBRANCH   2   9
BRANCH   6  23
ATOM     23  C   UNL     1      -1.042  11.015  21.577  0.00  0.00    +0.000 C 
BRANCH  23  24
ATOM     24  C   UNL     1      -1.787  12.306  22.010  0.00  0.00    +0.000 C 
ATOM     25  C   UNL     1      -2.612  12.019  23.276  0.00  0.00    +0.000 C 
ATOM     26  C   UNL     1      -3.497  13.198  23.667  0.00  0.00    +0.000 C 
ATOM     27  C   UNL     1      -4.294  13.700  22.468  0.00  0.00    +0.000 C 
ATOM     28  C   UNL     1      -3.371  13.996  21.288  0.00  0.00    +0.000 C 
ATOM     29  N   UNL     1      -2.644  12.789  20.918  0.00  0.00    +0.000 NA
ATOM     30  H   UNL     1      -2.061  12.940  20.092  0.00  0.00    +0.000 HD
ENDBRANCH  23  24
ENDBRANCH   6  23
TORSDOF 6
ENDMDL
MODEL 2
REMARK VINA RESULT:      -8.6      0.833      1.008
REMARK  Name = 
REMARK  6 active torsions:
REMARK  status: ('A' for Active; 'I' for Inactive)
REMARK    1  A    between atoms: C_2  and  C_3
REMARK    2  A    between atoms: C_3  and  C_4
REMARK    3  A    between atoms: C_4  and  C_5
REMARK    4  A    between atoms: C_4  and  C_11
REMARK    5  A    between atoms: N_20  and  C_21
REMARK    6  A    between atoms: C_21  and  C_22
REMARK                            x       y       z     vdW  Elec       q    Type
REMARK                         _______ _______ _______ _____ _____    ______ ____
ROOT
ATOM      1  O   UNL     1       1.984   8.722  17.599  0.00  0.00    +0.000 OA
ATOM      2  C   UNL     1       1.832   8.526  18.807  0.00  0.00    +0.000 C 
ATOM      3  N   UNL     1       1.132   9.414  19.610  0.00  0.00    +0.000 N 
ATOM      4  C   UNL     1       0.622   9.147  20.964  0.00  0.00    +0.000 C 
ATOM      5  C   UNL     1       0.742  10.384  21.875  0.00  0.00    +0.000 C 
ATOM      6  N   UNL     1       0.166  11.619  21.306  0.00  0.00    +0.000 NA
ATOM      7  C   UNL     1       0.787  11.844  19.975  0.00  0.00    +0.000 C 
ATOM      8  C   UNL     1       0.648  10.658  19.002  0.00  0.00    +0.000 C 
ENDROOT
BRANCH   2   9
ATOM      9  C   UNL     1       2.375   7.275  19.464  0.00  0.00    +0.000 C 
BRANCH   9  10
ATOM     10  C   UNL     1       2.700   6.167  18.443  0.00  0.00    +0.000 C 
BRANCH  10  11
ATOM     11  C   UNL     1       4.212   6.059  18.231  0.00  0.00    +0.000 A 
ATOM     12  C   UNL     1       5.047   5.378  19.131  0.00  0.00    +0.000 A 
ATOM     13  C   UNL     1       6.437   5.398  18.972  0.00  0.00    +0.000 A 
ATOM     14  C   UNL     1       7.011   6.087  17.907  0.00  0.00    +0.000 A 
ATOM     15  C   UNL     1       6.197   6.756  16.996  0.00  0.00    +0.000 A 
ATOM     16  C   UNL     1       4.810   6.742  17.158  0.00  0.00    +0.000 A 
ENDBRANCH  10  11
BRANCH  10  17
ATOM     17  C   UNL     1       2.029   4.838  18.808  0.00  0.00    +0.000 A 
ATOM     18  C   UNL     1       1.560   4.651  20.118  0.00  0.00    +0.000 A 
ATOM     19  C   UNL     1       1.044   3.418  20.525  0.00  0.00    +0.000 A 
ATOM     20  C   UNL     1       0.975   2.355  19.623  0.00  0.00    +0.000 A 
ATOM     21  C   UNL     1       1.396   2.536  18.310  0.00  0.00    +0.000 A 
ATOM     22  C   UNL     1       1.908   3.773  17.902  0.00  0.00    +0.000 A 
ENDBRANCH  10  17
ENDBRANCH   9  10
ENDBRANCH   2   9
BRANCH   6  23
ATOM     23  C   UNL     1      -1.309  11.569  21.170  0.00  0.00    +0.000 C 
BRANCH  23  24
ATOM     24  C   UNL     1      -2.094  12.702  21.885  0.00  0.00    +0.000 C 
ATOM     25  C   UNL     1      -1.232  13.283  23.018  0.00  0.00    +0.000 C 
ATOM     26  C   UNL     1      -2.001  14.291  23.867  0.00  0.00    +0.000 C 
ATOM     27  C   UNL     1      -3.349  13.723  24.297  0.00  0.00    +0.000 C 
ATOM     28  C   UNL     1      -4.136  13.218  23.089  0.00  0.00    +0.000 C 
ATOM     29  N   UNL     1      -3.371  12.187  22.400  0.00  0.00    +0.000 NA
ATOM     30  H   UNL     1      -3.897  11.787  21.620  0.00  0.00    +0.000 HD
ENDBRANCH  23  24
ENDBRANCH   6  23
TORSDOF 6
ENDMDL
MODEL 3
REMARK VINA RESULT:      -8.6      0.816      1.060
REMARK  Name = 
REMARK  6 active torsions:
REMARK  status: ('A' for Active; 'I' for Inactive)
REMARK    1  A    between atoms: C_2  and  C_3
REMARK    2  A    between atoms: C_3  and  C_4
REMARK    3  A    between atoms: C_4  and  C_5
REMARK    4  A    between atoms: C_4  and  C_11
REMARK    5  A    between atoms: N_20  and  C_21
REMARK    6  A    between atoms: C_21  and  C_22
REMARK                            x       y       z     vdW  Elec       q    Type
REMARK                         _______ _______ _______ _____ _____    ______ ____
ROOT
ATOM      1  O   UNL     1       2.337   8.570  17.287  0.00  0.00    +0.000 OA
ATOM      2  C   UNL     1       2.119   8.351  18.482  0.00  0.00    +0.000 C 
ATOM      3  N   UNL     1       1.413   9.244  19.273  0.00  0.00    +0.000 N 
ATOM      4  C   UNL     1       0.829   8.964  20.594  0.00  0.00    +0.000 C 
ATOM      5  C   UNL     1       0.948  10.174  21.541  0.00  0.00    +0.000 C 
ATOM      6  N   UNL     1       0.445  11.441  20.977  0.00  0.00    +0.000 NA
ATOM      7  C   UNL     1       1.137  11.676  19.683  0.00  0.00    +0.000 C 
ATOM      8  C   UNL     1       1.003  10.519  18.674  0.00  0.00    +0.000 C 
ENDROOT
BRANCH   2   9
ATOM      9  C   UNL     1       2.585   7.065  19.131  0.00  0.00    +0.000 C 
BRANCH   9  10
ATOM     10  C   UNL     1       3.127   6.049  18.107  0.00  0.00    +0.000 C 
BRANCH  10  11
ATOM     11  C   UNL     1       4.656   6.025  18.131  0.00  0.00    +0.000 A 
ATOM     12  C   UNL     1       5.379   5.384  19.151  0.00  0.00    +0.000 A 
ATOM     13  C   UNL     1       6.773   5.480  19.208  0.00  0.00    +0.000 A 
ATOM     14  C   UNL     1       7.466   6.208  18.243  0.00  0.00    +0.000 A 
ATOM     15  C   UNL     1       6.767   6.838  17.218  0.00  0.00    +0.000 A 
ATOM     16  C   UNL     1       5.374   6.747  17.163  0.00  0.00    +0.000 A 
ENDBRANCH  10  11
BRANCH  10  17
ATOM     17  C   UNL     1       2.482   4.668  18.275  0.00  0.00    +0.000 A 
ATOM     18  C   UNL     1       1.576   4.466  19.328  0.00  0.00    +0.000 A 
ATOM     19  C   UNL     1       1.051   3.197  19.586  0.00  0.00    +0.000 A 
ATOM     20  C   UNL     1       1.413   2.111  18.787  0.00  0.00    +0.000 A 
ATOM     21  C   UNL     1       2.277   2.304  17.713  0.00  0.00    +0.000 A 
ATOM     22  C   UNL     1       2.798   3.576  17.452  0.00  0.00    +0.000 A 
ENDBRANCH  10  17
ENDBRANCH   9  10
ENDBRANCH   2   9
BRANCH   6  23
ATOM     23  C   UNL     1      -1.023  11.449  20.770  0.00  0.00    +0.000 C 
BRANCH  23  24
ATOM     24  C   UNL     1      -1.849  12.266  21.799  0.00  0.00    +0.000 C 
ATOM     25  C   UNL     1      -2.860  13.153  21.055  0.00  0.00    +0.000 C 
ATOM     26  C   UNL     1      -3.595  14.104  21.995  0.00  0.00    +0.000 C 
ATOM     27  C   UNL     1      -2.613  14.846  22.894  0.00  0.00    +0.000 C 
ATOM     28  C   UNL     1      -1.690  13.866  23.617  0.00  0.00    +0.000 C 
ATOM     29  N   UNL     1      -0.954  13.073  22.641  0.00  0.00    +0.000 NA
ATOM     30  H   UNL     1      -0.283  12.449  23.093  0.00  0.00    +0.000 HD
ENDBRANCH  23  24
ENDBRANCH   6  23
TORSDOF 6
ENDMDL
MODEL 4
REMARK VINA RESULT:      -8.6      0.788      1.277
REMARK  Name = 
REMARK  6 active torsions:
REMARK  status: ('A' for Active; 'I' for Inactive)
REMARK    1  A    between atoms: C_2  and  C_3
REMARK    2  A    between atoms: C_3  and  C_4
REMARK    3  A    between atoms: C_4  and  C_5
REMARK    4  A    between atoms: C_4  and  C_11
REMARK    5  A    between atoms: N_20  and  C_21
REMARK    6  A    between atoms: C_21  and  C_22
REMARK                            x       y       z     vdW  Elec       q    Type
REMARK                         _______ _______ _______ _____ _____    ______ ____
ROOT
ATOM      1  O   UNL     1       2.011   8.465  17.717  0.00  0.00    +0.000 OA
ATOM      2  C   UNL     1       1.948   8.219  18.924  0.00  0.00    +0.000 C 
ATOM      3  N   UNL     1       1.331   9.083  19.816  0.00  0.00    +0.000 N 
ATOM      4  C   UNL     1       0.922   8.766  21.194  0.00  0.00    +0.000 C 
ATOM      5  C   UNL     1       1.138   9.959  22.144  0.00  0.00    +0.000 C 
ATOM      6  N   UNL     1       0.547  11.228  21.674  0.00  0.00    +0.000 NA
ATOM      7  C   UNL     1       1.069  11.501  20.310  0.00  0.00    +0.000 C 
ATOM      8  C   UNL     1       0.829  10.361  19.301  0.00  0.00    +0.000 C 
ENDROOT
BRANCH   2   9
ATOM      9  C   UNL     1       2.512   6.930  19.483  0.00  0.00    +0.000 C 
BRANCH   9  10
ATOM     10  C   UNL     1       2.969   5.958  18.378  0.00  0.00    +0.000 C 
BRANCH  10  11
ATOM     11  C   UNL     1       4.492   5.992  18.228  0.00  0.00    +0.000 A 
ATOM     12  C   UNL     1       5.349   5.390  19.164  0.00  0.00    +0.000 A 
ATOM     13  C   UNL     1       6.736   5.540  19.061  0.00  0.00    +0.000 A 
ATOM     14  C   UNL     1       7.287   6.282  18.019  0.00  0.00    +0.000 A 
ATOM     15  C   UNL     1       6.453   6.873  17.074  0.00  0.00    +0.000 A 
ATOM     16  C   UNL     1       5.067   6.729  17.179  0.00  0.00    +0.000 A 
ENDBRANCH  10  11
BRANCH  10  17
ATOM     17  C   UNL     1       2.397   4.550  18.582  0.00  0.00    +0.000 A 
ATOM     18  C   UNL     1       2.756   3.534  17.683  0.00  0.00    +0.000 A 
ATOM     19  C   UNL     1       2.172   2.267  17.764  0.00  0.00    +0.000 A 
ATOM     20  C   UNL     1       1.230   1.991  18.756  0.00  0.00    +0.000 A 
ATOM     21  C   UNL     1       0.894   2.975  19.681  0.00  0.00    +0.000 A 
ATOM     22  C   UNL     1       1.483   4.242  19.602  0.00  0.00    +0.000 A 
ENDBRANCH  10  17
ENDBRANCH   9  10
ENDBRANCH   2   9
BRANCH   6  23
ATOM     23  C   UNL     1      -0.935  11.212  21.652  0.00  0.00    +0.000 C 
BRANCH  23  24
ATOM     24  C   UNL     1      -1.638  12.115  22.700  0.00  0.00    +0.000 C 
ATOM     25  C   UNL     1      -3.078  12.402  22.243  0.00  0.00    +0.000 C 
ATOM     26  C   UNL     1      -3.778  13.415  23.143  0.00  0.00    +0.000 C 
ATOM     27  C   UNL     1      -2.903  14.646  23.358  0.00  0.00    +0.000 C 
ATOM     28  C   UNL     1      -1.515  14.246  23.854  0.00  0.00    +0.000 C 
ATOM     29  N   UNL     1      -0.882  13.362  22.884  0.00  0.00    +0.000 NA
ATOM     30  H   UNL     1       0.073  13.125  23.160  0.00  0.00    +0.000 HD
ENDBRANCH  23  24
ENDBRANCH   6  23
TORSDOF 6
ENDMDL
MODEL 5
REMARK VINA RESULT:      -8.5      1.093      1.321
REMARK  Name = 
REMARK  6 active torsions:
REMARK  status: ('A' for Active; 'I' for Inactive)
REMARK    1  A    between atoms: C_2  and  C_3
REMARK    2  A    between atoms: C_3  and  C_4
REMARK    3  A    between atoms: C_4  and  C_5
REMARK    4  A    between atoms: C_4  and  C_11
REMARK    5  A    between atoms: N_20  and  C_21
REMARK    6  A    between atoms: C_21  and  C_22
REMARK                            x       y       z     vdW  Elec       q    Type
REMARK                         _______ _______ _______ _____ _____    ______ ____
ROOT
ATOM      1  O   UNL     1       2.369   8.619  17.121  0.00  0.00    +0.000 OA
ATOM      2  C   UNL     1       2.217   8.416  18.329  0.00  0.00    +0.000 C 
ATOM      3  N   UNL     1       1.471   9.270  19.127  0.00  0.00    +0.000 N 
ATOM      4  C   UNL     1       0.965   8.979  20.477  0.00  0.00    +0.000 C 
ATOM      5  C   UNL     1       1.020  10.220  21.388  0.00  0.00    +0.000 C 
ATOM      6  N   UNL     1       0.391  11.426  20.815  0.00  0.00    +0.000 NA
ATOM      7  C   UNL     1       1.009  11.681  19.489  0.00  0.00    +0.000 C 
ATOM      8  C   UNL     1       0.933  10.490  18.515  0.00  0.00    +0.000 C 
ENDROOT
BRANCH   2   9
ATOM      9  C   UNL     1       2.814   7.192  18.989  0.00  0.00    +0.000 C 
BRANCH   9  10
ATOM     10  C   UNL     1       2.678   5.926  18.120  0.00  0.00    +0.000 C 
BRANCH  10  11
ATOM     11  C   UNL     1       4.023   5.559  17.492  0.00  0.00    +0.000 A 
ATOM     12  C   UNL     1       4.213   4.369  16.770  0.00  0.00    +0.000 A 
ATOM     13  C   UNL     1       5.483   4.007  16.309  0.00  0.00    +0.000 A 
ATOM     14  C   UNL     1       6.579   4.831  16.553  0.00  0.00    +0.000 A 
ATOM     15  C   UNL     1       6.407   6.021  17.254  0.00  0.00    +0.000 A 
ATOM     16  C   UNL     1       5.140   6.381  17.720  0.00  0.00    +0.000 A 
ENDBRANCH  10  11
BRANCH  10  17
ATOM     17  C   UNL     1       2.015   4.775  18.886  0.00  0.00    +0.000 A 
ATOM     18  C   UNL     1       2.078   4.768  20.288  0.00  0.00    +0.000 A 
ATOM     19  C   UNL     1       1.587   3.684  21.020  0.00  0.00    +0.000 A 
ATOM     20  C   UNL     1       1.012   2.595  20.363  0.00  0.00    +0.000 A 
ATOM     21  C   UNL     1       0.905   2.606  18.976  0.00  0.00    +0.000 A 
ATOM     22  C   UNL     1       1.392   3.694  18.243  0.00  0.00    +0.000 A 
ENDBRANCH  10  17
ENDBRANCH   9  10
ENDBRANCH   2   9
BRANCH   6  23
ATOM     23  C   UNL     1      -1.080  11.307  20.670  0.00  0.00    +0.000 C 
BRANCH  23  24
ATOM     24  C   UNL     1      -1.926  12.334  21.469  0.00  0.00    +0.000 C 
ATOM     25  C   UNL     1      -2.150  11.809  22.897  0.00  0.00    +0.000 C 
ATOM     26  C   UNL     1      -3.108  12.691  23.691  0.00  0.00    +0.000 C 
ATOM     27  C   UNL     1      -4.376  12.973  22.892  0.00  0.00    +0.000 C 
ATOM     28  C   UNL     1      -4.035  13.531  21.512  0.00  0.00    +0.000 C 
ATOM     29  N   UNL     1      -3.204  12.579  20.787  0.00  0.00    +0.000 NA
ATOM     30  H   UNL     1      -3.008  12.899  19.836  0.00  0.00    +0.000 HD
ENDBRANCH  23  24
ENDBRANCH   6  23
TORSDOF 6
ENDMDL
MODEL 6
REMARK VINA RESULT:      -8.5      0.962      1.455
REMARK  Name = 
REMARK  6 active torsions:
REMARK  status: ('A' for Active; 'I' for Inactive)
REMARK    1  A    between atoms: C_2  and  C_3
REMARK    2  A    between atoms: C_3  and  C_4
REMARK    3  A    between atoms: C_4  and  C_5
REMARK    4  A    between atoms: C_4  and  C_11
REMARK    5  A    between atoms: N_20  and  C_21
REMARK    6  A    between atoms: C_21  and  C_22
REMARK                            x       y       z     vdW  Elec       q    Type
REMARK                         _______ _______ _______ _____ _____    ______ ____
ROOT
ATOM      1  O   UNL     1       2.329   8.730  17.319  0.00  0.00    +0.000 OA
ATOM      2  C   UNL     1       2.037   8.568  18.507  0.00  0.00    +0.000 C 
ATOM      3  N   UNL     1       1.316   9.515  19.219  0.00  0.00    +0.000 N 
ATOM      4  C   UNL     1       0.649   9.308  20.514  0.00  0.00    +0.000 C 
ATOM      5  C   UNL     1       0.753  10.553  21.416  0.00  0.00    +0.000 C 
ATOM      6  N   UNL     1       0.323  11.810  20.773  0.00  0.00    +0.000 NA
ATOM      7  C   UNL     1       1.095  11.969  19.514  0.00  0.00    +0.000 C 
ATOM      8  C   UNL     1       0.982  10.775  18.547  0.00  0.00    +0.000 C 
ENDROOT
BRANCH   2   9
ATOM      9  C   UNL     1       2.424   7.298  19.234  0.00  0.00    +0.000 C 
BRANCH   9  10
ATOM     10  C   UNL     1       2.718   6.133  18.269  0.00  0.00    +0.000 C 
BRANCH  10  11
ATOM     11  C   UNL     1       4.224   5.997  18.034  0.00  0.00    +0.000 A 
ATOM     12  C   UNL     1       4.811   6.239  16.782  0.00  0.00    +0.000 A 
ATOM     13  C   UNL     1       6.172   5.993  16.570  0.00  0.00    +0.000 A 
ATOM     14  C   UNL     1       6.967   5.514  17.608  0.00  0.00    +0.000 A 
ATOM     15  C   UNL     1       6.405   5.282  18.860  0.00  0.00    +0.000 A 
ATOM     16  C   UNL     1       5.045   5.521  19.071  0.00  0.00    +0.000 A 
ENDBRANCH  10  11
BRANCH  10  17
ATOM     17  C   UNL     1       2.042   4.833  18.720  0.00  0.00    +0.000 A 
ATOM     18  C   UNL     1       1.565   4.736  20.036  0.00  0.00    +0.000 A 
ATOM     19  C   UNL     1       1.043   3.535  20.522  0.00  0.00    +0.000 A 
ATOM     20  C   UNL     1       0.977   2.413  19.695  0.00  0.00    +0.000 A 
ATOM     21  C   UNL     1       1.407   2.503  18.375  0.00  0.00    +0.000 A 
ATOM     22  C   UNL     1       1.924   3.709  17.887  0.00  0.00    +0.000 A 
ENDBRANCH  10  17
ENDBRANCH   9  10
ENDBRANCH   2   9
BRANCH   6  23
ATOM     23  C   UNL     1      -1.130  11.852  20.481  0.00  0.00    +0.000 C 
BRANCH  23  24
ATOM     24  C   UNL     1      -2.047  12.257  21.666  0.00  0.00    +0.000 C 
ATOM     25  C   UNL     1      -3.381  12.793  21.119  0.00  0.00    +0.000 C 
ATOM     26  C   UNL     1      -4.270  13.360  22.221  0.00  0.00    +0.000 C 
ATOM     27  C   UNL     1      -3.489  14.328  23.105  0.00  0.00    +0.000 C 
ATOM     28  C   UNL     1      -2.211  13.676  23.627  0.00  0.00    +0.000 C 
ATOM     29  N   UNL     1      -1.378  13.259  22.507  0.00  0.00    +0.000 NA
ATOM     30  H   UNL     1      -0.487  12.873  22.825  0.00  0.00    +0.000 HD
ENDBRANCH  23  24
ENDBRANCH   6  23
TORSDOF 6
ENDMDL
MODEL 7
REMARK VINA RESULT:      -8.5      1.450      1.828
REMARK  Name = 
REMARK  6 active torsions:
REMARK  status: ('A' for Active; 'I' for Inactive)
REMARK    1  A    between atoms: C_2  and  C_3
REMARK    2  A    between atoms: C_3  and  C_4
REMARK    3  A    between atoms: C_4  and  C_5
REMARK    4  A    between atoms: C_4  and  C_11
REMARK    5  A    between atoms: N_20  and  C_21
REMARK    6  A    between atoms: C_21  and  C_22
REMARK                            x       y       z     vdW  Elec       q    Type
REMARK                         _______ _______ _______ _____ _____    ______ ____
ROOT
ATOM      1  O   UNL     1       1.752   8.699  17.658  0.00  0.00    +0.000 OA
ATOM      2  C   UNL     1       1.901   8.376  18.839  0.00  0.00    +0.000 C 
ATOM      3  N   UNL     1       1.302   9.081  19.872  0.00  0.00    +0.000 N 
ATOM      4  C   UNL     1       1.148   8.625  21.262  0.00  0.00    +0.000 C 
ATOM      5  C   UNL     1       1.324   9.780  22.266  0.00  0.00    +0.000 C 
ATOM      6  N   UNL     1       0.493  10.966  21.983  0.00  0.00    +0.000 NA
ATOM      7  C   UNL     1       0.765  11.396  20.587  0.00  0.00    +0.000 C 
ATOM      8  C   UNL     1       0.549  10.293  19.532  0.00  0.00    +0.000 C 
ENDROOT
BRANCH   2   9
ATOM      9  C   UNL     1       2.723   7.161  19.212  0.00  0.00    +0.000 C 
BRANCH   9  10
ATOM     10  C   UNL     1       2.468   5.965  18.272  0.00  0.00    +0.000 C 
BRANCH  10  11
ATOM     11  C   UNL     1       3.717   5.659  17.442  0.00  0.00    +0.000 A 
ATOM     12  C   UNL     1       4.425   6.660  16.758  0.00  0.00    +0.000 A 
ATOM     13  C   UNL     1       5.491   6.331  15.914  0.00  0.00    +0.000 A 
ATOM     14  C   UNL     1       5.872   5.002  15.751  0.00  0.00    +0.000 A 
ATOM     15  C   UNL     1       5.191   3.998  16.433  0.00  0.00    +0.000 A 
ATOM     16  C   UNL     1       4.122   4.324  17.271  0.00  0.00    +0.000 A 
ENDBRANCH  10  11
BRANCH  10  17
ATOM     17  C   UNL     1       1.913   4.753  19.028  0.00  0.00    +0.000 A 
ATOM     18  C   UNL     1       2.077   4.687  20.421  0.00  0.00    +0.000 A 
ATOM     19  C   UNL     1       1.687   3.550  21.134  0.00  0.00    +0.000 A 
ATOM     20  C   UNL     1       1.113   2.466  20.468  0.00  0.00    +0.000 A 
ATOM     21  C   UNL     1       0.905   2.533  19.094  0.00  0.00    +0.000 A 
ATOM     22  C   UNL     1       1.291   3.673  18.381  0.00  0.00    +0.000 A 
ENDBRANCH  10  17
ENDBRANCH   9  10
ENDBRANCH   2   9
BRANCH   6  23
ATOM     23  C   UNL     1      -0.959  10.721  22.160  0.00  0.00    +0.000 C 
BRANCH  23  24
ATOM     24  C   UNL     1      -1.831  11.978  22.421  0.00  0.00    +0.000 C 
ATOM     25  C   UNL     1      -0.940  13.124  22.926  0.00  0.00    +0.000 C 
ATOM     26  C   UNL     1      -1.753  14.340  23.356  0.00  0.00    +0.000 C 
ATOM     27  C   UNL     1      -2.886  13.934  24.291  0.00  0.00    +0.000 C 
ATOM     28  C   UNL     1      -3.732  12.824  23.669  0.00  0.00    +0.000 C 
ATOM     29  N   UNL     1      -2.894  11.666  23.388  0.00  0.00    +0.000 NA
ATOM     30  H   UNL     1      -3.443  10.884  23.026  0.00  0.00    +0.000 HD
ENDBRANCH  23  24
ENDBRANCH   6  23
TORSDOF 6
ENDMDL
MODEL 8
REMARK VINA RESULT:      -8.5      1.097      1.447
REMARK  Name = 
REMARK  6 active torsions:
REMARK  status: ('A' for Active; 'I' for Inactive)
REMARK    1  A    between atoms: C_2  and  C_3
REMARK    2  A    between atoms: C_3  and  C_4
REMARK    3  A    between atoms: C_4  and  C_5
REMARK    4  A    between atoms: C_4  and  C_11
REMARK    5  A    between atoms: N_20  and  C_21
REMARK    6  A    between atoms: C_21  and  C_22
REMARK                            x       y       z     vdW  Elec       q    Type
REMARK                         _______ _______ _______ _____ _____    ______ ____
ROOT
ATOM      1  O   UNL     1       2.121   8.711  17.416  0.00  0.00    +0.000 OA
ATOM      2  C   UNL     1       2.105   8.393  18.608  0.00  0.00    +0.000 C 
ATOM      3  N   UNL     1       1.422   9.140  19.555  0.00  0.00    +0.000 N 
ATOM      4  C   UNL     1       1.071   8.709  20.918  0.00  0.00    +0.000 C 
ATOM      5  C   UNL     1       1.186   9.864  21.931  0.00  0.00    +0.000 C 
ATOM      6  N   UNL     1       0.463  11.091  21.542  0.00  0.00    +0.000 NA
ATOM      7  C   UNL     1       0.930  11.489  20.189  0.00  0.00    +0.000 C 
ATOM      8  C   UNL     1       0.786  10.389  19.120  0.00  0.00    +0.000 C 
ENDROOT
BRANCH   2   9
ATOM      9  C   UNL     1       2.805   7.139  19.085  0.00  0.00    +0.000 C 
BRANCH   9  10
ATOM     10  C   UNL     1       2.577   5.941  18.142  0.00  0.00    +0.000 C 
BRANCH  10  11
ATOM     11  C   UNL     1       3.866   5.595  17.393  0.00  0.00    +0.000 A 
ATOM     12  C   UNL     1       4.777   6.578  16.977  0.00  0.00    +0.000 A 
ATOM     13  C   UNL     1       5.885   6.241  16.193  0.00  0.00    +0.000 A 
ATOM     14  C   UNL     1       6.106   4.916  15.824  0.00  0.00    +0.000 A 
ATOM     15  C   UNL     1       5.221   3.925  16.240  0.00  0.00    +0.000 A 
ATOM     16  C   UNL     1       4.110   4.262  17.017  0.00  0.00    +0.000 A 
ENDBRANCH  10  11
BRANCH  10  17
ATOM     17  C   UNL     1       1.945   4.750  18.872  0.00  0.00    +0.000 A 
ATOM     18  C   UNL     1       2.036   4.686  20.271  0.00  0.00    +0.000 A 
ATOM     19  C   UNL     1       1.573   3.566  20.968  0.00  0.00    +0.000 A 
ATOM     20  C   UNL     1       1.000   2.497  20.277  0.00  0.00    +0.000 A 
ATOM     21  C   UNL     1       0.865   2.564  18.894  0.00  0.00    +0.000 A 
ATOM     22  C   UNL     1       1.323   3.688  18.197  0.00  0.00    +0.000 A 
ENDBRANCH  10  17
ENDBRANCH   9  10
ENDBRANCH   2   9
BRANCH   6  23
ATOM     23  C   UNL     1      -1.010  10.927  21.538  0.00  0.00    +0.000 C 
BRANCH  23  24
ATOM     24  C   UNL     1      -1.832  12.177  21.953  0.00  0.00    +0.000 C 
ATOM     25  C   UNL     1      -2.536  11.905  23.292  0.00  0.00    +0.000 C 
ATOM     26  C   UNL     1      -3.490  13.029  23.682  0.00  0.00    +0.000 C 
ATOM     27  C   UNL     1      -4.412  13.386  22.520  0.00  0.00    +0.000 C 
ATOM     28  C   UNL     1      -3.604  13.681  21.257  0.00  0.00    +0.000 C 
ATOM     29  N   UNL     1      -2.803  12.517  20.903  0.00  0.00    +0.000 NA
ATOM     30  H   UNL     1      -2.296  12.662  20.027  0.00  0.00    +0.000 HD
ENDBRANCH  23  24
ENDBRANCH   6  23
TORSDOF 6
ENDMDL
MODEL 9
REMARK VINA RESULT:      -8.4      0.886      1.630
REMARK  Name = 
REMARK  6 active torsions:
REMARK  status: ('A' for Active; 'I' for Inactive)
REMARK    1  A    between atoms: C_2  and  C_3
REMARK    2  A    between atoms: C_3  and  C_4
REMARK    3  A    between atoms: C_4  and  C_5
REMARK    4  A    between atoms: C_4  and  C_11
REMARK    5  A    between atoms: N_20  and  C_21
REMARK    6  A    between atoms: C_21  and  C_22
REMARK                            x       y       z     vdW  Elec       q    Type
REMARK                         _______ _______ _______ _____ _____    ______ ____
ROOT
ATOM      1  O   UNL     1       1.850   8.725  17.685  0.00  0.00    +0.000 OA
ATOM      2  C   UNL     1       1.779   8.523  18.899  0.00  0.00    +0.000 C 
ATOM      3  N   UNL     1       1.114   9.394  19.749  0.00  0.00    +0.000 N 
ATOM      4  C   UNL     1       0.697   9.113  21.132  0.00  0.00    +0.000 C 
ATOM      5  C   UNL     1       0.850  10.349  22.038  0.00  0.00    +0.000 C 
ATOM      6  N   UNL     1       0.214  11.573  21.512  0.00  0.00    +0.000 NA
ATOM      7  C   UNL     1       0.744  11.816  20.146  0.00  0.00    +0.000 C 
ATOM      8  C   UNL     1       0.567  10.629  19.178  0.00  0.00    +0.000 C 
ENDROOT
BRANCH   2   9
ATOM      9  C   UNL     1       2.388   7.281  19.515  0.00  0.00    +0.000 C 
BRANCH   9  10
ATOM     10  C   UNL     1       2.656   6.177  18.473  0.00  0.00    +0.000 C 
BRANCH  10  11
ATOM     11  C   UNL     1       4.144   6.117  18.124  0.00  0.00    +0.000 A 
ATOM     12  C   UNL     1       4.643   6.568  16.891  0.00  0.00    +0.000 A 
ATOM     13  C   UNL     1       5.989   6.392  16.558  0.00  0.00    +0.000 A 
ATOM     14  C   UNL     1       6.859   5.774  17.453  0.00  0.00    +0.000 A 
ATOM     15  C   UNL     1       6.385   5.333  18.685  0.00  0.00    +0.000 A 
ATOM     16  C   UNL     1       5.039   5.503  19.017  0.00  0.00    +0.000 A 
ENDBRANCH  10  11
BRANCH  10  17
ATOM     17  C   UNL     1       2.065   4.829  18.904  0.00  0.00    +0.000 A 
ATOM     18  C   UNL     1       1.946   3.804  17.953  0.00  0.00    +0.000 A 
ATOM     19  C   UNL     1       1.312   2.601  18.273  0.00  0.00    +0.000 A 
ATOM     20  C   UNL     1       0.799   2.397  19.555  0.00  0.00    +0.000 A 
ATOM     21  C   UNL     1       0.945   3.387  20.521  0.00  0.00    +0.000 A 
ATOM     22  C   UNL     1       1.585   4.590  20.202  0.00  0.00    +0.000 A 
ENDBRANCH  10  17
ENDBRANCH   9  10
ENDBRANCH   2   9
BRANCH   6  23
ATOM     23  C   UNL     1      -1.266  11.494  21.471  0.00  0.00    +0.000 C 
BRANCH  23  24
ATOM     24  C   UNL     1      -2.026  12.697  22.090  0.00  0.00    +0.000 C 
ATOM     25  C   UNL     1      -1.174  13.321  23.207  0.00  0.00    +0.000 C 
ATOM     26  C   UNL     1      -1.926  14.407  23.968  0.00  0.00    +0.000 C 
ATOM     27  C   UNL     1      -3.306  13.916  24.395  0.00  0.00    +0.000 C 
ATOM     28  C   UNL     1      -4.078  13.362  23.200  0.00  0.00    +0.000 C 
ATOM     29  N   UNL     1      -3.334  12.262  22.600  0.00  0.00    +0.000 NA
ATOM     30  H   UNL     1      -3.854  11.831  21.833  0.00  0.00    +0.000 HD
ENDBRANCH  23  24
ENDBRANCH   6  23
TORSDOF 6
ENDMDL
