MODEL 1
REMARK VINA RESULT:      -7.5      0.000      0.000
REMARK  Name = 
REMARK  8 active torsions:
REMARK  status: ('A' for Active; 'I' for Inactive)
REMARK    1  A    between atoms: C_1  and  C_2
REMARK    2  A    between atoms: C_2  and  C_3
REMARK    3  A    between atoms: C_3  and  N_4
REMARK    4  A    between atoms: C_10  and  C_11
REMARK    5  A    between atoms: N_17  and  O_18
REMARK    6  A    between atoms: N_19  and  C_20
REMARK    7  A    between atoms: C_20  and  C_21
REMARK    8  A    between atoms: C_21  and  C_22
REMARK                            x       y       z     vdW  Elec       q    Type
REMARK                         _______ _______ _______ _____ _____    ______ ____
ROOT
ATOM      1  N   UNL     1       3.102   4.998  19.739  0.00  0.00    +0.000 N 
ATOM      2  C   UNL     1       3.774   4.078  18.919  0.00  0.00    +0.000 A 
ATOM      3  O   UNL     1       3.951   2.906  19.242  0.00  0.00    +0.000 OA
ATOM      4  C   UNL     1       4.242   4.651  17.700  0.00  0.00    +0.000 A 
ATOM      5  C   UNL     1       4.070   5.972  17.376  0.00  0.00    +0.000 A 
ATOM      6  C   UNL     1       4.692   6.193  16.131  0.00  0.00    +0.000 A 
ATOM      7  C   UNL     1       5.214   4.983  15.683  0.00  0.00    +0.000 A 
ATOM      8  N   UNL     1       4.908   4.058  16.666  0.00  0.00    +0.000 N 
ATOM      9  N   UNL     1       3.385   6.832  18.218  0.00  0.00    +0.000 N 
ATOM     10  C   UNL     1       2.814   6.332  19.402  0.00  0.00    +0.000 A 
ATOM     11  O   UNL     1       2.098   7.041  20.115  0.00  0.00    +0.000 OA
ENDROOT
BRANCH   7  12
ATOM     12  C   UNL     1       5.953   4.710  14.443  0.00  0.00    +0.000 A 
ATOM     13  C   UNL     1       5.421   3.820  13.499  0.00  0.00    +0.000 A 
ATOM     14  C   UNL     1       6.108   3.532  12.313  0.00  0.00    +0.000 A 
ATOM     15  C   UNL     1       7.331   4.141  12.053  0.00  0.00    +0.000 A 
ATOM     16  C   UNL     1       7.875   5.023  12.982  0.00  0.00    +0.000 A 
ATOM     17  C   UNL     1       7.201   5.293  14.177  0.00  0.00    +0.000 A 
ENDBRANCH   7  12
BRANCH   8  18
ATOM     18  O   UNL     1       5.219   2.703  16.615  0.00  0.00    +0.000 OA
ATOM     19  H   UNL     1       5.559   2.640  15.708  0.00  0.00    +0.000 HD
ENDBRANCH   8  18
BRANCH   1  20
ATOM     20  C   UNL     1       2.608   4.512  21.024  0.00  0.00    +0.000 C 
BRANCH  20  22
ATOM     21  C   UNL     1       1.304   2.456  21.668  0.00  0.00    +0.000 C 
ATOM     22  C   UNL     1       1.289   3.752  20.877  0.00  0.00    +0.000 C 
ENDBRANCH  20  22
ENDBRANCH   1  20
BRANCH   9  23
ATOM     23  C   UNL     1       3.218   8.253  17.905  0.00  0.00    +0.000 C 
BRANCH  23  24
ATOM     24  C   UNL     1       1.772   8.634  17.576  0.00  0.00    +0.000 C 
ATOM     25  C   UNL     1       1.385   9.952  18.234  0.00  0.00    +0.000 C 
ENDBRANCH  23  24
ENDBRANCH   9  23
TORSDOF 6
ENDMDL
MODEL 2
REMARK VINA RESULT:      -7.4      2.349      7.409
REMARK  Name = 
REMARK  8 active torsions:
REMARK  status: ('A' for Active; 'I' for Inactive)
REMARK    1  A    between atoms: C_1  and  C_2
REMARK    2  A    between atoms: C_2  and  C_3
REMARK    3  A    between atoms: C_3  and  N_4
REMARK    4  A    between atoms: C_10  and  C_11
REMARK    5  A    between atoms: N_17  and  O_18
REMARK    6  A    between atoms: N_19  and  C_20
REMARK    7  A    between atoms: C_20  and  C_21
REMARK    8  A    between atoms: C_21  and  C_22
REMARK                            x       y       z     vdW  Elec       q    Type
REMARK                         _______ _______ _______ _____ _____    ______ ____
ROOT
ATOM      1  N   UNL     1       4.427   4.822  17.428  0.00  0.00    +0.000 N 
ATOM      2  C   UNL     1       4.039   6.170  17.438  0.00  0.00    +0.000 A 
ATOM      3  O   UNL     1       4.436   6.982  16.605  0.00  0.00    +0.000 OA
ATOM      4  C   UNL     1       3.164   6.494  18.517  0.00  0.00    +0.000 A 
ATOM      5  C   UNL     1       2.764   5.583  19.459  0.00  0.00    +0.000 A 
ATOM      6  C   UNL     1       1.948   6.257  20.389  0.00  0.00    +0.000 A 
ATOM      7  C   UNL     1       1.826   7.582  19.982  0.00  0.00    +0.000 A 
ATOM      8  N   UNL     1       2.577   7.687  18.824  0.00  0.00    +0.000 N 
ATOM      9  N   UNL     1       3.167   4.259  19.390  0.00  0.00    +0.000 N 
ATOM     10  C   UNL     1       3.960   3.832  18.311  0.00  0.00    +0.000 A 
ATOM     11  O   UNL     1       4.239   2.640  18.155  0.00  0.00    +0.000 OA
ENDROOT
BRANCH   7  12
ATOM     12  C   UNL     1       1.081   8.671  20.628  0.00  0.00    +0.000 A 
ATOM     13  C   UNL     1       1.014   8.732  22.028  0.00  0.00    +0.000 A 
ATOM     14  C   UNL     1       0.303   9.752  22.672  0.00  0.00    +0.000 A 
ATOM     15  C   UNL     1      -0.340  10.731  21.921  0.00  0.00    +0.000 A 
ATOM     16  C   UNL     1      -0.286  10.683  20.531  0.00  0.00    +0.000 A 
ATOM     17  C   UNL     1       0.403   9.651  19.888  0.00  0.00    +0.000 A 
ENDBRANCH   7  12
BRANCH   8  18
ATOM     18  O   UNL     1       2.710   8.842  18.060  0.00  0.00    +0.000 OA
ATOM     19  H   UNL     1       1.817   9.211  18.148  0.00  0.00    +0.000 HD
ENDBRANCH   8  18
BRANCH   1  20
ATOM     20  C   UNL     1       5.345   4.397  16.374  0.00  0.00    +0.000 C 
BRANCH  20  22
ATOM     21  C   UNL     1       7.420   4.614  17.785  0.00  0.00    +0.000 C 
ATOM     22  C   UNL     1       6.717   5.059  16.515  0.00  0.00    +0.000 C 
ENDBRANCH  20  22
ENDBRANCH   1  20
BRANCH   9  23
ATOM     23  C   UNL     1       2.777   3.277  20.404  0.00  0.00    +0.000 C 
BRANCH  23  24
ATOM     24  C   UNL     1       1.276   2.976  20.408  0.00  0.00    +0.000 C 
ATOM     25  C   UNL     1       0.818   2.434  19.061  0.00  0.00    +0.000 C 
ENDBRANCH  23  24
ENDBRANCH   9  23
TORSDOF 6
ENDMDL
MODEL 3
REMARK VINA RESULT:      -7.3      2.225      7.457
REMARK  Name = 
REMARK  8 active torsions:
REMARK  status: ('A' for Active; 'I' for Inactive)
REMARK    1  A    between atoms: C_1  and  C_2
REMARK    2  A    between atoms: C_2  and  C_3
REMARK    3  A    between atoms: C_3  and  N_4
REMARK    4  A    between atoms: C_10  and  C_11
REMARK    5  A    between atoms: N_17  and  O_18
REMARK    6  A    between atoms: N_19  and  C_20
REMARK    7  A    between atoms: C_20  and  C_21
REMARK    8  A    between atoms: C_21  and  C_22
REMARK                            x       y       z     vdW  Elec       q    Type
REMARK                         _______ _______ _______ _____ _____    ______ ____
ROOT
ATOM      1  N   UNL     1       4.547   4.840  17.763  0.00  0.00    +0.000 N 
ATOM      2  C   UNL     1       4.159   6.188  17.731  0.00  0.00    +0.000 A 
ATOM      3  O   UNL     1       4.624   6.995  16.930  0.00  0.00    +0.000 OA
ATOM      4  C   UNL     1       3.195   6.518  18.730  0.00  0.00    +0.000 A 
ATOM      5  C   UNL     1       2.718   5.612  19.641  0.00  0.00    +0.000 A 
ATOM      6  C   UNL     1       1.825   6.292  20.494  0.00  0.00    +0.000 A 
ATOM      7  C   UNL     1       1.737   7.614  20.069  0.00  0.00    +0.000 A 
ATOM      8  N   UNL     1       2.582   7.713  18.977  0.00  0.00    +0.000 N 
ATOM      9  N   UNL     1       3.126   4.289  19.616  0.00  0.00    +0.000 N 
ATOM     10  C   UNL     1       4.008   3.856  18.610  0.00  0.00    +0.000 A 
ATOM     11  O   UNL     1       4.300   2.664  18.487  0.00  0.00    +0.000 OA
ENDROOT
BRANCH   7  12
ATOM     12  C   UNL     1       0.939   8.707  20.642  0.00  0.00    +0.000 A 
ATOM     13  C   UNL     1       0.269   9.598  19.792  0.00  0.00    +0.000 A 
ATOM     14  C   UNL     1      -0.490  10.655  20.309  0.00  0.00    +0.000 A 
ATOM     15  C   UNL     1      -0.596  10.825  21.686  0.00  0.00    +0.000 A 
ATOM     16  C   UNL     1       0.066   9.951  22.544  0.00  0.00    +0.000 A 
ATOM     17  C   UNL     1       0.843   8.911  22.027  0.00  0.00    +0.000 A 
ENDBRANCH   7  12
BRANCH   8  18
ATOM     18  O   UNL     1       2.779   8.862  18.220  0.00  0.00    +0.000 OA
ATOM     19  H   UNL     1       1.924   8.916  17.764  0.00  0.00    +0.000 HD
ENDBRANCH   8  18
BRANCH   1  20
ATOM     20  C   UNL     1       5.552   4.410  16.794  0.00  0.00    +0.000 C 
BRANCH  20  22
ATOM     21  C   UNL     1       6.050   4.007  14.359  0.00  0.00    +0.000 C 
ATOM     22  C   UNL     1       4.966   4.276  15.388  0.00  0.00    +0.000 C 
ENDBRANCH  20  22
ENDBRANCH   1  20
BRANCH   9  23
ATOM     23  C   UNL     1       2.652   3.313  20.600  0.00  0.00    +0.000 C 
BRANCH  23  24
ATOM     24  C   UNL     1       1.160   2.998  20.469  0.00  0.00    +0.000 C 
ATOM     25  C   UNL     1       0.828   2.466  19.081  0.00  0.00    +0.000 C 
ENDBRANCH  23  24
ENDBRANCH   9  23
TORSDOF 6
ENDMDL
MODEL 4
REMARK VINA RESULT:      -7.2      0.786      1.283
REMARK  Name = 
REMARK  8 active torsions:
REMARK  status: ('A' for Active; 'I' for Inactive)
REMARK    1  A    between atoms: C_1  and  C_2
REMARK    2  A    between atoms: C_2  and  C_3
REMARK    3  A    between atoms: C_3  and  N_4
REMARK    4  A    between atoms: C_10  and  C_11
REMARK    5  A    between atoms: N_17  and  O_18
REMARK    6  A    between atoms: N_19  and  C_20
REMARK    7  A    between atoms: C_20  and  C_21
REMARK    8  A    between atoms: C_21  and  C_22
REMARK                            x       y       z     vdW  Elec       q    Type
REMARK                         _______ _______ _______ _____ _____    ______ ____
ROOT
ATOM      1  N   UNL     1       3.166   4.032  19.672  0.00  0.00    +0.000 N 
ATOM      2  C   UNL     1       3.820   3.229  18.724  0.00  0.00    +0.000 A 
ATOM      3  O   UNL     1       3.970   2.018  18.870  0.00  0.00    +0.000 OA
ATOM      4  C   UNL     1       4.301   3.965  17.601  0.00  0.00    +0.000 A 
ATOM      5  C   UNL     1       4.158   5.322  17.476  0.00  0.00    +0.000 A 
ATOM      6  C   UNL     1       4.786   5.711  16.276  0.00  0.00    +0.000 A 
ATOM      7  C   UNL     1       5.282   4.569  15.654  0.00  0.00    +0.000 A 
ATOM      8  N   UNL     1       4.955   3.516  16.491  0.00  0.00    +0.000 N 
ATOM      9  N   UNL     1       3.490   6.064  18.437  0.00  0.00    +0.000 N 
ATOM     10  C   UNL     1       2.907   5.407  19.536  0.00  0.00    +0.000 A 
ATOM     11  O   UNL     1       2.207   6.019  20.347  0.00  0.00    +0.000 OA
ENDROOT
BRANCH   7  12
ATOM     12  C   UNL     1       6.016   4.466  14.385  0.00  0.00    +0.000 A 
ATOM     13  C   UNL     1       7.169   5.240  14.185  0.00  0.00    +0.000 A 
ATOM     14  C   UNL     1       7.884   5.170  12.983  0.00  0.00    +0.000 A 
ATOM     15  C   UNL     1       7.458   4.316  11.970  0.00  0.00    +0.000 A 
ATOM     16  C   UNL     1       6.314   3.545  12.152  0.00  0.00    +0.000 A 
ATOM     17  C   UNL     1       5.587   3.632  13.342  0.00  0.00    +0.000 A 
ENDBRANCH   7  12
BRANCH   8  18
ATOM     18  O   UNL     1       5.237   2.178  16.239  0.00  0.00    +0.000 OA
ATOM     19  H   UNL     1       4.356   1.790  16.367  0.00  0.00    +0.000 HD
ENDBRANCH   8  18
BRANCH   1  20
ATOM     20  C   UNL     1       2.660   3.373  20.873  0.00  0.00    +0.000 C 
BRANCH  20  22
ATOM     21  C   UNL     1       0.711   2.640  19.456  0.00  0.00    +0.000 C 
ATOM     22  C   UNL     1       1.146   3.166  20.813  0.00  0.00    +0.000 C 
ENDBRANCH  20  22
ENDBRANCH   1  20
BRANCH   9  23
ATOM     23  C   UNL     1       3.354   7.519  18.338  0.00  0.00    +0.000 C 
BRANCH  23  24
ATOM     24  C   UNL     1       2.056   7.960  17.657  0.00  0.00    +0.000 C 
ATOM     25  C   UNL     1       1.807   9.449  17.854  0.00  0.00    +0.000 C 
ENDBRANCH  23  24
ENDBRANCH   9  23
TORSDOF 6
ENDMDL
MODEL 5
REMARK VINA RESULT:      -7.2      2.499      7.622
REMARK  Name = 
REMARK  8 active torsions:
REMARK  status: ('A' for Active; 'I' for Inactive)
REMARK    1  A    between atoms: C_1  and  C_2
REMARK    2  A    between atoms: C_2  and  C_3
REMARK    3  A    between atoms: C_3  and  N_4
REMARK    4  A    between atoms: C_10  and  C_11
REMARK    5  A    between atoms: N_17  and  O_18
REMARK    6  A    between atoms: N_19  and  C_20
REMARK    7  A    between atoms: C_20  and  C_21
REMARK    8  A    between atoms: C_21  and  C_22
REMARK                            x       y       z     vdW  Elec       q    Type
REMARK                         _______ _______ _______ _____ _____    ______ ____
ROOT
ATOM      1  N   UNL     1       4.158   5.868  17.764  0.00  0.00    +0.000 N 
ATOM      2  C   UNL     1       3.672   7.147  17.454  0.00  0.00    +0.000 A 
ATOM      3  O   UNL     1       4.044   7.778  16.467  0.00  0.00    +0.000 OA
ATOM      4  C   UNL     1       2.729   7.635  18.406  0.00  0.00    +0.000 A 
ATOM      5  C   UNL     1       2.358   6.932  19.522  0.00  0.00    +0.000 A 
ATOM      6  C   UNL     1       1.454   7.731  20.252  0.00  0.00    +0.000 A 
ATOM      7  C   UNL     1       1.253   8.914  19.548  0.00  0.00    +0.000 A 
ATOM      8  N   UNL     1       2.042   8.815  18.416  0.00  0.00    +0.000 N 
ATOM      9  N   UNL     1       2.859   5.665  19.771  0.00  0.00    +0.000 N 
ATOM     10  C   UNL     1       3.728   5.070  18.839  0.00  0.00    +0.000 A 
ATOM     11  O   UNL     1       4.100   3.901  18.969  0.00  0.00    +0.000 OA
ENDROOT
BRANCH   7  12
ATOM     12  C   UNL     1       0.402  10.058  19.907  0.00  0.00    +0.000 A 
ATOM     13  C   UNL     1      -0.758  10.321  19.164  0.00  0.00    +0.000 A 
ATOM     14  C   UNL     1      -1.582  11.409  19.477  0.00  0.00    +0.000 A 
ATOM     15  C   UNL     1      -1.260  12.240  20.544  0.00  0.00    +0.000 A 
ATOM     16  C   UNL     1      -0.110  11.995  21.290  0.00  0.00    +0.000 A 
ATOM     17  C   UNL     1       0.726  10.923  20.963  0.00  0.00    +0.000 A 
ENDBRANCH   7  12
BRANCH   8  18
ATOM     18  O   UNL     1       2.124   9.772  17.410  0.00  0.00    +0.000 OA
ATOM     19  H   UNL     1       2.905  10.266  17.706  0.00  0.00    +0.000 HD
ENDBRANCH   8  18
BRANCH   1  20
ATOM     20  C   UNL     1       5.150   5.292  16.860  0.00  0.00    +0.000 C 
BRANCH  20  22
ATOM     21  C   UNL     1       7.477   4.591  17.522  0.00  0.00    +0.000 C 
ATOM     22  C   UNL     1       6.566   5.762  17.194  0.00  0.00    +0.000 C 
ENDBRANCH  20  22
ENDBRANCH   1  20
BRANCH   9  23
ATOM     23  C   UNL     1       2.499   4.911  20.973  0.00  0.00    +0.000 C 
BRANCH  23  24
ATOM     24  C   UNL     1       1.284   4.000  20.775  0.00  0.00    +0.000 C 
ATOM     25  C   UNL     1       1.474   2.664  21.479  0.00  0.00    +0.000 C 
ENDBRANCH  23  24
ENDBRANCH   9  23
TORSDOF 6
ENDMDL
MODEL 6
REMARK VINA RESULT:      -7.2      2.060      7.385
REMARK  Name = 
REMARK  8 active torsions:
REMARK  status: ('A' for Active; 'I' for Inactive)
REMARK    1  A    between atoms: C_1  and  C_2
REMARK    2  A    between atoms: C_2  and  C_3
REMARK    3  A    between atoms: C_3  and  N_4
REMARK    4  A    between atoms: C_10  and  C_11
REMARK    5  A    between atoms: N_17  and  O_18
REMARK    6  A    between atoms: N_19  and  C_20
REMARK    7  A    between atoms: C_20  and  C_21
REMARK    8  A    between atoms: C_21  and  C_22
REMARK                            x       y       z     vdW  Elec       q    Type
REMARK                         _______ _______ _______ _____ _____    ______ ____
ROOT
ATOM      1  N   UNL     1       4.547   5.284  17.900  0.00  0.00    +0.000 N 
ATOM      2  C   UNL     1       4.109   6.580  17.585  0.00  0.00    +0.000 A 
ATOM      3  O   UNL     1       4.570   7.228  16.649  0.00  0.00    +0.000 OA
ATOM      4  C   UNL     1       3.101   7.062  18.472  0.00  0.00    +0.000 A 
ATOM      5  C   UNL     1       2.628   6.338  19.535  0.00  0.00    +0.000 A 
ATOM      6  C   UNL     1       1.682   7.136  20.210  0.00  0.00    +0.000 A 
ATOM      7  C   UNL     1       1.558   8.340  19.524  0.00  0.00    +0.000 A 
ATOM      8  N   UNL     1       2.435   8.254  18.457  0.00  0.00    +0.000 N 
ATOM      9  N   UNL     1       3.087   5.057  19.790  0.00  0.00    +0.000 N 
ATOM     10  C   UNL     1       4.018   4.468  18.916  0.00  0.00    +0.000 A 
ATOM     11  O   UNL     1       4.359   3.290  19.044  0.00  0.00    +0.000 OA
ENDROOT
BRANCH   7  12
ATOM     12  C   UNL     1       0.701   9.490  19.843  0.00  0.00    +0.000 A 
ATOM     13  C   UNL     1       0.810  10.112  21.096  0.00  0.00    +0.000 A 
ATOM     14  C   UNL     1      -0.001  11.202  21.432  0.00  0.00    +0.000 A 
ATOM     15  C   UNL     1      -0.924  11.691  20.514  0.00  0.00    +0.000 A 
ATOM     16  C   UNL     1      -1.048  11.082  19.268  0.00  0.00    +0.000 A 
ATOM     17  C   UNL     1      -0.256   9.979  18.940  0.00  0.00    +0.000 A 
ENDBRANCH   7  12
BRANCH   8  18
ATOM     18  O   UNL     1       2.614   9.234  17.486  0.00  0.00    +0.000 OA
ATOM     19  H   UNL     1       2.383  10.026  17.998  0.00  0.00    +0.000 HD
ENDBRANCH   8  18
BRANCH   1  20
ATOM     20  C   UNL     1       5.599   4.712  17.064  0.00  0.00    +0.000 C 
BRANCH  20  22
ATOM     21  C   UNL     1       6.095   3.999  14.700  0.00  0.00    +0.000 C 
ATOM     22  C   UNL     1       5.036   4.092  15.785  0.00  0.00    +0.000 C 
ENDBRANCH  20  22
ENDBRANCH   1  20
BRANCH   9  23
ATOM     23  C   UNL     1       2.618   4.279  20.939  0.00  0.00    +0.000 C 
BRANCH  23  24
ATOM     24  C   UNL     1       1.154   3.848  20.821  0.00  0.00    +0.000 C 
ATOM     25  C   UNL     1       0.958   2.867  19.673  0.00  0.00    +0.000 C 
ENDBRANCH  23  24
ENDBRANCH   9  23
TORSDOF 6
ENDMDL
MODEL 7
REMARK VINA RESULT:      -7.0      4.205      7.255
REMARK  Name = 
REMARK  8 active torsions:
REMARK  status: ('A' for Active; 'I' for Inactive)
REMARK    1  A    between atoms: C_1  and  C_2
REMARK    2  A    between atoms: C_2  and  C_3
REMARK    3  A    between atoms: C_3  and  N_4
REMARK    4  A    between atoms: C_10  and  C_11
REMARK    5  A    between atoms: N_17  and  O_18
REMARK    6  A    between atoms: N_19  and  C_20
REMARK    7  A    between atoms: C_20  and  C_21
REMARK    8  A    between atoms: C_21  and  C_22
REMARK                            x       y       z     vdW  Elec       q    Type
REMARK                         _______ _______ _______ _____ _____    ______ ____
ROOT
ATOM      1  N   UNL     1      -0.813  11.593  21.757  0.00  0.00    +0.000 N 
ATOM      2  C   UNL     1       0.071  10.523  21.965  0.00  0.00    +0.000 A 
ATOM      3  O   UNL     1       0.438  10.173  23.085  0.00  0.00    +0.000 OA
ATOM      4  C   UNL     1       0.505   9.910  20.753  0.00  0.00    +0.000 A 
ATOM      5  C   UNL     1       0.115  10.342  19.512  0.00  0.00    +0.000 A 
ATOM      6  C   UNL     1       0.768   9.540  18.554  0.00  0.00    +0.000 A 
ATOM      7  C   UNL     1       1.532   8.592  19.228  0.00  0.00    +0.000 A 
ATOM      8  N   UNL     1       1.337   8.843  20.575  0.00  0.00    +0.000 N 
ATOM      9  N   UNL     1      -0.771  11.395  19.366  0.00  0.00    +0.000 N 
ATOM     10  C   UNL     1      -1.319  12.002  20.511  0.00  0.00    +0.000 A 
ATOM     11  O   UNL     1      -2.198  12.863  20.418  0.00  0.00    +0.000 OA
ENDROOT
BRANCH   7  12
ATOM     12  C   UNL     1       2.391   7.541  18.662  0.00  0.00    +0.000 A 
ATOM     13  C   UNL     1       3.374   7.879  17.720  0.00  0.00    +0.000 A 
ATOM     14  C   UNL     1       4.199   6.898  17.157  0.00  0.00    +0.000 A 
ATOM     15  C   UNL     1       4.058   5.568  17.539  0.00  0.00    +0.000 A 
ATOM     16  C   UNL     1       3.084   5.216  18.469  0.00  0.00    +0.000 A 
ATOM     17  C   UNL     1       2.244   6.191  19.014  0.00  0.00    +0.000 A 
ENDBRANCH   7  12
BRANCH   8  18
ATOM     18  O   UNL     1       1.895   8.107  21.614  0.00  0.00    +0.000 OA
ATOM     19  H   UNL     1       1.891   7.220  21.219  0.00  0.00    +0.000 HD
ENDBRANCH   8  18
BRANCH   1  20
ATOM     20  C   UNL     1      -1.294  12.303  22.939  0.00  0.00    +0.000 C 
BRANCH  20  22
ATOM     21  C   UNL     1      -3.596  12.848  23.804  0.00  0.00    +0.000 C 
ATOM     22  C   UNL     1      -2.624  11.739  23.440  0.00  0.00    +0.000 C 
ENDBRANCH  20  22
ENDBRANCH   1  20
BRANCH   9  23
ATOM     23  C   UNL     1      -1.176  11.892  18.049  0.00  0.00    +0.000 C 
BRANCH  23  24
ATOM     24  C   UNL     1      -2.499  11.298  17.559  0.00  0.00    +0.000 C 
ATOM     25  C   UNL     1      -2.265  10.063  16.700  0.00  0.00    +0.000 C 
ENDBRANCH  23  24
ENDBRANCH   9  23
TORSDOF 6
ENDMDL
MODEL 8
REMARK VINA RESULT:      -6.9      2.767      8.205
REMARK  Name = 
REMARK  8 active torsions:
REMARK  status: ('A' for Active; 'I' for Inactive)
REMARK    1  A    between atoms: C_1  and  C_2
REMARK    2  A    between atoms: C_2  and  C_3
REMARK    3  A    between atoms: C_3  and  N_4
REMARK    4  A    between atoms: C_10  and  C_11
REMARK    5  A    between atoms: N_17  and  O_18
REMARK    6  A    between atoms: N_19  and  C_20
REMARK    7  A    between atoms: C_20  and  C_21
REMARK    8  A    between atoms: C_21  and  C_22
REMARK                            x       y       z     vdW  Elec       q    Type
REMARK                         _______ _______ _______ _____ _____    ______ ____
ROOT
ATOM      1  N   UNL     1       3.668   6.293  17.865  0.00  0.00    +0.000 N 
ATOM      2  C   UNL     1       3.089   7.572  17.868  0.00  0.00    +0.000 A 
ATOM      3  O   UNL     1       3.294   8.396  16.980  0.00  0.00    +0.000 OA
ATOM      4  C   UNL     1       2.266   7.812  19.008  0.00  0.00    +0.000 A 
ATOM      5  C   UNL     1       2.082   6.894  20.008  0.00  0.00    +0.000 A 
ATOM      6  C   UNL     1       1.254   7.483  20.984  0.00  0.00    +0.000 A 
ATOM      7  C   UNL     1       0.907   8.758  20.549  0.00  0.00    +0.000 A 
ATOM      8  N   UNL     1       1.537   8.921  19.328  0.00  0.00    +0.000 N 
ATOM      9  N   UNL     1       2.668   5.640  19.946  0.00  0.00    +0.000 N 
ATOM     10  C   UNL     1       3.425   5.286  18.815  0.00  0.00    +0.000 A 
ATOM     11  O   UNL     1       3.861   4.141  18.672  0.00  0.00    +0.000 OA
ENDROOT
BRANCH   7  12
ATOM     12  C   UNL     1       0.065   9.756  21.224  0.00  0.00    +0.000 A 
ATOM     13  C   UNL     1      -0.430  10.851  20.501  0.00  0.00    +0.000 A 
ATOM     14  C   UNL     1      -1.226  11.823  21.119  0.00  0.00    +0.000 A 
ATOM     15  C   UNL     1      -1.545  11.704  22.468  0.00  0.00    +0.000 A 
ATOM     16  C   UNL     1      -1.058  10.626  23.202  0.00  0.00    +0.000 A 
ATOM     17  C   UNL     1      -0.244   9.668  22.590  0.00  0.00    +0.000 A 
ENDBRANCH   7  12
BRANCH   8  18
ATOM     18  O   UNL     1       1.437  10.049  18.520  0.00  0.00    +0.000 OA
ATOM     19  H   UNL     1       2.103   9.837  17.847  0.00  0.00    +0.000 HD
ENDBRANCH   8  18
BRANCH   1  20
ATOM     20  C   UNL     1       4.550   5.961  16.750  0.00  0.00    +0.000 C 
BRANCH  20  22
ATOM     21  C   UNL     1       6.959   5.328  16.376  0.00  0.00    +0.000 C 
ATOM     22  C   UNL     1       6.010   6.298  17.058  0.00  0.00    +0.000 C 
ENDBRANCH  20  22
ENDBRANCH   1  20
BRANCH   9  23
ATOM     23  C   UNL     1       2.509   4.656  21.019  0.00  0.00    +0.000 C 
BRANCH  23  24
ATOM     24  C   UNL     1       1.297   3.741  20.826  0.00  0.00    +0.000 C 
ATOM     25  C   UNL     1       1.408   2.489  21.685  0.00  0.00    +0.000 C 
ENDBRANCH  23  24
ENDBRANCH   9  23
TORSDOF 6
ENDMDL
MODEL 9
REMARK VINA RESULT:      -6.9      1.766      3.616
REMARK  Name = 
REMARK  8 active torsions:
REMARK  status: ('A' for Active; 'I' for Inactive)
REMARK    1  A    between atoms: C_1  and  C_2
REMARK    2  A    between atoms: C_2  and  C_3
REMARK    3  A    between atoms: C_3  and  N_4
REMARK    4  A    between atoms: C_10  and  C_11
REMARK    5  A    between atoms: N_17  and  O_18
REMARK    6  A    between atoms: N_19  and  C_20
REMARK    7  A    between atoms: C_20  and  C_21
REMARK    8  A    between atoms: C_21  and  C_22
REMARK                            x       y       z     vdW  Elec       q    Type
REMARK                         _______ _______ _______ _____ _____    ______ ____
ROOT
ATOM      1  N   UNL     1       2.887   6.410  19.294  0.00  0.00    +0.000 N 
ATOM      2  C   UNL     1       3.475   6.905  18.120  0.00  0.00    +0.000 A 
ATOM      3  O   UNL     1       3.455   8.096  17.817  0.00  0.00    +0.000 OA
ATOM      4  C   UNL     1       4.071   5.886  17.320  0.00  0.00    +0.000 A 
ATOM      5  C   UNL     1       4.048   4.557  17.655  0.00  0.00    +0.000 A 
ATOM      6  C   UNL     1       4.686   3.842  16.622  0.00  0.00    +0.000 A 
ATOM      7  C   UNL     1       5.130   4.755  15.670  0.00  0.00    +0.000 A 
ATOM      8  N   UNL     1       4.745   5.999  16.138  0.00  0.00    +0.000 N 
ATOM      9  N   UNL     1       3.465   4.128  18.836  0.00  0.00    +0.000 N 
ATOM     10  C   UNL     1       2.929   5.074  19.728  0.00  0.00    +0.000 A 
ATOM     11  O   UNL     1       2.509   4.738  20.838  0.00  0.00    +0.000 OA
ENDROOT
BRANCH   7  12
ATOM     12  C   UNL     1       5.845   4.490  14.414  0.00  0.00    +0.000 A 
ATOM     13  C   UNL     1       5.271   3.646  13.452  0.00  0.00    +0.000 A 
ATOM     14  C   UNL     1       5.933   3.367  12.251  0.00  0.00    +0.000 A 
ATOM     15  C   UNL     1       7.175   3.938  11.993  0.00  0.00    +0.000 A 
ATOM     16  C   UNL     1       7.761   4.775  12.939  0.00  0.00    +0.000 A 
ATOM     17  C   UNL     1       7.111   5.035  14.149  0.00  0.00    +0.000 A 
ENDBRANCH   7  12
BRANCH   8  18
ATOM     18  O   UNL     1       5.014   7.209  15.506  0.00  0.00    +0.000 OA
ATOM     19  H   UNL     1       5.868   7.002  15.095  0.00  0.00    +0.000 HD
ENDBRANCH   8  18
BRANCH   1  20
ATOM     20  C   UNL     1       2.226   7.376  20.169  0.00  0.00    +0.000 C 
BRANCH  20  22
ATOM     21  C   UNL     1       0.955   9.550  20.183  0.00  0.00    +0.000 C 
ATOM     22  C   UNL     1       1.281   8.294  19.392  0.00  0.00    +0.000 C 
ENDBRANCH  20  22
ENDBRANCH   1  20
BRANCH   9  23
ATOM     23  C   UNL     1       3.401   2.710  19.198  0.00  0.00    +0.000 C 
BRANCH  23  24
ATOM     24  C   UNL     1       2.371   1.923  18.383  0.00  0.00    +0.000 C 
ATOM     25  C   UNL     1       0.951   2.273  18.803  0.00  0.00    +0.000 C 
ENDBRANCH  23  24
ENDBRANCH   9  23
TORSDOF 6
ENDMDL
