MODEL 1
REMARK VINA RESULT:      -7.9      0.000      0.000
REMARK  Name = 
REMARK  12 active torsions:
REMARK  status: ('A' for Active; 'I' for Inactive)
REMARK    1  A    between atoms: C_1  and  O_2
REMARK    2  A    between atoms: O_2  and  C_3
REMARK    3  A    between atoms: C_6  and  C_7
REMARK    4  A    between atoms: C_8  and  C_9
REMARK    5  A    between atoms: C_9  and  C_11
REMARK    6  A    between atoms: C_14  and  O_15
REMARK    7  A    between atoms: O_15  and  C_16
REMARK    8  A    between atoms: C_16  and  C_17
REMARK    9  A    between atoms: C_17  and  C_18
REMARK   10  A    between atoms: C_18  and  S_19
REMARK   11  A    between atoms: C_24  and  O_25
REMARK   12  A    between atoms: C_27  and  O_28
REMARK                            x       y       z     vdW  Elec       q    Type
REMARK                         _______ _______ _______ _____ _____    ______ ____
ROOT
ATOM      1  C   UNL     1       5.752   6.273  17.473  0.00  0.00    +0.000 A 
ATOM      2  C   UNL     1       4.621   7.086  17.331  0.00  0.00    +0.000 A 
ATOM      3  C   UNL     1       3.342   6.566  17.578  0.00  0.00    +0.000 A 
ATOM      4  C   UNL     1       3.183   5.236  17.982  0.00  0.00    +0.000 A 
ATOM      5  C   UNL     1       4.310   4.439  18.169  0.00  0.00    +0.000 A 
ATOM      6  C   UNL     1       5.583   4.950  17.913  0.00  0.00    +0.000 A 
ENDROOT
BRANCH   1   7
ATOM      7  C   UNL     1       7.082   6.862  17.142  0.00  0.00    +0.000 C 
ATOM      8  O   UNL     1       7.804   6.384  16.271  0.00  0.00    +0.000 OA
BRANCH   7  10
ATOM      9  C   UNL     1       8.461   8.877  17.563  0.00  0.00    +0.000 C 
ATOM     10  C   UNL     1       7.513   8.023  17.972  0.00  0.00    +0.000 C 
BRANCH   9  14
ATOM     11  C   UNL     1       9.304  12.548  19.648  0.00  0.00    +0.000 A 
ATOM     12  C   UNL     1       9.512  11.318  20.276  0.00  0.00    +0.000 A 
ATOM     13  C   UNL     1       9.251  10.117  19.610  0.00  0.00    +0.000 A 
ATOM     14  C   UNL     1       8.776  10.118  18.293  0.00  0.00    +0.000 A 
ATOM     15  C   UNL     1       8.595  11.351  17.652  0.00  0.00    +0.000 A 
ATOM     16  C   UNL     1       8.852  12.555  18.325  0.00  0.00    +0.000 A 
BRANCH  11  18
ATOM     17  C   UNL     1      10.965  14.085  20.365  0.00  0.00    +0.000 C 
ATOM     18  O   UNL     1       9.622  13.624  20.430  0.00  0.00    +0.000 OA
ENDBRANCH  11  18
BRANCH  16  19
ATOM     19  O   UNL     1       8.668  13.732  17.651  0.00  0.00    +0.000 OA
ATOM     20  H   UNL     1       8.819  14.474  18.257  0.00  0.00    +0.000 HD
ENDBRANCH  16  19
ENDBRANCH   9  14
ENDBRANCH   7  10
ENDBRANCH   1   7
BRANCH   6  21
ATOM     21  O   UNL     1       6.661   4.133  18.117  0.00  0.00    +0.000 OA
ATOM     22  H   UNL     1       7.360   4.639  18.569  0.00  0.00    +0.000 HD
ENDBRANCH   6  21
BRANCH   4  23
ATOM     23  O   UNL     1       1.996   4.604  18.243  0.00  0.00    +0.000 OA
BRANCH  23  24
ATOM     24  C   UNL     1       1.921   3.252  17.781  0.00  0.00    +0.000 C 
BRANCH  24  25
ATOM     25  C   UNL     1       1.185   2.394  18.801  0.00  0.00    +0.000 C 
BRANCH  25  26
ATOM     26  C   UNL     1       0.830   3.165  20.068  0.00  0.00    +0.000 C 
BRANCH  26  27
ATOM     27  S   UNL     1       2.086   3.126  21.338  0.00  0.00    +0.000 S 
ATOM     28  O   UNL     1       1.415   2.468  22.456  0.00  0.00    +0.000 OA
ATOM     29  O   UNL     1       3.172   2.356  20.732  0.00  0.00    +0.000 OA
ATOM     30  O   UNL     1       2.387   4.538  21.539  0.00  0.00    +0.000 OA
ENDBRANCH  26  27
ENDBRANCH  25  26
ENDBRANCH  24  25
ENDBRANCH  23  24
ENDBRANCH   4  23
TORSDOF 11
ENDMDL
MODEL 2
REMARK VINA RESULT:      -7.9      0.664      1.578
REMARK  Name = 
REMARK  12 active torsions:
REMARK  status: ('A' for Active; 'I' for Inactive)
REMARK    1  A    between atoms: C_1  and  O_2
REMARK    2  A    between atoms: O_2  and  C_3
REMARK    3  A    between atoms: C_6  and  C_7
REMARK    4  A    between atoms: C_8  and  C_9
REMARK    5  A    between atoms: C_9  and  C_11
REMARK    6  A    between atoms: C_14  and  O_15
REMARK    7  A    between atoms: O_15  and  C_16
REMARK    8  A    between atoms: C_16  and  C_17
REMARK    9  A    between atoms: C_17  and  C_18
REMARK   10  A    between atoms: C_18  and  S_19
REMARK   11  A    between atoms: C_24  and  O_25
REMARK   12  A    between atoms: C_27  and  O_28
REMARK                            x       y       z     vdW  Elec       q    Type
REMARK                         _______ _______ _______ _____ _____    ______ ____
ROOT
ATOM      1  C   UNL     1       5.732   6.264  17.438  0.00  0.00    +0.000 A 
ATOM      2  C   UNL     1       4.577   7.046  17.324  0.00  0.00    +0.000 A 
ATOM      3  C   UNL     1       3.314   6.478  17.539  0.00  0.00    +0.000 A 
ATOM      4  C   UNL     1       3.195   5.127  17.883  0.00  0.00    +0.000 A 
ATOM      5  C   UNL     1       4.345   4.357  18.043  0.00  0.00    +0.000 A 
ATOM      6  C   UNL     1       5.603   4.918  17.819  0.00  0.00    +0.000 A 
ENDROOT
BRANCH   1   7
ATOM      7  C   UNL     1       7.046   6.907  17.142  0.00  0.00    +0.000 C 
ATOM      8  O   UNL     1       7.869   6.386  16.395  0.00  0.00    +0.000 OA
BRANCH   7  10
ATOM      9  C   UNL     1       8.515   8.800  17.770  0.00  0.00    +0.000 C 
ATOM     10  C   UNL     1       7.328   8.185  17.856  0.00  0.00    +0.000 C 
BRANCH   9  14
ATOM     11  C   UNL     1       9.295  12.685  19.453  0.00  0.00    +0.000 A 
ATOM     12  C   UNL     1       8.707  12.570  18.191  0.00  0.00    +0.000 A 
ATOM     13  C   UNL     1       8.439  11.317  17.634  0.00  0.00    +0.000 A 
ATOM     14  C   UNL     1       8.753  10.143  18.331  0.00  0.00    +0.000 A 
ATOM     15  C   UNL     1       9.316  10.258  19.609  0.00  0.00    +0.000 A 
ATOM     16  C   UNL     1       9.590  11.518  20.163  0.00  0.00    +0.000 A 
BRANCH  11  18
ATOM     17  C   UNL     1       8.392  14.586  20.554  0.00  0.00    +0.000 C 
ATOM     18  O   UNL     1       9.474  13.980  19.858  0.00  0.00    +0.000 OA
ENDBRANCH  11  18
BRANCH  16  19
ATOM     19  O   UNL     1      10.131  11.575  21.418  0.00  0.00    +0.000 OA
ATOM     20  H   UNL     1      10.036  12.476  21.766  0.00  0.00    +0.000 HD
ENDBRANCH  16  19
ENDBRANCH   9  14
ENDBRANCH   7  10
ENDBRANCH   1   7
BRANCH   6  21
ATOM     21  O   UNL     1       6.704   4.126  17.994  0.00  0.00    +0.000 OA
ATOM     22  H   UNL     1       6.948   3.731  17.139  0.00  0.00    +0.000 HD
ENDBRANCH   6  21
BRANCH   4  23
ATOM     23  O   UNL     1       2.026   4.447  18.108  0.00  0.00    +0.000 OA
BRANCH  23  24
ATOM     24  C   UNL     1       2.069   3.055  17.783  0.00  0.00    +0.000 C 
BRANCH  24  25
ATOM     25  C   UNL     1       1.268   2.257  18.803  0.00  0.00    +0.000 C 
BRANCH  25  26
ATOM     26  C   UNL     1       0.861   3.094  20.011  0.00  0.00    +0.000 C 
BRANCH  26  27
ATOM     27  S   UNL     1       2.091   3.180  21.305  0.00  0.00    +0.000 S 
ATOM     28  O   UNL     1       2.290   4.615  21.486  0.00  0.00    +0.000 OA
ATOM     29  O   UNL     1       1.458   2.498  22.434  0.00  0.00    +0.000 OA
ATOM     30  O   UNL     1       3.222   2.465  20.725  0.00  0.00    +0.000 OA
ENDBRANCH  26  27
ENDBRANCH  25  26
ENDBRANCH  24  25
ENDBRANCH  23  24
ENDBRANCH   4  23
TORSDOF 11
ENDMDL
MODEL 3
REMARK VINA RESULT:      -7.4      1.394      1.814
REMARK  Name = 
REMARK  12 active torsions:
REMARK  status: ('A' for Active; 'I' for Inactive)
REMARK    1  A    between atoms: C_1  and  O_2
REMARK    2  A    between atoms: O_2  and  C_3
REMARK    3  A    between atoms: C_6  and  C_7
REMARK    4  A    between atoms: C_8  and  C_9
REMARK    5  A    between atoms: C_9  and  C_11
REMARK    6  A    between atoms: C_14  and  O_15
REMARK    7  A    between atoms: O_15  and  C_16
REMARK    8  A    between atoms: C_16  and  C_17
REMARK    9  A    between atoms: C_17  and  C_18
REMARK   10  A    between atoms: C_18  and  S_19
REMARK   11  A    between atoms: C_24  and  O_25
REMARK   12  A    between atoms: C_27  and  O_28
REMARK                            x       y       z     vdW  Elec       q    Type
REMARK                         _______ _______ _______ _____ _____    ______ ____
ROOT
ATOM      1  C   UNL     1       5.818   6.435  18.006  0.00  0.00    +0.000 A 
ATOM      2  C   UNL     1       4.690   7.063  17.464  0.00  0.00    +0.000 A 
ATOM      3  C   UNL     1       3.418   6.818  18.001  0.00  0.00    +0.000 A 
ATOM      4  C   UNL     1       3.264   5.956  19.092  0.00  0.00    +0.000 A 
ATOM      5  C   UNL     1       4.390   5.366  19.663  0.00  0.00    +0.000 A 
ATOM      6  C   UNL     1       5.655   5.600  19.124  0.00  0.00    +0.000 A 
ENDROOT
BRANCH   1   7
ATOM      7  C   UNL     1       7.138   6.688  17.359  0.00  0.00    +0.000 C 
ATOM      8  O   UNL     1       7.545   6.001  16.426  0.00  0.00    +0.000 OA
BRANCH   7  10
ATOM      9  C   UNL     1       7.915   9.037  17.492  0.00  0.00    +0.000 C 
ATOM     10  C   UNL     1       7.963   7.779  17.952  0.00  0.00    +0.000 C 
BRANCH   9  14
ATOM     11  C   UNL     1       9.821  12.363  19.449  0.00  0.00    +0.000 A 
ATOM     12  C   UNL     1       9.931  11.077  19.982  0.00  0.00    +0.000 A 
ATOM     13  C   UNL     1       9.326   9.985  19.354  0.00  0.00    +0.000 A 
ATOM     14  C   UNL     1       8.594  10.155  18.172  0.00  0.00    +0.000 A 
ATOM     15  C   UNL     1       8.508  11.441  17.622  0.00  0.00    +0.000 A 
ATOM     16  C   UNL     1       9.111  12.536  18.257  0.00  0.00    +0.000 A 
BRANCH  11  18
ATOM     17  C   UNL     1      11.766  13.703  19.697  0.00  0.00    +0.000 C 
ATOM     18  O   UNL     1      10.484  13.315  20.175  0.00  0.00    +0.000 OA
ENDBRANCH  11  18
BRANCH  16  19
ATOM     19  O   UNL     1       9.005  13.769  17.674  0.00  0.00    +0.000 OA
ATOM     20  H   UNL     1       9.169  14.453  18.342  0.00  0.00    +0.000 HD
ENDBRANCH  16  19
ENDBRANCH   9  14
ENDBRANCH   7  10
ENDBRANCH   1   7
BRANCH   6  21
ATOM     21  O   UNL     1       6.733   5.005  19.721  0.00  0.00    +0.000 OA
ATOM     22  H   UNL     1       7.185   4.442  19.068  0.00  0.00    +0.000 HD
ENDBRANCH   6  21
BRANCH   4  23
ATOM     23  O   UNL     1       2.082   5.623  19.703  0.00  0.00    +0.000 OA
BRANCH  23  24
ATOM     24  C   UNL     1       2.221   5.062  21.011  0.00  0.00    +0.000 C 
BRANCH  24  25
ATOM     25  C   UNL     1       1.562   3.690  21.060  0.00  0.00    +0.000 C 
BRANCH  25  26
ATOM     26  C   UNL     1       0.693   3.413  19.838  0.00  0.00    +0.000 C 
BRANCH  26  27
ATOM     27  S   UNL     1       1.497   2.466  18.553  0.00  0.00    +0.000 S 
ATOM     28  O   UNL     1       0.624   1.306  18.393  0.00  0.00    +0.000 OA
ATOM     29  O   UNL     1       1.524   3.379  17.410  0.00  0.00    +0.000 OA
ATOM     30  O   UNL     1       2.806   2.183  19.130  0.00  0.00    +0.000 OA
ENDBRANCH  26  27
ENDBRANCH  25  26
ENDBRANCH  24  25
ENDBRANCH  23  24
ENDBRANCH   4  23
TORSDOF 11
ENDMDL
MODEL 4
REMARK VINA RESULT:      -7.3      0.717      1.073
REMARK  Name = 
REMARK  12 active torsions:
REMARK  status: ('A' for Active; 'I' for Inactive)
REMARK    1  A    between atoms: C_1  and  O_2
REMARK    2  A    between atoms: O_2  and  C_3
REMARK    3  A    between atoms: C_6  and  C_7
REMARK    4  A    between atoms: C_8  and  C_9
REMARK    5  A    between atoms: C_9  and  C_11
REMARK    6  A    between atoms: C_14  and  O_15
REMARK    7  A    between atoms: O_15  and  C_16
REMARK    8  A    between atoms: C_16  and  C_17
REMARK    9  A    between atoms: C_17  and  C_18
REMARK   10  A    between atoms: C_18  and  S_19
REMARK   11  A    between atoms: C_24  and  O_25
REMARK   12  A    between atoms: C_27  and  O_28
REMARK                            x       y       z     vdW  Elec       q    Type
REMARK                         _______ _______ _______ _____ _____    ______ ____
ROOT
ATOM      1  C   UNL     1       5.795   6.398  17.429  0.00  0.00    +0.000 A 
ATOM      2  C   UNL     1       4.654   7.195  17.280  0.00  0.00    +0.000 A 
ATOM      3  C   UNL     1       3.377   6.640  17.453  0.00  0.00    +0.000 A 
ATOM      4  C   UNL     1       3.231   5.290  17.790  0.00  0.00    +0.000 A 
ATOM      5  C   UNL     1       4.367   4.506  17.984  0.00  0.00    +0.000 A 
ATOM      6  C   UNL     1       5.638   5.053  17.801  0.00  0.00    +0.000 A 
ENDROOT
BRANCH   1   7
ATOM      7  C   UNL     1       7.125   7.026  17.177  0.00  0.00    +0.000 C 
ATOM      8  O   UNL     1       7.959   6.505  16.442  0.00  0.00    +0.000 OA
BRANCH   7  10
ATOM      9  C   UNL     1       8.613   8.873  17.894  0.00  0.00    +0.000 C 
ATOM     10  C   UNL     1       7.407   8.289  17.917  0.00  0.00    +0.000 C 
BRANCH   9  14
ATOM     11  C   UNL     1       9.251  12.792  19.556  0.00  0.00    +0.000 A 
ATOM     12  C   UNL     1       9.545  11.653  20.308  0.00  0.00    +0.000 A 
ATOM     13  C   UNL     1       9.351  10.373  19.781  0.00  0.00    +0.000 A 
ATOM     14  C   UNL     1       8.860  10.203  18.481  0.00  0.00    +0.000 A 
ATOM     15  C   UNL     1       8.592  11.346  17.715  0.00  0.00    +0.000 A 
ATOM     16  C   UNL     1       8.781  12.629  18.249  0.00  0.00    +0.000 A 
BRANCH  11  18
ATOM     17  C   UNL     1       8.594  14.345  21.229  0.00  0.00    +0.000 C 
ATOM     18  O   UNL     1       9.511  13.965  20.212  0.00  0.00    +0.000 OA
ENDBRANCH  11  18
BRANCH  16  19
ATOM     19  O   UNL     1       8.514  13.712  17.457  0.00  0.00    +0.000 OA
ATOM     20  H   UNL     1       8.697  14.524  17.954  0.00  0.00    +0.000 HD
ENDBRANCH  16  19
ENDBRANCH   9  14
ENDBRANCH   7  10
ENDBRANCH   1   7
BRANCH   6  21
ATOM     21  O   UNL     1       6.724   4.248  18.010  0.00  0.00    +0.000 OA
ATOM     22  H   UNL     1       7.301   4.662  18.674  0.00  0.00    +0.000 HD
ENDBRANCH   6  21
BRANCH   4  23
ATOM     23  O   UNL     1       2.048   4.624  17.976  0.00  0.00    +0.000 OA
BRANCH  23  24
ATOM     24  C   UNL     1       2.069   3.246  17.594  0.00  0.00    +0.000 C 
BRANCH  24  25
ATOM     25  C   UNL     1       1.172   2.436  18.521  0.00  0.00    +0.000 C 
BRANCH  25  26
ATOM     26  C   UNL     1       1.862   2.069  19.831  0.00  0.00    +0.000 C 
BRANCH  26  27
ATOM     27  S   UNL     1       1.708   3.296  21.121  0.00  0.00    +0.000 S 
ATOM     28  O   UNL     1       3.029   3.918  21.155  0.00  0.00    +0.000 OA
ATOM     29  O   UNL     1       0.629   4.166  20.649  0.00  0.00    +0.000 OA
ATOM     30  O   UNL     1       1.369   2.495  22.291  0.00  0.00    +0.000 OA
ENDBRANCH  26  27
ENDBRANCH  25  26
ENDBRANCH  24  25
ENDBRANCH  23  24
ENDBRANCH   4  23
TORSDOF 11
ENDMDL
MODEL 5
REMARK VINA RESULT:      -7.3      2.481      3.197
REMARK  Name = 
REMARK  12 active torsions:
REMARK  status: ('A' for Active; 'I' for Inactive)
REMARK    1  A    between atoms: C_1  and  O_2
REMARK    2  A    between atoms: O_2  and  C_3
REMARK    3  A    between atoms: C_6  and  C_7
REMARK    4  A    between atoms: C_8  and  C_9
REMARK    5  A    between atoms: C_9  and  C_11
REMARK    6  A    between atoms: C_14  and  O_15
REMARK    7  A    between atoms: O_15  and  C_16
REMARK    8  A    between atoms: C_16  and  C_17
REMARK    9  A    between atoms: C_17  and  C_18
REMARK   10  A    between atoms: C_18  and  S_19
REMARK   11  A    between atoms: C_24  and  O_25
REMARK   12  A    between atoms: C_27  and  O_28
REMARK                            x       y       z     vdW  Elec       q    Type
REMARK                         _______ _______ _______ _____ _____    ______ ____
ROOT
ATOM      1  C   UNL     1       5.827   6.172  17.736  0.00  0.00    +0.000 A 
ATOM      2  C   UNL     1       4.600   6.277  17.071  0.00  0.00    +0.000 A 
ATOM      3  C   UNL     1       3.444   5.711  17.626  0.00  0.00    +0.000 A 
ATOM      4  C   UNL     1       3.501   5.048  18.857  0.00  0.00    +0.000 A 
ATOM      5  C   UNL     1       4.711   4.982  19.544  0.00  0.00    +0.000 A 
ATOM      6  C   UNL     1       5.866   5.535  18.988  0.00  0.00    +0.000 A 
ENDROOT
BRANCH   1   7
ATOM      7  C   UNL     1       7.035   6.743  17.072  0.00  0.00    +0.000 C 
ATOM      8  O   UNL     1       7.752   6.068  16.338  0.00  0.00    +0.000 OA
BRANCH   7  10
ATOM      9  C   UNL     1       8.292   8.486  18.306  0.00  0.00    +0.000 C 
ATOM     10  C   UNL     1       7.358   8.161  17.401  0.00  0.00    +0.000 C 
BRANCH   9  14
ATOM     11  C   UNL     1       9.682  12.506  18.968  0.00  0.00    +0.000 A 
ATOM     12  C   UNL     1       8.906  12.206  17.846  0.00  0.00    +0.000 A 
ATOM     13  C   UNL     1       8.440  10.908  17.621  0.00  0.00    +0.000 A 
ATOM     14  C   UNL     1       8.738   9.875  18.518  0.00  0.00    +0.000 A 
ATOM     15  C   UNL     1       9.492  10.182  19.659  0.00  0.00    +0.000 A 
ATOM     16  C   UNL     1       9.964  11.485  19.880  0.00  0.00    +0.000 A 
BRANCH  11  18
ATOM     17  C   UNL     1       9.103  14.773  18.561  0.00  0.00    +0.000 C 
ATOM     18  O   UNL     1      10.042  13.824  19.048  0.00  0.00    +0.000 OA
ENDBRANCH  11  18
BRANCH  16  19
ATOM     19  O   UNL     1      10.687  11.734  21.014  0.00  0.00    +0.000 OA
ATOM     20  H   UNL     1      10.276  12.465  21.501  0.00  0.00    +0.000 HD
ENDBRANCH  16  19
ENDBRANCH   9  14
ENDBRANCH   7  10
ENDBRANCH   1   7
BRANCH   6  21
ATOM     21  O   UNL     1       7.030   5.453  19.701  0.00  0.00    +0.000 OA
ATOM     22  H   UNL     1       7.599   6.206  19.465  0.00  0.00    +0.000 HD
ENDBRANCH   6  21
BRANCH   4  23
ATOM     23  O   UNL     1       2.453   4.443  19.502  0.00  0.00    +0.000 OA
BRANCH  23  24
ATOM     24  C   UNL     1       2.101   5.033  20.757  0.00  0.00    +0.000 C 
BRANCH  24  25
ATOM     25  C   UNL     1       1.215   6.250  20.528  0.00  0.00    +0.000 C 
BRANCH  25  26
ATOM     26  C   UNL     1       1.863   7.544  21.011  0.00  0.00    +0.000 C 
BRANCH  26  27
ATOM     27  S   UNL     1       0.731   8.912  21.215  0.00  0.00    +0.000 S 
ATOM     28  O   UNL     1       1.375   9.733  22.236  0.00  0.00    +0.000 OA
ATOM     29  O   UNL     1       0.672   9.517  19.884  0.00  0.00    +0.000 OA
ATOM     30  O   UNL     1      -0.501   8.253  21.634  0.00  0.00    +0.000 OA
ENDBRANCH  26  27
ENDBRANCH  25  26
ENDBRANCH  24  25
ENDBRANCH  23  24
ENDBRANCH   4  23
TORSDOF 11
ENDMDL
MODEL 6
REMARK VINA RESULT:      -7.2      4.737      7.439
REMARK  Name = 
REMARK  12 active torsions:
REMARK  status: ('A' for Active; 'I' for Inactive)
REMARK    1  A    between atoms: C_1  and  O_2
REMARK    2  A    between atoms: O_2  and  C_3
REMARK    3  A    between atoms: C_6  and  C_7
REMARK    4  A    between atoms: C_8  and  C_9
REMARK    5  A    between atoms: C_9  and  C_11
REMARK    6  A    between atoms: C_14  and  O_15
REMARK    7  A    between atoms: O_15  and  C_16
REMARK    8  A    between atoms: C_16  and  C_17
REMARK    9  A    between atoms: C_17  and  C_18
REMARK   10  A    between atoms: C_18  and  S_19
REMARK   11  A    between atoms: C_24  and  O_25
REMARK   12  A    between atoms: C_27  and  O_28
REMARK                            x       y       z     vdW  Elec       q    Type
REMARK                         _______ _______ _______ _____ _____    ______ ____
ROOT
ATOM      1  C   UNL     1       2.895   5.029  19.171  0.00  0.00    +0.000 A 
ATOM      2  C   UNL     1       3.223   6.148  18.397  0.00  0.00    +0.000 A 
ATOM      3  C   UNL     1       3.912   5.992  17.186  0.00  0.00    +0.000 A 
ATOM      4  C   UNL     1       4.267   4.718  16.732  0.00  0.00    +0.000 A 
ATOM      5  C   UNL     1       3.901   3.599  17.478  0.00  0.00    +0.000 A 
ATOM      6  C   UNL     1       3.225   3.752  18.689  0.00  0.00    +0.000 A 
ENDROOT
BRANCH   1   7
ATOM      7  C   UNL     1       2.212   5.257  20.478  0.00  0.00    +0.000 C 
ATOM      8  O   UNL     1       2.348   4.486  21.424  0.00  0.00    +0.000 OA
BRANCH   7  10
ATOM      9  C   UNL     1       1.661   7.570  21.176  0.00  0.00    +0.000 C 
ATOM     10  C   UNL     1       1.307   6.440  20.549  0.00  0.00    +0.000 C 
BRANCH   9  14
ATOM     11  C   UNL     1      -0.674  11.185  21.080  0.00  0.00    +0.000 A 
ATOM     12  C   UNL     1      -0.121  10.674  19.904  0.00  0.00    +0.000 A 
ATOM     13  C   UNL     1       0.633   9.496  19.916  0.00  0.00    +0.000 A 
ATOM     14  C   UNL     1       0.849   8.799  21.111  0.00  0.00    +0.000 A 
ATOM     15  C   UNL     1       0.269   9.296  22.286  0.00  0.00    +0.000 A 
ATOM     16  C   UNL     1      -0.481  10.481  22.272  0.00  0.00    +0.000 A 
BRANCH  11  18
ATOM     17  C   UNL     1      -2.378  12.308  19.865  0.00  0.00    +0.000 C 
ATOM     18  O   UNL     1      -1.395  12.333  20.892  0.00  0.00    +0.000 OA
ENDBRANCH  11  18
BRANCH  16  19
ATOM     19  O   UNL     1      -1.034  10.918  23.445  0.00  0.00    +0.000 OA
ATOM     20  H   UNL     1      -0.824  10.287  24.151  0.00  0.00    +0.000 HD
ENDBRANCH  16  19
ENDBRANCH   9  14
ENDBRANCH   7  10
ENDBRANCH   1   7
BRANCH   6  21
ATOM     21  O   UNL     1       2.880   2.625  19.383  0.00  0.00    +0.000 OA
ATOM     22  H   UNL     1       2.375   2.035  18.797  0.00  0.00    +0.000 HD
ENDBRANCH   6  21
BRANCH   4  23
ATOM     23  O   UNL     1       4.948   4.428  15.578  0.00  0.00    +0.000 OA
BRANCH  23  24
ATOM     24  C   UNL     1       6.310   4.035  15.769  0.00  0.00    +0.000 C 
BRANCH  24  25
ATOM     25  C   UNL     1       7.055   5.106  16.555  0.00  0.00    +0.000 C 
BRANCH  25  26
ATOM     26  C   UNL     1       7.734   4.550  17.802  0.00  0.00    +0.000 C 
BRANCH  26  27
ATOM     27  S   UNL     1       7.701   5.640  19.217  0.00  0.00    +0.000 S 
ATOM     28  O   UNL     1       6.316   5.558  19.674  0.00  0.00    +0.000 OA
ATOM     29  O   UNL     1       8.686   5.059  20.129  0.00  0.00    +0.000 OA
ATOM     30  O   UNL     1       8.091   6.924  18.646  0.00  0.00    +0.000 OA
ENDBRANCH  26  27
ENDBRANCH  25  26
ENDBRANCH  24  25
ENDBRANCH  23  24
ENDBRANCH   4  23
TORSDOF 11
ENDMDL
MODEL 7
REMARK VINA RESULT:      -7.2      1.485      1.599
REMARK  Name = 
REMARK  12 active torsions:
REMARK  status: ('A' for Active; 'I' for Inactive)
REMARK    1  A    between atoms: C_1  and  O_2
REMARK    2  A    between atoms: O_2  and  C_3
REMARK    3  A    between atoms: C_6  and  C_7
REMARK    4  A    between atoms: C_8  and  C_9
REMARK    5  A    between atoms: C_9  and  C_11
REMARK    6  A    between atoms: C_14  and  O_15
REMARK    7  A    between atoms: O_15  and  C_16
REMARK    8  A    between atoms: C_16  and  C_17
REMARK    9  A    between atoms: C_17  and  C_18
REMARK   10  A    between atoms: C_18  and  S_19
REMARK   11  A    between atoms: C_24  and  O_25
REMARK   12  A    between atoms: C_27  and  O_28
REMARK                            x       y       z     vdW  Elec       q    Type
REMARK                         _______ _______ _______ _____ _____    ______ ____
ROOT
ATOM      1  C   UNL     1       6.565   6.229  18.092  0.00  0.00    +0.000 A 
ATOM      2  C   UNL     1       5.998   6.681  16.894  0.00  0.00    +0.000 A 
ATOM      3  C   UNL     1       4.808   6.114  16.417  0.00  0.00    +0.000 A 
ATOM      4  C   UNL     1       4.167   5.102  17.139  0.00  0.00    +0.000 A 
ATOM      5  C   UNL     1       4.703   4.683  18.355  0.00  0.00    +0.000 A 
ATOM      6  C   UNL     1       5.893   5.238  18.826  0.00  0.00    +0.000 A 
ENDROOT
BRANCH   1   7
ATOM      7  C   UNL     1       7.862   6.828  18.523  0.00  0.00    +0.000 C 
ATOM      8  O   UNL     1       8.671   6.203  19.202  0.00  0.00    +0.000 OA
BRANCH   7  10
ATOM      9  C   UNL     1       8.807   9.088  18.897  0.00  0.00    +0.000 C 
ATOM     10  C   UNL     1       8.091   8.249  18.135  0.00  0.00    +0.000 C 
BRANCH   9  14
ATOM     11  C   UNL     1       9.807  13.073  17.614  0.00  0.00    +0.000 A 
ATOM     12  C   UNL     1      10.787  12.246  18.167  0.00  0.00    +0.000 A 
ATOM     13  C   UNL     1      10.481  10.946  18.581  0.00  0.00    +0.000 A 
ATOM     14  C   UNL     1       9.182  10.441  18.447  0.00  0.00    +0.000 A 
ATOM     15  C   UNL     1       8.205  11.261  17.866  0.00  0.00    +0.000 A 
ATOM     16  C   UNL     1       8.514  12.567  17.457  0.00  0.00    +0.000 A 
BRANCH  11  18
ATOM     17  C   UNL     1      10.144  15.349  18.203  0.00  0.00    +0.000 C 
ATOM     18  O   UNL     1      10.274  14.306  17.246  0.00  0.00    +0.000 OA
ENDBRANCH  11  18
BRANCH  16  19
ATOM     19  O   UNL     1       7.526  13.323  16.886  0.00  0.00    +0.000 OA
ATOM     20  H   UNL     1       7.824  13.632  16.016  0.00  0.00    +0.000 HD
ENDBRANCH  16  19
ENDBRANCH   9  14
ENDBRANCH   7  10
ENDBRANCH   1   7
BRANCH   6  21
ATOM     21  O   UNL     1       6.379   4.801  20.028  0.00  0.00    +0.000 OA
ATOM     22  H   UNL     1       6.330   3.829  20.053  0.00  0.00    +0.000 HD
ENDBRANCH   6  21
BRANCH   4  23
ATOM     23  O   UNL     1       3.010   4.458  16.782  0.00  0.00    +0.000 OA
BRANCH  23  24
ATOM     24  C   UNL     1       2.693   3.311  17.575  0.00  0.00    +0.000 C 
BRANCH  24  25
ATOM     25  C   UNL     1       1.462   3.593  18.427  0.00  0.00    +0.000 C 
BRANCH  25  26
ATOM     26  C   UNL     1       1.327   2.627  19.599  0.00  0.00    +0.000 C 
BRANCH  26  27
ATOM     27  S   UNL     1       2.240   3.098  21.061  0.00  0.00    +0.000 S 
ATOM     28  O   UNL     1       1.440   2.547  22.151  0.00  0.00    +0.000 OA
ATOM     29  O   UNL     1       3.547   2.466  20.875  0.00  0.00    +0.000 OA
ATOM     30  O   UNL     1       2.257   4.554  20.977  0.00  0.00    +0.000 OA
ENDBRANCH  26  27
ENDBRANCH  25  26
ENDBRANCH  24  25
ENDBRANCH  23  24
ENDBRANCH   4  23
TORSDOF 11
ENDMDL
MODEL 8
REMARK VINA RESULT:      -7.2      4.352      6.929
REMARK  Name = 
REMARK  12 active torsions:
REMARK  status: ('A' for Active; 'I' for Inactive)
REMARK    1  A    between atoms: C_1  and  O_2
REMARK    2  A    between atoms: O_2  and  C_3
REMARK    3  A    between atoms: C_6  and  C_7
REMARK    4  A    between atoms: C_8  and  C_9
REMARK    5  A    between atoms: C_9  and  C_11
REMARK    6  A    between atoms: C_14  and  O_15
REMARK    7  A    between atoms: O_15  and  C_16
REMARK    8  A    between atoms: C_16  and  C_17
REMARK    9  A    between atoms: C_17  and  C_18
REMARK   10  A    between atoms: C_18  and  S_19
REMARK   11  A    between atoms: C_24  and  O_25
REMARK   12  A    between atoms: C_27  and  O_28
REMARK                            x       y       z     vdW  Elec       q    Type
REMARK                         _______ _______ _______ _____ _____    ______ ____
ROOT
ATOM      1  C   UNL     1       2.609   3.918  19.354  0.00  0.00    +0.000 A 
ATOM      2  C   UNL     1       2.338   4.574  18.148  0.00  0.00    +0.000 A 
ATOM      3  C   UNL     1       3.213   4.443  17.060  0.00  0.00    +0.000 A 
ATOM      4  C   UNL     1       4.357   3.646  17.163  0.00  0.00    +0.000 A 
ATOM      5  C   UNL     1       4.605   2.954  18.347  0.00  0.00    +0.000 A 
ATOM      6  C   UNL     1       3.742   3.091  19.435  0.00  0.00    +0.000 A 
ENDROOT
BRANCH   1   7
ATOM      7  C   UNL     1       1.675   4.138  20.497  0.00  0.00    +0.000 C 
ATOM      8  O   UNL     1       1.231   3.205  21.160  0.00  0.00    +0.000 OA
BRANCH   7  10
ATOM      9  C   UNL     1       2.007   6.589  20.346  0.00  0.00    +0.000 C 
ATOM     10  C   UNL     1       1.263   5.549  20.747  0.00  0.00    +0.000 C 
BRANCH   9  14
ATOM     11  C   UNL     1       0.667  10.664  20.704  0.00  0.00    +0.000 A 
ATOM     12  C   UNL     1       1.061  10.160  19.463  0.00  0.00    +0.000 A 
ATOM     13  C   UNL     1       1.491   8.836  19.328  0.00  0.00    +0.000 A 
ATOM     14  C   UNL     1       1.533   7.982  20.436  0.00  0.00    +0.000 A 
ATOM     15  C   UNL     1       1.110   8.479  21.676  0.00  0.00    +0.000 A 
ATOM     16  C   UNL     1       0.685   9.809  21.811  0.00  0.00    +0.000 A 
BRANCH  11  18
ATOM     17  C   UNL     1       1.269  12.959  20.807  0.00  0.00    +0.000 C 
ATOM     18  O   UNL     1       0.259  11.969  20.661  0.00  0.00    +0.000 OA
ENDBRANCH  11  18
BRANCH  16  19
ATOM     19  O   UNL     1       0.274  10.242  23.041  0.00  0.00    +0.000 OA
ATOM     20  H   UNL     1      -0.412  10.920  22.928  0.00  0.00    +0.000 HD
ENDBRANCH  16  19
ENDBRANCH   9  14
ENDBRANCH   7  10
ENDBRANCH   1   7
BRANCH   6  21
ATOM     21  O   UNL     1       4.022   2.388  20.575  0.00  0.00    +0.000 OA
ATOM     22  H   UNL     1       4.659   2.894  21.109  0.00  0.00    +0.000 HD
ENDBRANCH   6  21
BRANCH   4  23
ATOM     23  O   UNL     1       5.296   3.443  16.185  0.00  0.00    +0.000 OA
BRANCH  23  24
ATOM     24  C   UNL     1       5.591   4.593  15.389  0.00  0.00    +0.000 C 
BRANCH  24  25
ATOM     25  C   UNL     1       6.861   5.264  15.894  0.00  0.00    +0.000 C 
BRANCH  25  26
ATOM     26  C   UNL     1       6.601   6.200  17.069  0.00  0.00    +0.000 C 
BRANCH  26  27
ATOM     27  S   UNL     1       7.372   5.702  18.603  0.00  0.00    +0.000 S 
ATOM     28  O   UNL     1       6.250   5.627  19.535  0.00  0.00    +0.000 OA
ATOM     29  O   UNL     1       7.992   4.417  18.280  0.00  0.00    +0.000 OA
ATOM     30  O   UNL     1       8.317   6.782  18.856  0.00  0.00    +0.000 OA
ENDBRANCH  26  27
ENDBRANCH  25  26
ENDBRANCH  24  25
ENDBRANCH  23  24
ENDBRANCH   4  23
TORSDOF 11
ENDMDL
MODEL 9
REMARK VINA RESULT:      -7.2      2.569      3.040
REMARK  Name = 
REMARK  12 active torsions:
REMARK  status: ('A' for Active; 'I' for Inactive)
REMARK    1  A    between atoms: C_1  and  O_2
REMARK    2  A    between atoms: O_2  and  C_3
REMARK    3  A    between atoms: C_6  and  C_7
REMARK    4  A    between atoms: C_8  and  C_9
REMARK    5  A    between atoms: C_9  and  C_11
REMARK    6  A    between atoms: C_14  and  O_15
REMARK    7  A    between atoms: O_15  and  C_16
REMARK    8  A    between atoms: C_16  and  C_17
REMARK    9  A    between atoms: C_17  and  C_18
REMARK   10  A    between atoms: C_18  and  S_19
REMARK   11  A    between atoms: C_24  and  O_25
REMARK   12  A    between atoms: C_27  and  O_28
REMARK                            x       y       z     vdW  Elec       q    Type
REMARK                         _______ _______ _______ _____ _____    ______ ____
ROOT
ATOM      1  C   UNL     1       5.984   6.397  17.811  0.00  0.00    +0.000 A 
ATOM      2  C   UNL     1       4.830   6.969  17.265  0.00  0.00    +0.000 A 
ATOM      3  C   UNL     1       3.565   6.612  17.753  0.00  0.00    +0.000 A 
ATOM      4  C   UNL     1       3.444   5.690  18.799  0.00  0.00    +0.000 A 
ATOM      5  C   UNL     1       4.593   5.154  19.375  0.00  0.00    +0.000 A 
ATOM      6  C   UNL     1       5.853   5.500  18.884  0.00  0.00    +0.000 A 
ENDROOT
BRANCH   1   7
ATOM      7  C   UNL     1       7.301   6.770  17.215  0.00  0.00    +0.000 C 
ATOM      8  O   UNL     1       7.744   6.207  16.218  0.00  0.00    +0.000 OA
BRANCH   7  10
ATOM      9  C   UNL     1       8.054   9.106  17.556  0.00  0.00    +0.000 C 
ATOM     10  C   UNL     1       8.074   7.821  17.936  0.00  0.00    +0.000 C 
BRANCH   9  14
ATOM     11  C   UNL     1       9.802  12.303  19.847  0.00  0.00    +0.000 A 
ATOM     12  C   UNL     1       9.732  11.013  20.379  0.00  0.00    +0.000 A 
ATOM     13  C   UNL     1       9.175   9.962  19.645  0.00  0.00    +0.000 A 
ATOM     14  C   UNL     1       8.676  10.178  18.354  0.00  0.00    +0.000 A 
ATOM     15  C   UNL     1       8.772  11.465  17.810  0.00  0.00    +0.000 A 
ATOM     16  C   UNL     1       9.326  12.520  18.551  0.00  0.00    +0.000 A 
BRANCH  11  18
ATOM     17  C   UNL     1       9.549  13.820  21.656  0.00  0.00    +0.000 C 
ATOM     18  O   UNL     1      10.390  13.210  20.686  0.00  0.00    +0.000 OA
ENDBRANCH  11  18
BRANCH  16  19
ATOM     19  O   UNL     1       9.406  13.756  17.969  0.00  0.00    +0.000 OA
ATOM     20  H   UNL     1      10.338  13.982  17.827  0.00  0.00    +0.000 HD
ENDBRANCH  16  19
ENDBRANCH   9  14
ENDBRANCH   7  10
ENDBRANCH   1   7
BRANCH   6  21
ATOM     21  O   UNL     1       6.953   4.954  19.486  0.00  0.00    +0.000 OA
ATOM     22  H   UNL     1       7.572   5.668  19.719  0.00  0.00    +0.000 HD
ENDBRANCH   6  21
BRANCH   4  23
ATOM     23  O   UNL     1       2.273   5.248  19.359  0.00  0.00    +0.000 OA
BRANCH  23  24
ATOM     24  C   UNL     1       2.063   5.658  20.713  0.00  0.00    +0.000 C 
BRANCH  24  25
ATOM     25  C   UNL     1       0.989   6.736  20.768  0.00  0.00    +0.000 C 
BRANCH  25  26
ATOM     26  C   UNL     1       1.567   8.144  20.670  0.00  0.00    +0.000 C 
BRANCH  26  27
ATOM     27  S   UNL     1       0.782   9.347  21.732  0.00  0.00    +0.000 S 
ATOM     28  O   UNL     1      -0.513   8.741  22.029  0.00  0.00    +0.000 OA
ATOM     29  O   UNL     1       1.690   9.450  22.875  0.00  0.00    +0.000 OA
ATOM     30  O   UNL     1       0.732  10.538  20.892  0.00  0.00    +0.000 OA
ENDBRANCH  26  27
ENDBRANCH  25  26
ENDBRANCH  24  25
ENDBRANCH  23  24
ENDBRANCH   4  23
TORSDOF 11
ENDMDL
