MODEL 1
REMARK VINA RESULT:      -8.4      0.000      0.000
REMARK  Name = 
REMARK  5 active torsions:
REMARK  status: ('A' for Active; 'I' for Inactive)
REMARK    1  A    between atoms: C_1  and  C_2
REMARK    2  A    between atoms: C_3  and  C_4
REMARK    3  A    between atoms: N_14  and  C_15
REMARK    4  A    between atoms: C_15  and  C_16
REMARK    5  A    between atoms: C_19  and  C_20
REMARK                            x       y       z     vdW  Elec       q    Type
REMARK                         _______ _______ _______ _____ _____    ______ ____
ROOT
ATOM      1  C   UNL     1      -3.996  10.367  17.861  0.00  0.00    +0.000 C 
ATOM      2  C   UNL     1      -2.802  11.070  18.390  0.00  0.00    +0.000 C 
ATOM      3  C   UNL     1      -2.723  12.032  19.324  0.00  0.00    +0.000 C 
ATOM      4  S   UNL     1      -1.096  12.499  19.629  0.00  0.00    +0.000 S 
ATOM      5  O   UNL     1      -0.733  12.309  21.017  0.00  0.00    +0.000 OA
ATOM      6  O   UNL     1      -0.786  13.728  18.923  0.00  0.00    +0.000 OA
ATOM      7  N   UNL     1      -0.458  11.236  18.749  0.00  0.00    +0.000 N 
ATOM      8  C   UNL     1      -1.443  10.611  17.969  0.00  0.00    +0.000 C 
ATOM      9  O   UNL     1      -1.236   9.783  17.100  0.00  0.00    +0.000 OA
ENDROOT
BRANCH   3  10
ATOM     10  C   UNL     1      -3.720  12.616  20.204  0.00  0.00    +0.000 A 
ATOM     11  C   UNL     1      -3.505  12.579  21.586  0.00  0.00    +0.000 A 
ATOM     12  C   UNL     1      -4.464  13.088  22.459  0.00  0.00    +0.000 A 
ATOM     13  N   UNL     1      -5.650  13.621  21.992  0.00  0.00    +0.000 N 
ATOM     14  O   UNL     1      -6.519  14.070  22.793  0.00  0.00    +0.000 OA
ATOM     15  C   UNL     1      -5.865  13.640  20.623  0.00  0.00    +0.000 A 
ATOM     16  C   UNL     1      -4.919  13.140  19.723  0.00  0.00    +0.000 A 
ENDBRANCH   3  10
BRANCH   7  17
ATOM     17  C   UNL     1       0.978  11.053  18.687  0.00  0.00    +0.000 C 
BRANCH  17  18
ATOM     18  C   UNL     1       1.430   9.615  18.850  0.00  0.00    +0.000 A 
ATOM     19  C   UNL     1       2.151   8.964  17.838  0.00  0.00    +0.000 A 
ATOM     20  C   UNL     1       2.689   7.688  18.051  0.00  0.00    +0.000 A 
ATOM     21  C   UNL     1       2.515   7.037  19.279  0.00  0.00    +0.000 A 
ATOM     22  C   UNL     1       1.778   7.677  20.281  0.00  0.00    +0.000 A 
ATOM     23  C   UNL     1       1.204   8.934  20.054  0.00  0.00    +0.000 A 
BRANCH  21  24
ATOM     24  C   UNL     1       3.256   5.763  19.522  0.00  0.00    +0.000 C 
ATOM     25  O   UNL     1       4.484   5.833  19.569  0.00  0.00    +0.000 OA
ATOM     26  N   UNL     1       2.574   4.560  19.731  0.00  0.00    +0.000 N 
ATOM     27  C   UNL     1       3.310   3.422  20.284  0.00  0.00    +0.000 C 
ATOM     28  C   UNL     1       3.243   2.207  19.361  0.00  0.00    +0.000 C 
ATOM     29  C   UNL     1       1.798   1.865  19.007  0.00  0.00    +0.000 C 
ATOM     30  C   UNL     1       1.086   3.083  18.429  0.00  0.00    +0.000 C 
ATOM     31  C   UNL     1       1.186   4.285  19.364  0.00  0.00    +0.000 C 
ENDBRANCH  21  24
ENDBRANCH  17  18
ENDBRANCH   7  17
TORSDOF 4
ENDMDL
MODEL 2
REMARK VINA RESULT:      -8.1      1.412      1.733
REMARK  Name = 
REMARK  5 active torsions:
REMARK  status: ('A' for Active; 'I' for Inactive)
REMARK    1  A    between atoms: C_1  and  C_2
REMARK    2  A    between atoms: C_3  and  C_4
REMARK    3  A    between atoms: N_14  and  C_15
REMARK    4  A    between atoms: C_15  and  C_16
REMARK    5  A    between atoms: C_19  and  C_20
REMARK                            x       y       z     vdW  Elec       q    Type
REMARK                         _______ _______ _______ _____ _____    ______ ____
ROOT
ATOM      1  C   UNL     1      -3.715  11.215  18.727  0.00  0.00    +0.000 C 
ATOM      2  C   UNL     1      -2.319  11.619  19.027  0.00  0.00    +0.000 C 
ATOM      3  C   UNL     1      -1.859  12.463  19.964  0.00  0.00    +0.000 C 
ATOM      4  S   UNL     1      -0.142  12.571  19.945  0.00  0.00    +0.000 S 
ATOM      5  O   UNL     1       0.434  12.195  21.218  0.00  0.00    +0.000 OA
ATOM      6  O   UNL     1       0.277  13.769  19.244  0.00  0.00    +0.000 OA
ATOM      7  N   UNL     1       0.031  11.286  18.897  0.00  0.00    +0.000 N 
ATOM      8  C   UNL     1      -1.196  10.937  18.312  0.00  0.00    +0.000 C 
ATOM      9  O   UNL     1      -1.342  10.162  17.384  0.00  0.00    +0.000 OA
ENDROOT
BRANCH   3  10
ATOM     10  C   UNL     1      -2.519  13.156  21.056  0.00  0.00    +0.000 A 
ATOM     11  C   UNL     1      -2.894  12.426  22.191  0.00  0.00    +0.000 A 
ATOM     12  C   UNL     1      -3.571  13.053  23.235  0.00  0.00    +0.000 A 
ATOM     13  N   UNL     1      -3.905  14.392  23.174  0.00  0.00    +0.000 N 
ATOM     14  O   UNL     1      -4.531  14.948  24.123  0.00  0.00    +0.000 OA
ATOM     15  C   UNL     1      -3.547  15.105  22.042  0.00  0.00    +0.000 A 
ATOM     16  C   UNL     1      -2.863  14.505  20.980  0.00  0.00    +0.000 A 
ENDBRANCH   3  10
BRANCH   7  17
ATOM     17  C   UNL     1       1.355  10.828  18.531  0.00  0.00    +0.000 C 
BRANCH  17  18
ATOM     18  C   UNL     1       1.689   9.432  19.021  0.00  0.00    +0.000 A 
ATOM     19  C   UNL     1       1.267   8.989  20.284  0.00  0.00    +0.000 A 
ATOM     20  C   UNL     1       1.452   7.656  20.672  0.00  0.00    +0.000 A 
ATOM     21  C   UNL     1       2.067   6.741  19.807  0.00  0.00    +0.000 A 
ATOM     22  C   UNL     1       2.507   7.188  18.557  0.00  0.00    +0.000 A 
ATOM     23  C   UNL     1       2.360   8.530  18.185  0.00  0.00    +0.000 A 
BRANCH  21  24
ATOM     24  C   UNL     1       2.080   5.296  20.190  0.00  0.00    +0.000 C 
ATOM     25  O   UNL     1       2.280   5.037  21.376  0.00  0.00    +0.000 OA
ATOM     26  N   UNL     1       1.832   4.297  19.244  0.00  0.00    +0.000 N 
ATOM     27  C   UNL     1       1.532   2.943  19.714  0.00  0.00    +0.000 C 
ATOM     28  C   UNL     1       2.514   1.921  19.148  0.00  0.00    +0.000 C 
ATOM     29  C   UNL     1       2.592   2.017  17.626  0.00  0.00    +0.000 C 
ATOM     30  C   UNL     1       2.915   3.445  17.197  0.00  0.00    +0.000 C 
ATOM     31  C   UNL     1       1.929   4.445  17.793  0.00  0.00    +0.000 C 
ENDBRANCH  21  24
ENDBRANCH  17  18
ENDBRANCH   7  17
TORSDOF 4
ENDMDL
MODEL 3
REMARK VINA RESULT:      -8.1      1.111      1.155
REMARK  Name = 
REMARK  5 active torsions:
REMARK  status: ('A' for Active; 'I' for Inactive)
REMARK    1  A    between atoms: C_1  and  C_2
REMARK    2  A    between atoms: C_3  and  C_4
REMARK    3  A    between atoms: N_14  and  C_15
REMARK    4  A    between atoms: C_15  and  C_16
REMARK    5  A    between atoms: C_19  and  C_20
REMARK                            x       y       z     vdW  Elec       q    Type
REMARK                         _______ _______ _______ _____ _____    ______ ____
ROOT
ATOM      1  C   UNL     1      -4.001  11.348  18.518  0.00  0.00    +0.000 C 
ATOM      2  C   UNL     1      -2.747  11.922  19.065  0.00  0.00    +0.000 C 
ATOM      3  C   UNL     1      -2.577  12.780  20.084  0.00  0.00    +0.000 C 
ATOM      4  S   UNL     1      -0.914  13.118  20.368  0.00  0.00    +0.000 S 
ATOM      5  O   UNL     1      -0.517  12.768  21.715  0.00  0.00    +0.000 OA
ATOM      6  O   UNL     1      -0.552  14.390  19.774  0.00  0.00    +0.000 OA
ATOM      7  N   UNL     1      -0.387  11.913  19.343  0.00  0.00    +0.000 N 
ATOM      8  C   UNL     1      -1.435  11.428  18.546  0.00  0.00    +0.000 C 
ATOM      9  O   UNL     1      -1.310  10.681  17.593  0.00  0.00    +0.000 OA
ENDROOT
BRANCH   3  10
ATOM     10  C   UNL     1      -3.504  13.330  21.057  0.00  0.00    +0.000 A 
ATOM     11  C   UNL     1      -3.887  12.541  22.147  0.00  0.00    +0.000 A 
ATOM     12  C   UNL     1      -4.812  13.023  23.071  0.00  0.00    +0.000 A 
ATOM     13  N   UNL     1      -5.384  14.272  22.930  0.00  0.00    +0.000 N 
ATOM     14  O   UNL     1      -6.231  14.695  23.768  0.00  0.00    +0.000 OA
ATOM     15  C   UNL     1      -5.014  15.043  21.840  0.00  0.00    +0.000 A 
ATOM     16  C   UNL     1      -4.085  14.588  20.898  0.00  0.00    +0.000 A 
ENDBRANCH   3  10
BRANCH   7  17
ATOM     17  C   UNL     1       1.032  11.653  19.206  0.00  0.00    +0.000 C 
BRANCH  17  18
ATOM     18  C   UNL     1       1.383  10.187  19.040  0.00  0.00    +0.000 A 
ATOM     19  C   UNL     1       1.893   9.700  17.827  0.00  0.00    +0.000 A 
ATOM     20  C   UNL     1       2.350   8.379  17.724  0.00  0.00    +0.000 A 
ATOM     21  C   UNL     1       2.303   7.520  18.830  0.00  0.00    +0.000 A 
ATOM     22  C   UNL     1       1.775   8.001  20.033  0.00  0.00    +0.000 A 
ATOM     23  C   UNL     1       1.279   9.306  20.125  0.00  0.00    +0.000 A 
BRANCH  21  24
ATOM     24  C   UNL     1       2.964   6.184  18.724  0.00  0.00    +0.000 C 
ATOM     25  O   UNL     1       3.770   6.033  17.806  0.00  0.00    +0.000 OA
ATOM     26  N   UNL     1       2.705   5.175  19.657  0.00  0.00    +0.000 N 
ATOM     27  C   UNL     1       3.604   4.020  19.710  0.00  0.00    +0.000 C 
ATOM     28  C   UNL     1       2.849   2.711  19.492  0.00  0.00    +0.000 C 
ATOM     29  C   UNL     1       1.669   2.590  20.454  0.00  0.00    +0.000 C 
ATOM     30  C   UNL     1       0.766   3.814  20.347  0.00  0.00    +0.000 C 
ATOM     31  C   UNL     1       1.550   5.108  20.550  0.00  0.00    +0.000 C 
ENDBRANCH  21  24
ENDBRANCH  17  18
ENDBRANCH   7  17
TORSDOF 4
ENDMDL
MODEL 4
REMARK VINA RESULT:      -8.0      1.366      2.215
REMARK  Name = 
REMARK  5 active torsions:
REMARK  status: ('A' for Active; 'I' for Inactive)
REMARK    1  A    between atoms: C_1  and  C_2
REMARK    2  A    between atoms: C_3  and  C_4
REMARK    3  A    between atoms: N_14  and  C_15
REMARK    4  A    between atoms: C_15  and  C_16
REMARK    5  A    between atoms: C_19  and  C_20
REMARK                            x       y       z     vdW  Elec       q    Type
REMARK                         _______ _______ _______ _____ _____    ______ ____
ROOT
ATOM      1  C   UNL     1      -1.651  12.082  22.761  0.00  0.00    +0.000 C 
ATOM      2  C   UNL     1      -1.393  11.770  21.333  0.00  0.00    +0.000 C 
ATOM      3  C   UNL     1      -2.193  11.931  20.268  0.00  0.00    +0.000 C 
ATOM      4  S   UNL     1      -1.419  11.459  18.805  0.00  0.00    +0.000 S 
ATOM      5  O   UNL     1      -1.358  12.547  17.854  0.00  0.00    +0.000 OA
ATOM      6  O   UNL     1      -1.851  10.130  18.416  0.00  0.00    +0.000 OA
ATOM      7  N   UNL     1       0.078  11.313  19.523  0.00  0.00    +0.000 N 
ATOM      8  C   UNL     1      -0.024  11.329  20.923  0.00  0.00    +0.000 C 
ATOM      9  O   UNL     1       0.875  11.064  21.700  0.00  0.00    +0.000 OA
ENDROOT
BRANCH   3  10
ATOM     10  C   UNL     1      -3.494  12.559  20.115  0.00  0.00    +0.000 A 
ATOM     11  C   UNL     1      -4.473  11.907  19.357  0.00  0.00    +0.000 A 
ATOM     12  C   UNL     1      -5.715  12.506  19.152  0.00  0.00    +0.000 A 
ATOM     13  N   UNL     1      -6.006  13.753  19.671  0.00  0.00    +0.000 N 
ATOM     14  O   UNL     1      -7.132  14.292  19.470  0.00  0.00    +0.000 OA
ATOM     15  C   UNL     1      -5.027  14.400  20.407  0.00  0.00    +0.000 A 
ATOM     16  C   UNL     1      -3.773  13.823  20.632  0.00  0.00    +0.000 A 
ENDBRANCH   3  10
BRANCH   7  17
ATOM     17  C   UNL     1       1.234  10.976  18.717  0.00  0.00    +0.000 C 
BRANCH  17  18
ATOM     18  C   UNL     1       1.648   9.519  18.801  0.00  0.00    +0.000 A 
ATOM     19  C   UNL     1       2.359   8.909  17.758  0.00  0.00    +0.000 A 
ATOM     20  C   UNL     1       2.863   7.609  17.901  0.00  0.00    +0.000 A 
ATOM     21  C   UNL     1       2.664   6.895  19.089  0.00  0.00    +0.000 A 
ATOM     22  C   UNL     1       1.937   7.496  20.122  0.00  0.00    +0.000 A 
ATOM     23  C   UNL     1       1.396   8.778  19.964  0.00  0.00    +0.000 A 
BRANCH  21  24
ATOM     24  C   UNL     1       3.371   5.590  19.264  0.00  0.00    +0.000 C 
ATOM     25  O   UNL     1       4.598   5.605  19.178  0.00  0.00    +0.000 OA
ATOM     26  N   UNL     1       2.663   4.420  19.556  0.00  0.00    +0.000 N 
ATOM     27  C   UNL     1       3.404   3.252  20.038  0.00  0.00    +0.000 C 
ATOM     28  C   UNL     1       3.185   2.037  19.139  0.00  0.00    +0.000 C 
ATOM     29  C   UNL     1       1.697   1.758  18.946  0.00  0.00    +0.000 C 
ATOM     30  C   UNL     1       0.981   3.004  18.436  0.00  0.00    +0.000 C 
ATOM     31  C   UNL     1       1.233   4.205  19.343  0.00  0.00    +0.000 C 
ENDBRANCH  21  24
ENDBRANCH  17  18
ENDBRANCH   7  17
TORSDOF 4
ENDMDL
MODEL 5
REMARK VINA RESULT:      -8.0      2.989      3.762
REMARK  Name = 
REMARK  5 active torsions:
REMARK  status: ('A' for Active; 'I' for Inactive)
REMARK    1  A    between atoms: C_1  and  C_2
REMARK    2  A    between atoms: C_3  and  C_4
REMARK    3  A    between atoms: N_14  and  C_15
REMARK    4  A    between atoms: C_15  and  C_16
REMARK    5  A    between atoms: C_19  and  C_20
REMARK                            x       y       z     vdW  Elec       q    Type
REMARK                         _______ _______ _______ _____ _____    ______ ____
ROOT
ATOM      1  C   UNL     1       2.777  14.667  18.962  0.00  0.00    +0.000 C 
ATOM      2  C   UNL     1       1.789  13.659  19.418  0.00  0.00    +0.000 C 
ATOM      3  C   UNL     1       0.811  13.776  20.331  0.00  0.00    +0.000 C 
ATOM      4  S   UNL     1      -0.106  12.328  20.479  0.00  0.00    +0.000 S 
ATOM      5  O   UNL     1      -1.508  12.548  20.198  0.00  0.00    +0.000 OA
ATOM      6  O   UNL     1       0.328  11.576  21.640  0.00  0.00    +0.000 OA
ATOM      7  N   UNL     1       0.588  11.627  19.135  0.00  0.00    +0.000 N 
ATOM      8  C   UNL     1       1.725  12.338  18.721  0.00  0.00    +0.000 C 
ATOM      9  O   UNL     1       2.528  11.962  17.885  0.00  0.00    +0.000 OA
ENDROOT
BRANCH   3  10
ATOM     10  C   UNL     1       0.307  14.917  21.074  0.00  0.00    +0.000 A 
ATOM     11  C   UNL     1      -0.366  15.930  20.383  0.00  0.00    +0.000 A 
ATOM     12  C   UNL     1      -0.819  17.060  21.061  0.00  0.00    +0.000 A 
ATOM     13  N   UNL     1      -0.604  17.220  22.416  0.00  0.00    +0.000 N 
ATOM     14  O   UNL     1      -1.010  18.255  23.019  0.00  0.00    +0.000 OA
ATOM     15  C   UNL     1       0.077  16.221  23.092  0.00  0.00    +0.000 A 
ATOM     16  C   UNL     1       0.541  15.074  22.440  0.00  0.00    +0.000 A 
ENDBRANCH   3  10
BRANCH   7  17
ATOM     17  C   UNL     1       0.138  10.325  18.687  0.00  0.00    +0.000 C 
BRANCH  17  18
ATOM     18  C   UNL     1       1.134   9.206  18.924  0.00  0.00    +0.000 A 
ATOM     19  C   UNL     1       1.236   8.583  20.176  0.00  0.00    +0.000 A 
ATOM     20  C   UNL     1       2.052   7.457  20.350  0.00  0.00    +0.000 A 
ATOM     21  C   UNL     1       2.784   6.935  19.275  0.00  0.00    +0.000 A 
ATOM     22  C   UNL     1       2.699   7.570  18.031  0.00  0.00    +0.000 A 
ATOM     23  C   UNL     1       1.917   8.720  17.868  0.00  0.00    +0.000 A 
BRANCH  21  24
ATOM     24  C   UNL     1       3.496   5.634  19.461  0.00  0.00    +0.000 C 
ATOM     25  O   UNL     1       4.726   5.672  19.491  0.00  0.00    +0.000 OA
ATOM     26  N   UNL     1       2.785   4.443  19.636  0.00  0.00    +0.000 N 
ATOM     27  C   UNL     1       3.500   3.266  20.137  0.00  0.00    +0.000 C 
ATOM     28  C   UNL     1       3.388   2.088  19.172  0.00  0.00    +0.000 C 
ATOM     29  C   UNL     1       1.930   1.796  18.827  0.00  0.00    +0.000 C 
ATOM     30  C   UNL     1       1.242   3.053  18.304  0.00  0.00    +0.000 C 
ATOM     31  C   UNL     1       1.386   4.217  19.280  0.00  0.00    +0.000 C 
ENDBRANCH  21  24
ENDBRANCH  17  18
ENDBRANCH   7  17
TORSDOF 4
ENDMDL
MODEL 6
REMARK VINA RESULT:      -7.9      1.942      2.404
REMARK  Name = 
REMARK  5 active torsions:
REMARK  status: ('A' for Active; 'I' for Inactive)
REMARK    1  A    between atoms: C_1  and  C_2
REMARK    2  A    between atoms: C_3  and  C_4
REMARK    3  A    between atoms: N_14  and  C_15
REMARK    4  A    between atoms: C_15  and  C_16
REMARK    5  A    between atoms: C_19  and  C_20
REMARK                            x       y       z     vdW  Elec       q    Type
REMARK                         _______ _______ _______ _____ _____    ______ ____
ROOT
ATOM      1  C   UNL     1      -3.432  11.930  19.242  0.00  0.00    +0.000 C 
ATOM      2  C   UNL     1      -1.967  12.141  19.346  0.00  0.00    +0.000 C 
ATOM      3  C   UNL     1      -1.275  12.899  20.211  0.00  0.00    +0.000 C 
ATOM      4  S   UNL     1       0.422  12.780  19.954  0.00  0.00    +0.000 S 
ATOM      5  O   UNL     1       1.112  12.307  21.134  0.00  0.00    +0.000 OA
ATOM      6  O   UNL     1       0.897  13.926  19.203  0.00  0.00    +0.000 OA
ATOM      7  N   UNL     1       0.277  11.504  18.892  0.00  0.00    +0.000 N 
ATOM      8  C   UNL     1      -1.054  11.331  18.482  0.00  0.00    +0.000 C 
ATOM      9  O   UNL     1      -1.427  10.600  17.582  0.00  0.00    +0.000 OA
ENDROOT
BRANCH   3  10
ATOM     10  C   UNL     1      -1.681  13.651  21.385  0.00  0.00    +0.000 A 
ATOM     11  C   UNL     1      -1.623  15.049  21.344  0.00  0.00    +0.000 A 
ATOM     12  C   UNL     1      -1.961  15.798  22.470  0.00  0.00    +0.000 A 
ATOM     13  N   UNL     1      -2.340  15.189  23.651  0.00  0.00    +0.000 N 
ATOM     14  O   UNL     1      -2.633  15.878  24.670  0.00  0.00    +0.000 OA
ATOM     15  C   UNL     1      -2.380  13.805  23.690  0.00  0.00    +0.000 A 
ATOM     16  C   UNL     1      -2.051  13.027  22.575  0.00  0.00    +0.000 A 
ENDBRANCH   3  10
BRANCH   7  17
ATOM     17  C   UNL     1       1.466  10.883  18.345  0.00  0.00    +0.000 C 
BRANCH  17  18
ATOM     18  C   UNL     1       1.750   9.496  18.889  0.00  0.00    +0.000 A 
ATOM     19  C   UNL     1       1.240   9.088  20.130  0.00  0.00    +0.000 A 
ATOM     20  C   UNL     1       1.384   7.763  20.561  0.00  0.00    +0.000 A 
ATOM     21  C   UNL     1       2.043   6.821  19.761  0.00  0.00    +0.000 A 
ATOM     22  C   UNL     1       2.571   7.233  18.532  0.00  0.00    +0.000 A 
ATOM     23  C   UNL     1       2.465   8.567  18.120  0.00  0.00    +0.000 A 
BRANCH  21  24
ATOM     24  C   UNL     1       2.014   5.386  20.177  0.00  0.00    +0.000 C 
ATOM     25  O   UNL     1       2.227   5.146  21.366  0.00  0.00    +0.000 OA
ATOM     26  N   UNL     1       1.715   4.374  19.259  0.00  0.00    +0.000 N 
ATOM     27  C   UNL     1       1.377   3.043  19.767  0.00  0.00    +0.000 C 
ATOM     28  C   UNL     1       2.313   1.974  19.207  0.00  0.00    +0.000 C 
ATOM     29  C   UNL     1       2.366   2.033  17.683  0.00  0.00    +0.000 C 
ATOM     30  C   UNL     1       2.730   3.438  17.214  0.00  0.00    +0.000 C 
ATOM     31  C   UNL     1       1.790   4.486  17.803  0.00  0.00    +0.000 C 
ENDBRANCH  21  24
ENDBRANCH  17  18
ENDBRANCH   7  17
TORSDOF 4
ENDMDL
MODEL 7
REMARK VINA RESULT:      -7.9      1.843      2.689
REMARK  Name = 
REMARK  5 active torsions:
REMARK  status: ('A' for Active; 'I' for Inactive)
REMARK    1  A    between atoms: C_1  and  C_2
REMARK    2  A    between atoms: C_3  and  C_4
REMARK    3  A    between atoms: N_14  and  C_15
REMARK    4  A    between atoms: C_15  and  C_16
REMARK    5  A    between atoms: C_19  and  C_20
REMARK                            x       y       z     vdW  Elec       q    Type
REMARK                         _______ _______ _______ _____ _____    ______ ____
ROOT
ATOM      1  C   UNL     1      -3.293  12.091  23.679  0.00  0.00    +0.000 C 
ATOM      2  C   UNL     1      -2.533  12.137  22.406  0.00  0.00    +0.000 C 
ATOM      3  C   UNL     1      -2.902  12.627  21.211  0.00  0.00    +0.000 C 
ATOM      4  S   UNL     1      -1.645  12.487  20.044  0.00  0.00    +0.000 S 
ATOM      5  O   UNL     1      -1.269  13.775  19.502  0.00  0.00    +0.000 OA
ATOM      6  O   UNL     1      -1.880  11.341  19.188  0.00  0.00    +0.000 OA
ATOM      7  N   UNL     1      -0.502  12.048  21.175  0.00  0.00    +0.000 N 
ATOM      8  C   UNL     1      -1.100  11.712  22.400  0.00  0.00    +0.000 C 
ATOM      9  O   UNL     1      -0.534  11.188  23.342  0.00  0.00    +0.000 OA
ENDROOT
BRANCH   3  10
ATOM     10  C   UNL     1      -4.073  13.371  20.785  0.00  0.00    +0.000 A 
ATOM     11  C   UNL     1      -5.044  12.719  20.015  0.00  0.00    +0.000 A 
ATOM     12  C   UNL     1      -6.157  13.418  19.551  0.00  0.00    +0.000 A 
ATOM     13  N   UNL     1      -6.323  14.763  19.819  0.00  0.00    +0.000 N 
ATOM     14  O   UNL     1      -7.331  15.391  19.383  0.00  0.00    +0.000 OA
ATOM     15  C   UNL     1      -5.351  15.407  20.567  0.00  0.00    +0.000 A 
ATOM     16  C   UNL     1      -4.226  14.731  21.050  0.00  0.00    +0.000 A 
ENDBRANCH   3  10
BRANCH   7  17
ATOM     17  C   UNL     1       0.873  11.840  20.768  0.00  0.00    +0.000 C 
BRANCH  17  18
ATOM     18  C   UNL     1       1.156  10.458  20.211  0.00  0.00    +0.000 A 
ATOM     19  C   UNL     1       1.472  10.276  18.856  0.00  0.00    +0.000 A 
ATOM     20  C   UNL     1       1.873   9.022  18.378  0.00  0.00    +0.000 A 
ATOM     21  C   UNL     1       1.962   7.924  19.245  0.00  0.00    +0.000 A 
ATOM     22  C   UNL     1       1.627   8.101  20.592  0.00  0.00    +0.000 A 
ATOM     23  C   UNL     1       1.185   9.344  21.061  0.00  0.00    +0.000 A 
BRANCH  21  24
ATOM     24  C   UNL     1       2.564   6.657  18.732  0.00  0.00    +0.000 C 
ATOM     25  O   UNL     1       3.093   6.701  17.621  0.00  0.00    +0.000 OA
ATOM     26  N   UNL     1       2.560   5.492  19.505  0.00  0.00    +0.000 N 
ATOM     27  C   UNL     1       3.435   4.385  19.111  0.00  0.00    +0.000 C 
ATOM     28  C   UNL     1       2.644   3.101  18.872  0.00  0.00    +0.000 C 
ATOM     29  C   UNL     1       1.765   2.765  20.074  0.00  0.00    +0.000 C 
ATOM     30  C   UNL     1       0.872   3.949  20.431  0.00  0.00    +0.000 C 
ATOM     31  C   UNL     1       1.688   5.221  20.646  0.00  0.00    +0.000 C 
ENDBRANCH  21  24
ENDBRANCH  17  18
ENDBRANCH   7  17
TORSDOF 4
ENDMDL
MODEL 8
REMARK VINA RESULT:      -7.8      2.398     10.028
REMARK  Name = 
REMARK  5 active torsions:
REMARK  status: ('A' for Active; 'I' for Inactive)
REMARK    1  A    between atoms: C_1  and  C_2
REMARK    2  A    between atoms: C_3  and  C_4
REMARK    3  A    between atoms: N_14  and  C_15
REMARK    4  A    between atoms: C_15  and  C_16
REMARK    5  A    between atoms: C_19  and  C_20
REMARK                            x       y       z     vdW  Elec       q    Type
REMARK                         _______ _______ _______ _____ _____    ______ ____
ROOT
ATOM      1  C   UNL     1       1.805   9.090  17.535  0.00  0.00    +0.000 C 
ATOM      2  C   UNL     1       1.383   9.288  18.944  0.00  0.00    +0.000 C 
ATOM      3  C   UNL     1       1.419   8.427  19.974  0.00  0.00    +0.000 C 
ATOM      4  S   UNL     1       0.857   9.145  21.432  0.00  0.00    +0.000 S 
ATOM      5  O   UNL     1       1.861   9.106  22.473  0.00  0.00    +0.000 OA
ATOM      6  O   UNL     1      -0.517   8.755  21.685  0.00  0.00    +0.000 OA
ATOM      7  N   UNL     1       0.835  10.682  20.789  0.00  0.00    +0.000 N 
ATOM      8  C   UNL     1       0.966  10.652  19.392  0.00  0.00    +0.000 C 
ATOM      9  O   UNL     1       0.806  11.602  18.646  0.00  0.00    +0.000 OA
ENDROOT
BRANCH   3  10
ATOM     10  C   UNL     1       1.977   7.092  20.105  0.00  0.00    +0.000 A 
ATOM     11  C   UNL     1       3.110   6.757  19.355  0.00  0.00    +0.000 A 
ATOM     12  C   UNL     1       3.640   5.470  19.424  0.00  0.00    +0.000 A 
ATOM     13  N   UNL     1       3.059   4.494  20.211  0.00  0.00    +0.000 N 
ATOM     14  O   UNL     1       3.542   3.326  20.257  0.00  0.00    +0.000 OA
ATOM     15  C   UNL     1       1.929   4.828  20.938  0.00  0.00    +0.000 A 
ATOM     16  C   UNL     1       1.376   6.111  20.893  0.00  0.00    +0.000 A 
ENDBRANCH   3  10
BRANCH   7  17
ATOM     17  C   UNL     1       0.478  11.810  21.626  0.00  0.00    +0.000 C 
BRANCH  17  18
ATOM     18  C   UNL     1      -1.013  11.984  21.834  0.00  0.00    +0.000 A 
ATOM     19  C   UNL     1      -1.598  11.769  23.091  0.00  0.00    +0.000 A 
ATOM     20  C   UNL     1      -2.949  12.070  23.312  0.00  0.00    +0.000 A 
ATOM     21  C   UNL     1      -3.741  12.589  22.280  0.00  0.00    +0.000 A 
ATOM     22  C   UNL     1      -3.163  12.784  21.021  0.00  0.00    +0.000 A 
ATOM     23  C   UNL     1      -1.825  12.443  20.788  0.00  0.00    +0.000 A 
BRANCH  21  24
ATOM     24  C   UNL     1      -5.120  13.062  22.608  0.00  0.00    +0.000 C 
ATOM     25  O   UNL     1      -6.051  12.314  22.310  0.00  0.00    +0.000 OA
ATOM     26  N   UNL     1      -5.328  14.280  23.264  0.00  0.00    +0.000 N 
ATOM     27  C   UNL     1      -6.642  14.545  23.852  0.00  0.00    +0.000 C 
ATOM     28  C   UNL     1      -7.262  15.822  23.288  0.00  0.00    +0.000 C 
ATOM     29  C   UNL     1      -6.303  17.003  23.419  0.00  0.00    +0.000 C 
ATOM     30  C   UNL     1      -4.957  16.671  22.783  0.00  0.00    +0.000 C 
ATOM     31  C   UNL     1      -4.371  15.382  23.351  0.00  0.00    +0.000 C 
ENDBRANCH  21  24
ENDBRANCH  17  18
ENDBRANCH   7  17
TORSDOF 4
ENDMDL
MODEL 9
REMARK VINA RESULT:      -7.8      3.299      4.800
REMARK  Name = 
REMARK  5 active torsions:
REMARK  status: ('A' for Active; 'I' for Inactive)
REMARK    1  A    between atoms: C_1  and  C_2
REMARK    2  A    between atoms: C_3  and  C_4
REMARK    3  A    between atoms: N_14  and  C_15
REMARK    4  A    between atoms: C_15  and  C_16
REMARK    5  A    between atoms: C_19  and  C_20
REMARK                            x       y       z     vdW  Elec       q    Type
REMARK                         _______ _______ _______ _____ _____    ______ ____
ROOT
ATOM      1  C   UNL     1      -0.345  14.200  22.712  0.00  0.00    +0.000 C 
ATOM      2  C   UNL     1      -0.168  13.691  21.329  0.00  0.00    +0.000 C 
ATOM      3  C   UNL     1       0.577  14.186  20.328  0.00  0.00    +0.000 C 
ATOM      4  S   UNL     1       0.488  13.206  18.916  0.00  0.00    +0.000 S 
ATOM      5  O   UNL     1       1.792  12.727  18.511  0.00  0.00    +0.000 OA
ATOM      6  O   UNL     1      -0.441  13.782  17.964  0.00  0.00    +0.000 OA
ATOM      7  N   UNL     1      -0.299  11.964  19.702  0.00  0.00    +0.000 N 
ATOM      8  C   UNL     1      -0.771  12.374  20.958  0.00  0.00    +0.000 C 
ATOM      9  O   UNL     1      -1.529  11.740  21.670  0.00  0.00    +0.000 OA
ENDROOT
BRANCH   3  10
ATOM     10  C   UNL     1       1.535  15.275  20.276  0.00  0.00    +0.000 A 
ATOM     11  C   UNL     1       2.778  15.112  20.898  0.00  0.00    +0.000 A 
ATOM     12  C   UNL     1       3.701  16.157  20.907  0.00  0.00    +0.000 A 
ATOM     13  N   UNL     1       3.411  17.375  20.325  0.00  0.00    +0.000 N 
ATOM     14  O   UNL     1       4.251  18.321  20.348  0.00  0.00    +0.000 OA
ATOM     15  C   UNL     1       2.173  17.537  19.725  0.00  0.00    +0.000 A 
ATOM     16  C   UNL     1       1.229  16.506  19.697  0.00  0.00    +0.000 A 
ENDBRANCH   3  10
BRANCH   7  17
ATOM     17  C   UNL     1      -0.609  10.742  18.988  0.00  0.00    +0.000 C 
BRANCH  17  18
ATOM     18  C   UNL     1       0.487   9.695  19.041  0.00  0.00    +0.000 A 
ATOM     19  C   UNL     1       0.806   9.042  20.240  0.00  0.00    +0.000 A 
ATOM     20  C   UNL     1       1.717   7.977  20.254  0.00  0.00    +0.000 A 
ATOM     21  C   UNL     1       2.327   7.546  19.069  0.00  0.00    +0.000 A 
ATOM     22  C   UNL     1       2.023   8.210  17.876  0.00  0.00    +0.000 A 
ATOM     23  C   UNL     1       1.147   9.302  17.868  0.00  0.00    +0.000 A 
BRANCH  21  24
ATOM     24  C   UNL     1       3.147   6.297  19.102  0.00  0.00    +0.000 C 
ATOM     25  O   UNL     1       4.170   6.285  18.418  0.00  0.00    +0.000 OA
ATOM     26  N   UNL     1       2.784   5.217  19.912  0.00  0.00    +0.000 N 
ATOM     27  C   UNL     1       3.771   4.165  20.165  0.00  0.00    +0.000 C 
ATOM     28  C   UNL     1       3.257   2.795  19.728  0.00  0.00    +0.000 C 
ATOM     29  C   UNL     1       1.896   2.495  20.352  0.00  0.00    +0.000 C 
ATOM     30  C   UNL     1       0.910   3.618  20.049  0.00  0.00    +0.000 C 
ATOM     31  C   UNL     1       1.458   4.975  20.478  0.00  0.00    +0.000 C 
ENDBRANCH  21  24
ENDBRANCH  17  18
ENDBRANCH   7  17
TORSDOF 4
ENDMDL
