MODEL 1
REMARK VINA RESULT:      -8.0      0.000      0.000
REMARK  Name = 
REMARK  5 active torsions:
REMARK  status: ('A' for Active; 'I' for Inactive)
REMARK    1  A    between atoms: C_1  and  C_2
REMARK    2  A    between atoms: C_2  and  C_3
REMARK    3  A    between atoms: C_2  and  C_4
REMARK    4  A    between atoms: C_7  and  C_8
REMARK    5  A    between atoms: C_10  and  S_11
REMARK                            x       y       z     vdW  Elec       q    Type
REMARK                         _______ _______ _______ _____ _____    ______ ____
ROOT
ATOM      1  C   UNL     1       5.161   4.933  18.338  0.00  0.00    +0.000 C 
ATOM      2  N   UNL     1       5.489   3.706  19.054  0.00  0.00    +0.000 N 
ATOM      3  C   UNL     1       4.539   2.989  19.722  0.00  0.00    +0.000 C 
ATOM      4  N   UNL     1       3.352   3.398  20.031  0.00  0.00    +0.000 NA
ATOM      5  C   UNL     1       3.066   4.649  19.584  0.00  0.00    +0.000 C 
ATOM      6  C   UNL     1       3.783   5.372  18.703  0.00  0.00    +0.000 C 
ATOM      7  C   UNL     1       3.165   6.682  18.537  0.00  0.00    +0.000 A 
ATOM      8  C   UNL     1       3.354   7.715  17.636  0.00  0.00    +0.000 A 
ATOM      9  C   UNL     1       2.615   8.900  17.811  0.00  0.00    +0.000 A 
ATOM     10  C   UNL     1       1.736   9.061  18.898  0.00  0.00    +0.000 A 
ATOM     11  C   UNL     1       1.507   8.002  19.771  0.00  0.00    +0.000 A 
ATOM     12  C   UNL     1       2.190   6.828  19.522  0.00  0.00    +0.000 A 
ATOM     13  C   UNL     1       2.038   5.534  20.188  0.00  0.00    +0.000 C 
ATOM     14  O   UNL     1       1.247   5.290  21.070  0.00  0.00    +0.000 OA
ATOM     15  H   UNL     1       6.307   3.213  18.718  0.00  0.00    +0.000 HD
ENDROOT
BRANCH   1  19
ATOM     16  C   UNL     1       6.322   4.101  14.245  0.00  0.00    +0.000 A 
ATOM     17  C   UNL     1       5.055   3.722  14.712  0.00  0.00    +0.000 A 
ATOM     18  C   UNL     1       4.644   4.039  16.010  0.00  0.00    +0.000 A 
ATOM     19  C   UNL     1       5.500   4.734  16.881  0.00  0.00    +0.000 A 
ATOM     20  C   UNL     1       6.761   5.122  16.405  0.00  0.00    +0.000 A 
ATOM     21  C   UNL     1       7.168   4.809  15.108  0.00  0.00    +0.000 A 
BRANCH  16  23
ATOM     22  C   UNL     1       5.560   3.258  12.004  0.00  0.00    +0.000 C 
ATOM     23  C   UNL     1       6.751   3.745  12.833  0.00  0.00    +0.000 C 
ATOM     24  C   UNL     1       7.456   4.917  12.144  0.00  0.00    +0.000 C 
ENDBRANCH  16  23
ENDBRANCH   1  19
BRANCH   3  25
ATOM     25  S   UNL     1       4.971   1.362  20.192  0.00  0.00    +0.000 S 
ATOM     26  H   UNL     1       5.594   1.004  19.067  0.00  0.00    +0.000 HD
ENDBRANCH   3  25
TORSDOF 3
ENDMDL
MODEL 2
REMARK VINA RESULT:      -8.0      0.309      1.031
REMARK  Name = 
REMARK  5 active torsions:
REMARK  status: ('A' for Active; 'I' for Inactive)
REMARK    1  A    between atoms: C_1  and  C_2
REMARK    2  A    between atoms: C_2  and  C_3
REMARK    3  A    between atoms: C_2  and  C_4
REMARK    4  A    between atoms: C_7  and  C_8
REMARK    5  A    between atoms: C_10  and  S_11
REMARK                            x       y       z     vdW  Elec       q    Type
REMARK                         _______ _______ _______ _____ _____    ______ ____
ROOT
ATOM      1  C   UNL     1       5.295   4.720  18.510  0.00  0.00    +0.000 C 
ATOM      2  N   UNL     1       5.543   3.545  19.337  0.00  0.00    +0.000 N 
ATOM      3  C   UNL     1       4.530   2.896  19.984  0.00  0.00    +0.000 C 
ATOM      4  N   UNL     1       3.334   3.348  20.174  0.00  0.00    +0.000 NA
ATOM      5  C   UNL     1       3.109   4.567  19.615  0.00  0.00    +0.000 C 
ATOM      6  C   UNL     1       3.905   5.208  18.739  0.00  0.00    +0.000 C 
ATOM      7  C   UNL     1       3.331   6.513  18.431  0.00  0.00    +0.000 A 
ATOM      8  C   UNL     1       3.607   7.471  17.473  0.00  0.00    +0.000 A 
ATOM      9  C   UNL     1       2.885   8.679  17.504  0.00  0.00    +0.000 A 
ATOM     10  C   UNL     1       1.934   8.936  18.509  0.00  0.00    +0.000 A 
ATOM     11  C   UNL     1       1.619   7.951  19.439  0.00  0.00    +0.000 A 
ATOM     12  C   UNL     1       2.291   6.750  19.329  0.00  0.00    +0.000 A 
ATOM     13  C   UNL     1       2.062   5.513  20.075  0.00  0.00    +0.000 C 
ATOM     14  O   UNL     1       1.204   5.350  20.912  0.00  0.00    +0.000 OA
ATOM     15  H   UNL     1       6.371   3.014  19.100  0.00  0.00    +0.000 HD
ENDROOT
BRANCH   1  19
ATOM     16  C   UNL     1       6.371   4.078  14.360  0.00  0.00    +0.000 A 
ATOM     17  C   UNL     1       7.282   4.680  15.241  0.00  0.00    +0.000 A 
ATOM     18  C   UNL     1       6.972   4.837  16.596  0.00  0.00    +0.000 A 
ATOM     19  C   UNL     1       5.733   4.405  17.101  0.00  0.00    +0.000 A 
ATOM     20  C   UNL     1       4.832   3.793  16.217  0.00  0.00    +0.000 A 
ATOM     21  C   UNL     1       5.145   3.632  14.866  0.00  0.00    +0.000 A 
BRANCH  16  23
ATOM     22  C   UNL     1       5.477   3.627  12.056  0.00  0.00    +0.000 C 
ATOM     23  C   UNL     1       6.725   3.919  12.892  0.00  0.00    +0.000 C 
ATOM     24  C   UNL     1       7.472   5.143  12.354  0.00  0.00    +0.000 C 
ENDBRANCH  16  23
ENDBRANCH   1  19
BRANCH   3  25
ATOM     25  S   UNL     1       4.890   1.303  20.604  0.00  0.00    +0.000 S 
ATOM     26  H   UNL     1       6.189   1.273  20.295  0.00  0.00    +0.000 HD
ENDBRANCH   3  25
TORSDOF 3
ENDMDL
MODEL 3
REMARK VINA RESULT:      -7.8      5.824      8.615
REMARK  Name = 
REMARK  5 active torsions:
REMARK  status: ('A' for Active; 'I' for Inactive)
REMARK    1  A    between atoms: C_1  and  C_2
REMARK    2  A    between atoms: C_2  and  C_3
REMARK    3  A    between atoms: C_2  and  C_4
REMARK    4  A    between atoms: C_7  and  C_8
REMARK    5  A    between atoms: C_10  and  S_11
REMARK                            x       y       z     vdW  Elec       q    Type
REMARK                         _______ _______ _______ _____ _____    ______ ____
ROOT
ATOM      1  C   UNL     1      -0.216  11.436  19.111  0.00  0.00    +0.000 C 
ATOM      2  N   UNL     1      -0.039  12.285  20.283  0.00  0.00    +0.000 N 
ATOM      3  C   UNL     1      -1.083  12.603  21.105  0.00  0.00    +0.000 C 
ATOM      4  N   UNL     1      -2.338  12.441  20.840  0.00  0.00    +0.000 NA
ATOM      5  C   UNL     1      -2.577  11.856  19.636  0.00  0.00    +0.000 C 
ATOM      6  C   UNL     1      -1.672  11.257  18.840  0.00  0.00    +0.000 C 
ATOM      7  C   UNL     1      -2.326  10.811  17.615  0.00  0.00    +0.000 A 
ATOM      8  C   UNL     1      -1.938   9.986  16.575  0.00  0.00    +0.000 A 
ATOM      9  C   UNL     1      -2.815   9.821  15.487  0.00  0.00    +0.000 A 
ATOM     10  C   UNL     1      -4.041  10.509  15.424  0.00  0.00    +0.000 A 
ATOM     11  C   UNL     1      -4.454  11.295  16.494  0.00  0.00    +0.000 A 
ATOM     12  C   UNL     1      -3.603  11.371  17.580  0.00  0.00    +0.000 A 
ATOM     13  C   UNL     1      -3.844  12.004  18.876  0.00  0.00    +0.000 C 
ATOM     14  O   UNL     1      -4.870  12.553  19.206  0.00  0.00    +0.000 OA
ATOM     15  H   UNL     1       0.894  12.293  20.676  0.00  0.00    +0.000 HD
ENDROOT
BRANCH   1  19
ATOM     16  C   UNL     1       1.990   7.733  19.571  0.00  0.00    +0.000 A 
ATOM     17  C   UNL     1       2.008   8.420  18.348  0.00  0.00    +0.000 A 
ATOM     18  C   UNL     1       1.352   9.646  18.204  0.00  0.00    +0.000 A 
ATOM     19  C   UNL     1       0.648  10.211  19.281  0.00  0.00    +0.000 A 
ATOM     20  C   UNL     1       0.644   9.526  20.505  0.00  0.00    +0.000 A 
ATOM     21  C   UNL     1       1.303   8.305  20.649  0.00  0.00    +0.000 A 
BRANCH  16  23
ATOM     22  C   UNL     1       1.871   5.410  20.521  0.00  0.00    +0.000 C 
ATOM     23  C   UNL     1       2.706   6.401  19.707  0.00  0.00    +0.000 C 
ATOM     24  C   UNL     1       3.075   5.815  18.341  0.00  0.00    +0.000 C 
ENDBRANCH  16  23
ENDBRANCH   1  19
BRANCH   3  25
ATOM     25  S   UNL     1      -0.676  13.281  22.663  0.00  0.00    +0.000 S 
ATOM     26  H   UNL     1       0.632  13.453  22.454  0.00  0.00    +0.000 HD
ENDBRANCH   3  25
TORSDOF 3
ENDMDL
MODEL 4
REMARK VINA RESULT:      -7.6      5.452      8.115
REMARK  Name = 
REMARK  5 active torsions:
REMARK  status: ('A' for Active; 'I' for Inactive)
REMARK    1  A    between atoms: C_1  and  C_2
REMARK    2  A    between atoms: C_2  and  C_3
REMARK    3  A    between atoms: C_2  and  C_4
REMARK    4  A    between atoms: C_7  and  C_8
REMARK    5  A    between atoms: C_10  and  S_11
REMARK                            x       y       z     vdW  Elec       q    Type
REMARK                         _______ _______ _______ _____ _____    ______ ____
ROOT
ATOM      1  C   UNL     1       0.848  11.181  18.664  0.00  0.00    +0.000 C 
ATOM      2  N   UNL     1       1.776  12.178  19.184  0.00  0.00    +0.000 N 
ATOM      3  C   UNL     1       1.426  13.028  20.193  0.00  0.00    +0.000 C 
ATOM      4  N   UNL     1       0.227  13.250  20.621  0.00  0.00    +0.000 NA
ATOM      5  C   UNL     1      -0.727  12.507  20.000  0.00  0.00    +0.000 C 
ATOM      6  C   UNL     1      -0.522  11.455  19.185  0.00  0.00    +0.000 C 
ATOM      7  C   UNL     1      -1.805  10.976  18.684  0.00  0.00    +0.000 A 
ATOM      8  C   UNL     1      -2.194   9.839  17.999  0.00  0.00    +0.000 A 
ATOM      9  C   UNL     1      -3.538   9.724  17.598  0.00  0.00    +0.000 A 
ATOM     10  C   UNL     1      -4.465  10.756  17.841  0.00  0.00    +0.000 A 
ATOM     11  C   UNL     1      -4.085  11.874  18.576  0.00  0.00    +0.000 A 
ATOM     12  C   UNL     1      -2.779  11.915  19.021  0.00  0.00    +0.000 A 
ATOM     13  C   UNL     1      -2.159  12.891  19.918  0.00  0.00    +0.000 C 
ATOM     14  O   UNL     1      -2.727  13.824  20.436  0.00  0.00    +0.000 OA
ATOM     15  H   UNL     1       2.758  11.959  19.067  0.00  0.00    +0.000 HD
ENDROOT
BRANCH   1  19
ATOM     16  C   UNL     1       2.270   7.129  19.256  0.00  0.00    +0.000 A 
ATOM     17  C   UNL     1       2.465   7.774  18.025  0.00  0.00    +0.000 A 
ATOM     18  C   UNL     1       2.067   9.102  17.841  0.00  0.00    +0.000 A 
ATOM     19  C   UNL     1       1.450   9.815  18.882  0.00  0.00    +0.000 A 
ATOM     20  C   UNL     1       1.269   9.169  20.115  0.00  0.00    +0.000 A 
ATOM     21  C   UNL     1       1.671   7.846  20.299  0.00  0.00    +0.000 A 
BRANCH  16  23
ATOM     22  C   UNL     1       1.901   5.004  20.544  0.00  0.00    +0.000 C 
ATOM     23  C   UNL     1       2.707   5.687  19.436  0.00  0.00    +0.000 C 
ATOM     24  C   UNL     1       2.615   4.899  18.126  0.00  0.00    +0.000 C 
ENDBRANCH  16  23
ENDBRANCH   1  19
BRANCH   3  25
ATOM     25  S   UNL     1       2.728  13.885  20.984  0.00  0.00    +0.000 S 
ATOM     26  H   UNL     1       3.602  13.864  19.975  0.00  0.00    +0.000 HD
ENDBRANCH   3  25
TORSDOF 3
ENDMDL
MODEL 5
REMARK VINA RESULT:      -7.4      5.770      8.470
REMARK  Name = 
REMARK  5 active torsions:
REMARK  status: ('A' for Active; 'I' for Inactive)
REMARK    1  A    between atoms: C_1  and  C_2
REMARK    2  A    between atoms: C_2  and  C_3
REMARK    3  A    between atoms: C_2  and  C_4
REMARK    4  A    between atoms: C_7  and  C_8
REMARK    5  A    between atoms: C_10  and  S_11
REMARK                            x       y       z     vdW  Elec       q    Type
REMARK                         _______ _______ _______ _____ _____    ______ ____
ROOT
ATOM      1  C   UNL     1      -0.281  11.128  19.053  0.00  0.00    +0.000 C 
ATOM      2  N   UNL     1      -0.064  11.925  20.254  0.00  0.00    +0.000 N 
ATOM      3  C   UNL     1      -1.098  12.299  21.065  0.00  0.00    +0.000 C 
ATOM      4  N   UNL     1      -2.355  12.245  20.769  0.00  0.00    +0.000 NA
ATOM      5  C   UNL     1      -2.613  11.718  19.543  0.00  0.00    +0.000 C 
ATOM      6  C   UNL     1      -1.739  11.073  18.746  0.00  0.00    +0.000 C 
ATOM      7  C   UNL     1      -2.399  10.718  17.496  0.00  0.00    +0.000 A 
ATOM      8  C   UNL     1      -2.053   9.897  16.437  0.00  0.00    +0.000 A 
ATOM      9  C   UNL     1      -2.915   9.835  15.327  0.00  0.00    +0.000 A 
ATOM     10  C   UNL     1      -4.082  10.620  15.261  0.00  0.00    +0.000 A 
ATOM     11  C   UNL     1      -4.456  11.403  16.348  0.00  0.00    +0.000 A 
ATOM     12  C   UNL     1      -3.627  11.378  17.452  0.00  0.00    +0.000 A 
ATOM     13  C   UNL     1      -3.847  11.988  18.763  0.00  0.00    +0.000 C 
ATOM     14  O   UNL     1      -4.833  12.606  19.090  0.00  0.00    +0.000 OA
ATOM     15  H   UNL     1       0.857  11.846  20.667  0.00  0.00    +0.000 HD
ENDROOT
BRANCH   1  19
ATOM     16  C   UNL     1       2.189   7.593  19.490  0.00  0.00    +0.000 A 
ATOM     17  C   UNL     1       1.466   8.090  20.584  0.00  0.00    +0.000 A 
ATOM     18  C   UNL     1       0.618   9.193  20.443  0.00  0.00    +0.000 A 
ATOM     19  C   UNL     1       0.481   9.834  19.200  0.00  0.00    +0.000 A 
ATOM     20  C   UNL     1       1.196   9.324  18.106  0.00  0.00    +0.000 A 
ATOM     21  C   UNL     1       2.039   8.221  18.248  0.00  0.00    +0.000 A 
BRANCH  16  23
ATOM     22  C   UNL     1       2.358   5.217  20.291  0.00  0.00    +0.000 C 
ATOM     23  C   UNL     1       3.107   6.396  19.664  0.00  0.00    +0.000 C 
ATOM     24  C   UNL     1       3.763   5.989  18.342  0.00  0.00    +0.000 C 
ENDBRANCH  16  23
ENDBRANCH   1  19
BRANCH   3  25
ATOM     25  S   UNL     1      -0.674  12.895  22.651  0.00  0.00    +0.000 S 
ATOM     26  H   UNL     1      -1.756  13.648  22.861  0.00  0.00    +0.000 HD
ENDBRANCH   3  25
TORSDOF 3
ENDMDL
MODEL 6
REMARK VINA RESULT:      -7.4      5.421      8.050
REMARK  Name = 
REMARK  5 active torsions:
REMARK  status: ('A' for Active; 'I' for Inactive)
REMARK    1  A    between atoms: C_1  and  C_2
REMARK    2  A    between atoms: C_2  and  C_3
REMARK    3  A    between atoms: C_2  and  C_4
REMARK    4  A    between atoms: C_7  and  C_8
REMARK    5  A    between atoms: C_10  and  S_11
REMARK                            x       y       z     vdW  Elec       q    Type
REMARK                         _______ _______ _______ _____ _____    ______ ____
ROOT
ATOM      1  C   UNL     1       0.682  11.061  18.628  0.00  0.00    +0.000 C 
ATOM      2  N   UNL     1       1.662  12.004  19.153  0.00  0.00    +0.000 N 
ATOM      3  C   UNL     1       1.364  12.851  20.182  0.00  0.00    +0.000 C 
ATOM      4  N   UNL     1       0.182  13.121  20.628  0.00  0.00    +0.000 NA
ATOM      5  C   UNL     1      -0.813  12.434  20.007  0.00  0.00    +0.000 C 
ATOM      6  C   UNL     1      -0.667  11.388  19.172  0.00  0.00    +0.000 C 
ATOM      7  C   UNL     1      -1.977  10.978  18.679  0.00  0.00    +0.000 A 
ATOM      8  C   UNL     1      -2.426   9.872  17.980  0.00  0.00    +0.000 A 
ATOM      9  C   UNL     1      -3.779   9.826  17.595  0.00  0.00    +0.000 A 
ATOM     10  C   UNL     1      -4.654  10.895  17.867  0.00  0.00    +0.000 A 
ATOM     11  C   UNL     1      -4.214  11.981  18.616  0.00  0.00    +0.000 A 
ATOM     12  C   UNL     1      -2.902  11.954  19.045  0.00  0.00    +0.000 A 
ATOM     13  C   UNL     1      -2.227  12.885  19.951  0.00  0.00    +0.000 C 
ATOM     14  O   UNL     1      -2.745  13.833  20.492  0.00  0.00    +0.000 OA
ATOM     15  H   UNL     1       2.631  11.742  19.020  0.00  0.00    +0.000 HD
ENDROOT
BRANCH   1  19
ATOM     16  C   UNL     1       2.538   7.187  19.213  0.00  0.00    +0.000 A 
ATOM     17  C   UNL     1       1.787   7.774  20.242  0.00  0.00    +0.000 A 
ATOM     18  C   UNL     1       1.132   8.994  20.046  0.00  0.00    +0.000 A 
ATOM     19  C   UNL     1       1.223   9.665  18.815  0.00  0.00    +0.000 A 
ATOM     20  C   UNL     1       1.965   9.067  17.785  0.00  0.00    +0.000 A 
ATOM     21  C   UNL     1       2.615   7.847  17.981  0.00  0.00    +0.000 A 
BRANCH  16  23
ATOM     22  C   UNL     1       2.442   4.974  20.400  0.00  0.00    +0.000 C 
ATOM     23  C   UNL     1       3.244   5.864  19.446  0.00  0.00    +0.000 C 
ATOM     24  C   UNL     1       3.532   5.136  18.129  0.00  0.00    +0.000 C 
ENDBRANCH  16  23
ENDBRANCH   1  19
BRANCH   3  25
ATOM     25  S   UNL     1       2.714  13.633  20.969  0.00  0.00    +0.000 S 
ATOM     26  H   UNL     1       3.540  12.585  21.005  0.00  0.00    +0.000 HD
ENDBRANCH   3  25
TORSDOF 3
ENDMDL
MODEL 7
REMARK VINA RESULT:      -7.3      3.132      6.756
REMARK  Name = 
REMARK  5 active torsions:
REMARK  status: ('A' for Active; 'I' for Inactive)
REMARK    1  A    between atoms: C_1  and  C_2
REMARK    2  A    between atoms: C_2  and  C_3
REMARK    3  A    between atoms: C_2  and  C_4
REMARK    4  A    between atoms: C_7  and  C_8
REMARK    5  A    between atoms: C_10  and  S_11
REMARK                            x       y       z     vdW  Elec       q    Type
REMARK                         _______ _______ _______ _____ _____    ______ ____
ROOT
ATOM      1  C   UNL     1       3.596   6.360  18.808  0.00  0.00    +0.000 C 
ATOM      2  N   UNL     1       4.519   6.621  17.710  0.00  0.00    +0.000 N 
ATOM      3  C   UNL     1       4.677   5.739  16.680  0.00  0.00    +0.000 C 
ATOM      4  N   UNL     1       4.275   4.510  16.659  0.00  0.00    +0.000 NA
ATOM      5  C   UNL     1       3.598   4.132  17.776  0.00  0.00    +0.000 C 
ATOM      6  C   UNL     1       3.138   4.941  18.749  0.00  0.00    +0.000 C 
ATOM      7  C   UNL     1       2.521   4.135  19.795  0.00  0.00    +0.000 A 
ATOM      8  C   UNL     1       1.732   4.439  20.891  0.00  0.00    +0.000 A 
ATOM      9  C   UNL     1       1.356   3.396  21.757  0.00  0.00    +0.000 A 
ATOM     10  C   UNL     1       1.802   2.077  21.551  0.00  0.00    +0.000 A 
ATOM     11  C   UNL     1       2.549   1.763  20.420  0.00  0.00    +0.000 A 
ATOM     12  C   UNL     1       2.832   2.798  19.551  0.00  0.00    +0.000 A 
ATOM     13  C   UNL     1       3.472   2.727  18.237  0.00  0.00    +0.000 C 
ATOM     14  O   UNL     1       3.838   1.712  17.692  0.00  0.00    +0.000 OA
ATOM     15  H   UNL     1       4.717   7.598  17.533  0.00  0.00    +0.000 HD
ENDROOT
BRANCH   1  19
ATOM     16  C   UNL     1       0.853   9.711  19.005  0.00  0.00    +0.000 A 
ATOM     17  C   UNL     1       1.476   9.377  17.793  0.00  0.00    +0.000 A 
ATOM     18  C   UNL     1       2.314   8.262  17.701  0.00  0.00    +0.000 A 
ATOM     19  C   UNL     1       2.561   7.458  18.826  0.00  0.00    +0.000 A 
ATOM     20  C   UNL     1       1.926   7.789  20.033  0.00  0.00    +0.000 A 
ATOM     21  C   UNL     1       1.086   8.899  20.123  0.00  0.00    +0.000 A 
BRANCH  16  23
ATOM     22  C   UNL     1      -1.274  10.763  18.179  0.00  0.00    +0.000 C 
ATOM     23  C   UNL     1      -0.052  10.927  19.087  0.00  0.00    +0.000 C 
ATOM     24  C   UNL     1      -0.475  11.222  20.528  0.00  0.00    +0.000 C 
ENDBRANCH  16  23
ENDBRANCH   1  19
BRANCH   3  25
ATOM     25  S   UNL     1       5.493   6.336  15.255  0.00  0.00    +0.000 S 
ATOM     26  H   UNL     1       5.317   7.641  15.474  0.00  0.00    +0.000 HD
ENDBRANCH   3  25
TORSDOF 3
ENDMDL
MODEL 8
REMARK VINA RESULT:      -7.2      3.059      6.581
REMARK  Name = 
REMARK  5 active torsions:
REMARK  status: ('A' for Active; 'I' for Inactive)
REMARK    1  A    between atoms: C_1  and  C_2
REMARK    2  A    between atoms: C_2  and  C_3
REMARK    3  A    between atoms: C_2  and  C_4
REMARK    4  A    between atoms: C_7  and  C_8
REMARK    5  A    between atoms: C_10  and  S_11
REMARK                            x       y       z     vdW  Elec       q    Type
REMARK                         _______ _______ _______ _____ _____    ______ ____
ROOT
ATOM      1  C   UNL     1       3.791   6.250  18.798  0.00  0.00    +0.000 C 
ATOM      2  N   UNL     1       4.713   6.436  17.684  0.00  0.00    +0.000 N 
ATOM      3  C   UNL     1       4.774   5.549  16.647  0.00  0.00    +0.000 C 
ATOM      4  N   UNL     1       4.265   4.361  16.629  0.00  0.00    +0.000 NA
ATOM      5  C   UNL     1       3.580   4.037  17.757  0.00  0.00    +0.000 C 
ATOM      6  C   UNL     1       3.211   4.878  18.742  0.00  0.00    +0.000 C 
ATOM      7  C   UNL     1       2.545   4.122  19.797  0.00  0.00    +0.000 A 
ATOM      8  C   UNL     1       1.807   4.488  20.908  0.00  0.00    +0.000 A 
ATOM      9  C   UNL     1       1.356   3.476  21.777  0.00  0.00    +0.000 A 
ATOM     10  C   UNL     1       1.682   2.125  21.557  0.00  0.00    +0.000 A 
ATOM     11  C   UNL     1       2.377   1.753  20.411  0.00  0.00    +0.000 A 
ATOM     12  C   UNL     1       2.733   2.764  19.541  0.00  0.00    +0.000 A 
ATOM     13  C   UNL     1       3.339   2.645  18.215  0.00  0.00    +0.000 C 
ATOM     14  O   UNL     1       3.604   1.605  17.658  0.00  0.00    +0.000 OA
ATOM     15  H   UNL     1       4.993   7.393  17.507  0.00  0.00    +0.000 HD
ENDROOT
BRANCH   1  19
ATOM     16  C   UNL     1       0.881   9.462  18.767  0.00  0.00    +0.000 A 
ATOM     17  C   UNL     1       1.118   8.735  19.942  0.00  0.00    +0.000 A 
ATOM     18  C   UNL     1       2.098   7.738  19.983  0.00  0.00    +0.000 A 
ATOM     19  C   UNL     1       2.858   7.434  18.841  0.00  0.00    +0.000 A 
ATOM     20  C   UNL     1       2.625   8.174  17.672  0.00  0.00    +0.000 A 
ATOM     21  C   UNL     1       1.650   9.172  17.633  0.00  0.00    +0.000 A 
BRANCH  16  23
ATOM     22  C   UNL     1      -1.331  10.155  17.797  0.00  0.00    +0.000 C 
ATOM     23  C   UNL     1      -0.188  10.539  18.741  0.00  0.00    +0.000 C 
ATOM     24  C   UNL     1      -0.717  10.846  20.145  0.00  0.00    +0.000 C 
ENDBRANCH  16  23
ENDBRANCH   1  19
BRANCH   3  25
ATOM     25  S   UNL     1       5.613   6.081  15.209  0.00  0.00    +0.000 S 
ATOM     26  H   UNL     1       6.860   5.851  15.626  0.00  0.00    +0.000 HD
ENDBRANCH   3  25
TORSDOF 3
ENDMDL
MODEL 9
REMARK VINA RESULT:      -7.0      0.739      1.048
REMARK  Name = 
REMARK  5 active torsions:
REMARK  status: ('A' for Active; 'I' for Inactive)
REMARK    1  A    between atoms: C_1  and  C_2
REMARK    2  A    between atoms: C_2  and  C_3
REMARK    3  A    between atoms: C_2  and  C_4
REMARK    4  A    between atoms: C_7  and  C_8
REMARK    5  A    between atoms: C_10  and  S_11
REMARK                            x       y       z     vdW  Elec       q    Type
REMARK                         _______ _______ _______ _____ _____    ______ ____
ROOT
ATOM      1  C   UNL     1       4.891   5.238  18.329  0.00  0.00    +0.000 C 
ATOM      2  N   UNL     1       5.249   4.030  19.063  0.00  0.00    +0.000 N 
ATOM      3  C   UNL     1       4.331   3.341  19.802  0.00  0.00    +0.000 C 
ATOM      4  N   UNL     1       3.166   3.768  20.162  0.00  0.00    +0.000 NA
ATOM      5  C   UNL     1       2.864   5.009  19.693  0.00  0.00    +0.000 C 
ATOM      6  C   UNL     1       3.538   5.699  18.754  0.00  0.00    +0.000 C 
ATOM      7  C   UNL     1       2.921   7.008  18.582  0.00  0.00    +0.000 A 
ATOM      8  C   UNL     1       3.067   8.013  17.642  0.00  0.00    +0.000 A 
ATOM      9  C   UNL     1       2.347   9.209  17.821  0.00  0.00    +0.000 A 
ATOM     10  C   UNL     1       1.529   9.409  18.949  0.00  0.00    +0.000 A 
ATOM     11  C   UNL     1       1.341   8.379  19.864  0.00  0.00    +0.000 A 
ATOM     12  C   UNL     1       2.001   7.192  19.614  0.00  0.00    +0.000 A 
ATOM     13  C   UNL     1       1.877   5.920  20.326  0.00  0.00    +0.000 C 
ATOM     14  O   UNL     1       1.133   5.709  21.255  0.00  0.00    +0.000 OA
ATOM     15  H   UNL     1       6.044   3.521  18.699  0.00  0.00    +0.000 HD
ENDROOT
BRANCH   1  19
ATOM     16  C   UNL     1       5.946   4.640  14.167  0.00  0.00    +0.000 A 
ATOM     17  C   UNL     1       5.864   3.545  15.040  0.00  0.00    +0.000 A 
ATOM     18  C   UNL     1       5.465   3.716  16.369  0.00  0.00    +0.000 A 
ATOM     19  C   UNL     1       5.149   4.993  16.863  0.00  0.00    +0.000 A 
ATOM     20  C   UNL     1       5.220   6.083  15.981  0.00  0.00    +0.000 A 
ATOM     21  C   UNL     1       5.614   5.911  14.654  0.00  0.00    +0.000 A 
BRANCH  16  23
ATOM     22  C   UNL     1       7.802   4.965  12.505  0.00  0.00    +0.000 C 
ATOM     23  C   UNL     1       6.383   4.435  12.728  0.00  0.00    +0.000 C 
ATOM     24  C   UNL     1       6.273   2.967  12.306  0.00  0.00    +0.000 C 
ENDBRANCH  16  23
ENDBRANCH   1  19
BRANCH   3  25
ATOM     25  S   UNL     1       4.777   1.725  20.297  0.00  0.00    +0.000 S 
ATOM     26  H   UNL     1       5.929   2.028  20.901  0.00  0.00    +0.000 HD
ENDBRANCH   3  25
TORSDOF 3
ENDMDL
