MODEL 1
REMARK VINA RESULT:      -6.5      0.000      0.000
REMARK  Name = 
REMARK  6 active torsions:
REMARK  status: ('A' for Active; 'I' for Inactive)
REMARK    1  A    between atoms: C_1  and  C_2
REMARK    2  A    between atoms: C_2  and  C_3
REMARK    3  A    between atoms: C_3  and  N_4
REMARK    4  A    between atoms: C_11  and  C_12
REMARK    5  A    between atoms: C_12  and  C_13
REMARK    6  A    between atoms: C_13  and  N_14
REMARK                            x       y       z     vdW  Elec       q    Type
REMARK                         _______ _______ _______ _____ _____    ______ ____
ROOT
ATOM      1  N   UNL     1       2.480   2.126  17.933  0.00  0.00    +0.000 NA
ATOM      2  C   UNL     1       2.681   3.262  17.005  0.00  0.00    +0.000 C 
ATOM      3  C   UNL     1       3.065   4.585  17.695  0.00  0.00    +0.000 C 
ATOM      4  N   UNL     1       4.240   4.397  18.553  0.00  0.00    +0.000 N 
ATOM      5  C   UNL     1       5.399   5.072  18.335  0.00  0.00    +0.000 A 
ATOM      6  N   UNL     1       6.591   4.653  18.704  0.00  0.00    +0.000 NA
ATOM      7  C   UNL     1       7.563   5.582  18.380  0.00  0.00    +0.000 A 
ATOM      8  C   UNL     1       7.106   6.754  17.815  0.00  0.00    +0.000 A 
ATOM      9  S   UNL     1       5.422   6.621  17.580  0.00  0.00    +0.000 S 
ATOM     10  C   UNL     1       4.232   3.229  19.439  0.00  0.00    +0.000 C 
ATOM     11  C   UNL     1       3.747   1.962  18.696  0.00  0.00    +0.000 C 
ENDROOT
BRANCH   1  12
ATOM     12  C   UNL     1       1.343   2.330  18.849  0.00  0.00    +0.000 C 
BRANCH  12  14
ATOM     13  C   UNL     1       1.215   3.112  21.243  0.00  0.00    +0.000 C 
ATOM     14  C   UNL     1       1.685   2.010  20.309  0.00  0.00    +0.000 C 
ENDBRANCH  12  14
ENDBRANCH   1  12
BRANCH   8  15
ATOM     15  C   UNL     1       7.862   7.976  17.393  0.00  0.00    +0.000 C 
BRANCH  15  16
ATOM     16  C   UNL     1       8.543   8.702  18.563  0.00  0.00    +0.000 C 
BRANCH  16  17
ATOM     17  N   UNL     1       8.914  10.060  18.243  0.00  0.00    +0.000 N 
ATOM     18  C   UNL     1       9.319  10.940  19.212  0.00  0.00    +0.000 C 
ATOM     19  O   UNL     1       9.372  10.704  20.411  0.00  0.00    +0.000 OA
ATOM     20  H   UNL     1       8.908  10.360  17.276  0.00  0.00    +0.000 HD
ENDBRANCH  16  17
ENDBRANCH  15  16
ENDBRANCH   8  15
TORSDOF 5
ENDMDL
MODEL 2
REMARK VINA RESULT:      -6.3      5.244      7.113
REMARK  Name = 
REMARK  6 active torsions:
REMARK  status: ('A' for Active; 'I' for Inactive)
REMARK    1  A    between atoms: C_1  and  C_2
REMARK    2  A    between atoms: C_2  and  C_3
REMARK    3  A    between atoms: C_3  and  N_4
REMARK    4  A    between atoms: C_11  and  C_12
REMARK    5  A    between atoms: C_12  and  C_13
REMARK    6  A    between atoms: C_13  and  N_14
REMARK                            x       y       z     vdW  Elec       q    Type
REMARK                         _______ _______ _______ _____ _____    ______ ____
ROOT
ATOM      1  N   UNL     1       6.130   5.270  17.778  0.00  0.00    +0.000 NA
ATOM      2  C   UNL     1       5.798   6.652  17.363  0.00  0.00    +0.000 C 
ATOM      3  C   UNL     1       4.307   6.879  17.046  0.00  0.00    +0.000 C 
ATOM      4  N   UNL     1       3.470   6.457  18.175  0.00  0.00    +0.000 N 
ATOM      5  C   UNL     1       2.666   7.331  18.834  0.00  0.00    +0.000 A 
ATOM      6  N   UNL     1       2.274   7.193  20.084  0.00  0.00    +0.000 NA
ATOM      7  C   UNL     1       1.428   8.223  20.453  0.00  0.00    +0.000 A 
ATOM      8  C   UNL     1       1.116   9.126  19.458  0.00  0.00    +0.000 A 
ATOM      9  S   UNL     1       2.012   8.726  18.062  0.00  0.00    +0.000 S 
ATOM     10  C   UNL     1       3.773   5.153  18.772  0.00  0.00    +0.000 C 
ATOM     11  C   UNL     1       5.295   4.965  18.972  0.00  0.00    +0.000 C 
ENDROOT
BRANCH   1  12
ATOM     12  C   UNL     1       5.893   4.280  16.711  0.00  0.00    +0.000 C 
BRANCH  12  14
ATOM     13  C   UNL     1       6.106   4.073  14.206  0.00  0.00    +0.000 C 
ATOM     14  C   UNL     1       6.802   4.486  15.492  0.00  0.00    +0.000 C 
ENDBRANCH  12  14
ENDBRANCH   1  12
BRANCH   8  15
ATOM     15  C   UNL     1       0.206  10.315  19.490  0.00  0.00    +0.000 C 
BRANCH  15  16
ATOM     16  C   UNL     1      -0.572  10.519  18.182  0.00  0.00    +0.000 C 
BRANCH  16  17
ATOM     17  N   UNL     1      -1.943  10.072  18.267  0.00  0.00    +0.000 N 
ATOM     18  C   UNL     1      -2.715   9.911  17.147  0.00  0.00    +0.000 C 
ATOM     19  O   UNL     1      -2.366  10.155  16.000  0.00  0.00    +0.000 OA
ATOM     20  H   UNL     1      -2.332   9.839  19.172  0.00  0.00    +0.000 HD
ENDBRANCH  16  17
ENDBRANCH  15  16
ENDBRANCH   8  15
TORSDOF 5
ENDMDL
MODEL 3
REMARK VINA RESULT:      -6.3      5.931      7.557
REMARK  Name = 
REMARK  6 active torsions:
REMARK  status: ('A' for Active; 'I' for Inactive)
REMARK    1  A    between atoms: C_1  and  C_2
REMARK    2  A    between atoms: C_2  and  C_3
REMARK    3  A    between atoms: C_3  and  N_4
REMARK    4  A    between atoms: C_11  and  C_12
REMARK    5  A    between atoms: C_12  and  C_13
REMARK    6  A    between atoms: C_13  and  N_14
REMARK                            x       y       z     vdW  Elec       q    Type
REMARK                         _______ _______ _______ _____ _____    ______ ____
ROOT
ATOM      1  N   UNL     1       0.604  10.954  21.514  0.00  0.00    +0.000 NA
ATOM      2  C   UNL     1       1.279   9.725  21.990  0.00  0.00    +0.000 C 
ATOM      3  C   UNL     1       0.949   8.462  21.170  0.00  0.00    +0.000 C 
ATOM      4  N   UNL     1       1.219   8.687  19.745  0.00  0.00    +0.000 N 
ATOM      5  C   UNL     1       2.135   7.949  19.066  0.00  0.00    +0.000 A 
ATOM      6  N   UNL     1       2.777   8.356  17.991  0.00  0.00    +0.000 NA
ATOM      7  C   UNL     1       3.607   7.362  17.506  0.00  0.00    +0.000 A 
ATOM      8  C   UNL     1       3.556   6.159  18.178  0.00  0.00    +0.000 A 
ATOM      9  S   UNL     1       2.522   6.334  19.524  0.00  0.00    +0.000 S 
ATOM     10  C   UNL     1       0.715   9.936  19.167  0.00  0.00    +0.000 C 
ATOM     11  C   UNL     1       1.003  11.142  20.092  0.00  0.00    +0.000 C 
ENDROOT
BRANCH   1  12
ATOM     12  C   UNL     1      -0.863  10.886  21.639  0.00  0.00    +0.000 C 
BRANCH  12  14
ATOM     13  C   UNL     1      -1.213  12.985  22.992  0.00  0.00    +0.000 C 
ATOM     14  C   UNL     1      -1.379  11.475  22.958  0.00  0.00    +0.000 C 
ENDBRANCH  12  14
ENDBRANCH   1  12
BRANCH   8  15
ATOM     15  C   UNL     1       4.270   4.872  17.902  0.00  0.00    +0.000 C 
BRANCH  15  16
ATOM     16  C   UNL     1       5.128   4.390  19.081  0.00  0.00    +0.000 C 
BRANCH  16  17
ATOM     17  N   UNL     1       5.134   2.952  19.222  0.00  0.00    +0.000 N 
ATOM     18  C   UNL     1       4.195   2.303  19.981  0.00  0.00    +0.000 C 
ATOM     19  O   UNL     1       3.310   2.841  20.633  0.00  0.00    +0.000 OA
ATOM     20  H   UNL     1       5.824   2.408  18.721  0.00  0.00    +0.000 HD
ENDBRANCH  16  17
ENDBRANCH  15  16
ENDBRANCH   8  15
TORSDOF 5
ENDMDL
MODEL 4
REMARK VINA RESULT:      -6.2      5.127      6.632
REMARK  Name = 
REMARK  6 active torsions:
REMARK  status: ('A' for Active; 'I' for Inactive)
REMARK    1  A    between atoms: C_1  and  C_2
REMARK    2  A    between atoms: C_2  and  C_3
REMARK    3  A    between atoms: C_3  and  N_4
REMARK    4  A    between atoms: C_11  and  C_12
REMARK    5  A    between atoms: C_12  and  C_13
REMARK    6  A    between atoms: C_13  and  N_14
REMARK                            x       y       z     vdW  Elec       q    Type
REMARK                         _______ _______ _______ _____ _____    ______ ____
ROOT
ATOM      1  N   UNL     1       6.174   4.716  17.197  0.00  0.00    +0.000 NA
ATOM      2  C   UNL     1       5.982   6.174  17.022  0.00  0.00    +0.000 C 
ATOM      3  C   UNL     1       4.525   6.593  16.743  0.00  0.00    +0.000 C 
ATOM      4  N   UNL     1       3.630   6.068  17.780  0.00  0.00    +0.000 N 
ATOM      5  C   UNL     1       2.899   6.891  18.576  0.00  0.00    +0.000 A 
ATOM      6  N   UNL     1       2.471   6.582  19.783  0.00  0.00    +0.000 NA
ATOM      7  C   UNL     1       1.718   7.611  20.318  0.00  0.00    +0.000 A 
ATOM      8  C   UNL     1       1.512   8.695  19.491  0.00  0.00    +0.000 A 
ATOM      9  S   UNL     1       2.394   8.453  18.051  0.00  0.00    +0.000 S 
ATOM     10  C   UNL     1       3.797   4.659  18.148  0.00  0.00    +0.000 C 
ATOM     11  C   UNL     1       5.291   4.294  18.319  0.00  0.00    +0.000 C 
ENDROOT
BRANCH   1  12
ATOM     12  C   UNL     1       5.867   3.948  15.976  0.00  0.00    +0.000 C 
BRANCH  12  14
ATOM     13  C   UNL     1       6.170   3.836  13.475  0.00  0.00    +0.000 C 
ATOM     14  C   UNL     1       6.751   4.340  14.785  0.00  0.00    +0.000 C 
ENDBRANCH  12  14
ENDBRANCH   1  12
BRANCH   8  15
ATOM     15  C   UNL     1       0.717   9.943  19.722  0.00  0.00    +0.000 C 
BRANCH  15  16
ATOM     16  C   UNL     1      -0.292  10.235  18.602  0.00  0.00    +0.000 C 
BRANCH  16  17
ATOM     17  N   UNL     1      -0.199  11.585  18.099  0.00  0.00    +0.000 N 
ATOM     18  C   UNL     1      -1.057  12.567  18.518  0.00  0.00    +0.000 C 
ATOM     19  O   UNL     1      -1.988  12.415  19.299  0.00  0.00    +0.000 OA
ATOM     20  H   UNL     1       0.539  11.821  17.448  0.00  0.00    +0.000 HD
ENDBRANCH  16  17
ENDBRANCH  15  16
ENDBRANCH   8  15
TORSDOF 5
ENDMDL
MODEL 5
REMARK VINA RESULT:      -6.2      4.847      5.905
REMARK  Name = 
REMARK  6 active torsions:
REMARK  status: ('A' for Active; 'I' for Inactive)
REMARK    1  A    between atoms: C_1  and  C_2
REMARK    2  A    between atoms: C_2  and  C_3
REMARK    3  A    between atoms: C_3  and  N_4
REMARK    4  A    between atoms: C_11  and  C_12
REMARK    5  A    between atoms: C_12  and  C_13
REMARK    6  A    between atoms: C_13  and  N_14
REMARK                            x       y       z     vdW  Elec       q    Type
REMARK                         _______ _______ _______ _____ _____    ______ ____
ROOT
ATOM      1  N   UNL     1       3.260   3.494  19.580  0.00  0.00    +0.000 NA
ATOM      2  C   UNL     1       3.375   2.726  18.320  0.00  0.00    +0.000 C 
ATOM      3  C   UNL     1       3.357   3.592  17.045  0.00  0.00    +0.000 C 
ATOM      4  N   UNL     1       4.384   4.637  17.117  0.00  0.00    +0.000 N 
ATOM      5  C   UNL     1       5.399   4.704  16.216  0.00  0.00    +0.000 A 
ATOM      6  N   UNL     1       6.573   5.253  16.449  0.00  0.00    +0.000 NA
ATOM      7  C   UNL     1       7.374   5.203  15.322  0.00  0.00    +0.000 A 
ATOM      8  C   UNL     1       6.787   4.668  14.194  0.00  0.00    +0.000 A 
ATOM      9  S   UNL     1       5.229   4.107  14.608  0.00  0.00    +0.000 S 
ATOM     10  C   UNL     1       4.469   5.397  18.367  0.00  0.00    +0.000 C 
ATOM     11  C   UNL     1       4.387   4.466  19.600  0.00  0.00    +0.000 C 
ENDROOT
BRANCH   1  12
ATOM     12  C   UNL     1       1.967   4.193  19.708  0.00  0.00    +0.000 C 
BRANCH  12  14
ATOM     13  C   UNL     1       1.821   2.557  21.622  0.00  0.00    +0.000 C 
ATOM     14  C   UNL     1       1.085   3.620  20.824  0.00  0.00    +0.000 C 
ENDBRANCH  12  14
ENDBRANCH   1  12
BRANCH   8  15
ATOM     15  C   UNL     1       7.334   4.508  12.809  0.00  0.00    +0.000 C 
BRANCH  15  16
ATOM     16  C   UNL     1       6.567   3.476  11.970  0.00  0.00    +0.000 C 
BRANCH  16  17
ATOM     17  N   UNL     1       7.406   2.397  11.502  0.00  0.00    +0.000 N 
ATOM     18  C   UNL     1       6.876   1.197  11.107  0.00  0.00    +0.000 C 
ATOM     19  O   UNL     1       5.690   0.895  11.143  0.00  0.00    +0.000 OA
ATOM     20  H   UNL     1       8.405   2.542  11.430  0.00  0.00    +0.000 HD
ENDBRANCH  16  17
ENDBRANCH  15  16
ENDBRANCH   8  15
TORSDOF 5
ENDMDL
MODEL 6
REMARK VINA RESULT:      -6.2      4.329      6.481
REMARK  Name = 
REMARK  6 active torsions:
REMARK  status: ('A' for Active; 'I' for Inactive)
REMARK    1  A    between atoms: C_1  and  C_2
REMARK    2  A    between atoms: C_2  and  C_3
REMARK    3  A    between atoms: C_3  and  N_4
REMARK    4  A    between atoms: C_11  and  C_12
REMARK    5  A    between atoms: C_12  and  C_13
REMARK    6  A    between atoms: C_13  and  N_14
REMARK                            x       y       z     vdW  Elec       q    Type
REMARK                         _______ _______ _______ _____ _____    ______ ____
ROOT
ATOM      1  N   UNL     1       6.833   5.041  15.924  0.00  0.00    +0.000 NA
ATOM      2  C   UNL     1       6.490   6.280  16.659  0.00  0.00    +0.000 C 
ATOM      3  C   UNL     1       4.982   6.596  16.700  0.00  0.00    +0.000 C 
ATOM      4  N   UNL     1       4.229   5.451  17.225  0.00  0.00    +0.000 N 
ATOM      5  C   UNL     1       3.492   5.542  18.362  0.00  0.00    +0.000 A 
ATOM      6  N   UNL     1       3.196   4.526  19.147  0.00  0.00    +0.000 NA
ATOM      7  C   UNL     1       2.396   4.932  20.199  0.00  0.00    +0.000 A 
ATOM      8  C   UNL     1       2.020   6.259  20.188  0.00  0.00    +0.000 A 
ATOM      9  S   UNL     1       2.800   7.032  18.882  0.00  0.00    +0.000 S 
ATOM     10  C   UNL     1       4.559   4.134  16.673  0.00  0.00    +0.000 C 
ATOM     11  C   UNL     1       6.089   3.930  16.578  0.00  0.00    +0.000 C 
ENDROOT
BRANCH   1  12
ATOM     12  C   UNL     1       6.500   5.117  14.489  0.00  0.00    +0.000 C 
BRANCH  12  14
ATOM     13  C   UNL     1       6.529   3.736  12.379  0.00  0.00    +0.000 C 
ATOM     14  C   UNL     1       6.218   3.745  13.866  0.00  0.00    +0.000 C 
ENDBRANCH  12  14
ENDBRANCH   1  12
BRANCH   8  15
ATOM     15  C   UNL     1       1.133   7.015  21.128  0.00  0.00    +0.000 C 
BRANCH  15  16
ATOM     16  C   UNL     1       1.311   8.538  21.037  0.00  0.00    +0.000 C 
BRANCH  16  17
ATOM     17  N   UNL     1       0.104   9.265  21.356  0.00  0.00    +0.000 N 
ATOM     18  C   UNL     1      -0.125   9.756  22.614  0.00  0.00    +0.000 C 
ATOM     19  O   UNL     1       0.609   9.608  23.582  0.00  0.00    +0.000 OA
ATOM     20  H   UNL     1      -0.572   9.447  20.625  0.00  0.00    +0.000 HD
ENDBRANCH  16  17
ENDBRANCH  15  16
ENDBRANCH   8  15
TORSDOF 5
ENDMDL
MODEL 7
REMARK VINA RESULT:      -6.1      5.519      6.855
REMARK  Name = 
REMARK  6 active torsions:
REMARK  status: ('A' for Active; 'I' for Inactive)
REMARK    1  A    between atoms: C_1  and  C_2
REMARK    2  A    between atoms: C_2  and  C_3
REMARK    3  A    between atoms: C_3  and  N_4
REMARK    4  A    between atoms: C_11  and  C_12
REMARK    5  A    between atoms: C_12  and  C_13
REMARK    6  A    between atoms: C_13  and  N_14
REMARK                            x       y       z     vdW  Elec       q    Type
REMARK                         _______ _______ _______ _____ _____    ______ ____
ROOT
ATOM      1  N   UNL     1      -0.628   9.970  20.973  0.00  0.00    +0.000 NA
ATOM      2  C   UNL     1      -0.181   9.915  19.562  0.00  0.00    +0.000 C 
ATOM      3  C   UNL     1       1.330   9.669  19.385  0.00  0.00    +0.000 C 
ATOM      4  N   UNL     1       1.746   8.465  20.113  0.00  0.00    +0.000 N 
ATOM      5  C   UNL     1       2.282   7.393  19.474  0.00  0.00    +0.000 A 
ATOM      6  N   UNL     1       2.238   6.155  19.919  0.00  0.00    +0.000 NA
ATOM      7  C   UNL     1       2.911   5.299  19.067  0.00  0.00    +0.000 A 
ATOM      8  C   UNL     1       3.533   5.894  17.990  0.00  0.00    +0.000 A 
ATOM      9  S   UNL     1       3.152   7.557  17.995  0.00  0.00    +0.000 S 
ATOM     10  C   UNL     1       1.265   8.326  21.491  0.00  0.00    +0.000 C 
ATOM     11  C   UNL     1      -0.237   8.679  21.602  0.00  0.00    +0.000 C 
ENDROOT
BRANCH   1  12
ATOM     12  C   UNL     1      -0.048  11.107  21.712  0.00  0.00    +0.000 C 
BRANCH  12  14
ATOM     13  C   UNL     1      -1.182  13.086  22.788  0.00  0.00    +0.000 C 
ATOM     14  C   UNL     1      -0.802  12.422  21.475  0.00  0.00    +0.000 C 
ENDBRANCH  12  14
ENDBRANCH   1  12
BRANCH   8  15
ATOM     15  C   UNL     1       4.377   5.288  16.912  0.00  0.00    +0.000 C 
BRANCH  15  16
ATOM     16  C   UNL     1       5.139   4.035  17.370  0.00  0.00    +0.000 C 
BRANCH  16  17
ATOM     17  N   UNL     1       6.272   4.343  18.212  0.00  0.00    +0.000 N 
ATOM     18  C   UNL     1       7.514   4.573  17.684  0.00  0.00    +0.000 C 
ATOM     19  O   UNL     1       7.809   4.507  16.498  0.00  0.00    +0.000 OA
ATOM     20  H   UNL     1       6.138   4.424  19.212  0.00  0.00    +0.000 HD
ENDBRANCH  16  17
ENDBRANCH  15  16
ENDBRANCH   8  15
TORSDOF 5
ENDMDL
MODEL 8
REMARK VINA RESULT:      -6.1      5.512      6.930
REMARK  Name = 
REMARK  6 active torsions:
REMARK  status: ('A' for Active; 'I' for Inactive)
REMARK    1  A    between atoms: C_1  and  C_2
REMARK    2  A    between atoms: C_2  and  C_3
REMARK    3  A    between atoms: C_3  and  N_4
REMARK    4  A    between atoms: C_11  and  C_12
REMARK    5  A    between atoms: C_12  and  C_13
REMARK    6  A    between atoms: C_13  and  N_14
REMARK                            x       y       z     vdW  Elec       q    Type
REMARK                         _______ _______ _______ _____ _____    ______ ____
ROOT
ATOM      1  N   UNL     1       0.756  10.851  21.485  0.00  0.00    +0.000 NA
ATOM      2  C   UNL     1       1.363   9.591  21.969  0.00  0.00    +0.000 C 
ATOM      3  C   UNL     1       1.001   8.349  21.131  0.00  0.00    +0.000 C 
ATOM      4  N   UNL     1       1.317   8.572  19.716  0.00  0.00    +0.000 N 
ATOM      5  C   UNL     1       2.218   7.799  19.055  0.00  0.00    +0.000 A 
ATOM      6  N   UNL     1       2.904   8.184  18.000  0.00  0.00    +0.000 NA
ATOM      7  C   UNL     1       3.703   7.158  17.529  0.00  0.00    +0.000 A 
ATOM      8  C   UNL     1       3.582   5.954  18.190  0.00  0.00    +0.000 A 
ATOM      9  S   UNL     1       2.523   6.165  19.511  0.00  0.00    +0.000 S 
ATOM     10  C   UNL     1       0.883   9.845  19.134  0.00  0.00    +0.000 C 
ATOM     11  C   UNL     1       1.199  11.032  20.075  0.00  0.00    +0.000 C 
ENDROOT
BRANCH   1  12
ATOM     12  C   UNL     1      -0.716  10.847  21.572  0.00  0.00    +0.000 C 
BRANCH  12  14
ATOM     13  C   UNL     1      -1.530  12.625  23.164  0.00  0.00    +0.000 C 
ATOM     14  C   UNL     1      -1.234  11.146  22.984  0.00  0.00    +0.000 C 
ENDBRANCH  12  14
ENDBRANCH   1  12
BRANCH   8  15
ATOM     15  C   UNL     1       4.247   4.639  17.923  0.00  0.00    +0.000 C 
BRANCH  15  16
ATOM     16  C   UNL     1       5.247   4.691  16.758  0.00  0.00    +0.000 C 
BRANCH  16  17
ATOM     17  N   UNL     1       6.479   3.993  17.043  0.00  0.00    +0.000 N 
ATOM     18  C   UNL     1       7.555   4.636  17.596  0.00  0.00    +0.000 C 
ATOM     19  O   UNL     1       7.613   5.829  17.862  0.00  0.00    +0.000 OA
ATOM     20  H   UNL     1       6.538   2.999  16.863  0.00  0.00    +0.000 HD
ENDBRANCH  16  17
ENDBRANCH  15  16
ENDBRANCH   8  15
TORSDOF 5
ENDMDL
MODEL 9
REMARK VINA RESULT:      -6.1      4.134      7.421
REMARK  Name = 
REMARK  6 active torsions:
REMARK  status: ('A' for Active; 'I' for Inactive)
REMARK    1  A    between atoms: C_1  and  C_2
REMARK    2  A    between atoms: C_2  and  C_3
REMARK    3  A    between atoms: C_3  and  N_4
REMARK    4  A    between atoms: C_11  and  C_12
REMARK    5  A    between atoms: C_12  and  C_13
REMARK    6  A    between atoms: C_13  and  N_14
REMARK                            x       y       z     vdW  Elec       q    Type
REMARK                         _______ _______ _______ _____ _____    ______ ____
ROOT
ATOM      1  N   UNL     1       6.031   4.868  14.440  0.00  0.00    +0.000 NA
ATOM      2  C   UNL     1       5.692   3.744  15.341  0.00  0.00    +0.000 C 
ATOM      3  C   UNL     1       5.927   4.037  16.836  0.00  0.00    +0.000 C 
ATOM      4  N   UNL     1       5.225   5.260  17.239  0.00  0.00    +0.000 N 
ATOM      5  C   UNL     1       4.255   5.247  18.189  0.00  0.00    +0.000 A 
ATOM      6  N   UNL     1       3.278   6.127  18.276  0.00  0.00    +0.000 NA
ATOM      7  C   UNL     1       2.479   5.870  19.375  0.00  0.00    +0.000 A 
ATOM      8  C   UNL     1       2.881   4.822  20.176  0.00  0.00    +0.000 A 
ATOM      9  S   UNL     1       4.232   4.073  19.450  0.00  0.00    +0.000 S 
ATOM     10  C   UNL     1       5.370   6.425  16.361  0.00  0.00    +0.000 C 
ATOM     11  C   UNL     1       5.212   6.033  14.873  0.00  0.00    +0.000 C 
ENDROOT
BRANCH   1  12
ATOM     12  C   UNL     1       7.467   5.203  14.459  0.00  0.00    +0.000 C 
BRANCH  12  14
ATOM     13  C   UNL     1       7.268   4.439  12.064  0.00  0.00    +0.000 C 
ATOM     14  C   UNL     1       8.092   5.239  13.059  0.00  0.00    +0.000 C 
ENDBRANCH  12  14
ENDBRANCH   1  12
BRANCH   8  15
ATOM     15  C   UNL     1       2.291   4.305  21.452  0.00  0.00    +0.000 C 
BRANCH  15  16
ATOM     16  C   UNL     1       1.488   3.008  21.266  0.00  0.00    +0.000 C 
BRANCH  16  17
ATOM     17  N   UNL     1       0.489   3.109  20.228  0.00  0.00    +0.000 N 
ATOM     18  C   UNL     1       0.640   2.471  19.025  0.00  0.00    +0.000 C 
ATOM     19  O   UNL     1       1.611   1.808  18.687  0.00  0.00    +0.000 OA
ATOM     20  H   UNL     1      -0.358   3.633  20.405  0.00  0.00    +0.000 HD
ENDBRANCH  16  17
ENDBRANCH  15  16
ENDBRANCH   8  15
TORSDOF 5
ENDMDL
