MODEL 1
REMARK VINA RESULT:      -8.9      0.000      0.000
REMARK  Name = 
REMARK  3 active torsions:
REMARK  status: ('A' for Active; 'I' for Inactive)
REMARK    1  A    between atoms: C_2  and  C_3
REMARK    2  A    between atoms: C_3  and  N_4
REMARK    3  A    between atoms: C_7  and  C_8
REMARK                            x       y       z     vdW  Elec       q    Type
REMARK                         _______ _______ _______ _____ _____    ______ ____
ROOT
ATOM      1  C   UNL     1       3.102   6.638  18.451  0.00  0.00    +0.000 C 
ATOM      2  C   UNL     1       4.005   6.854  17.465  0.00  0.00    +0.000 C 
ATOM      3  C   UNL     1       4.939   5.916  16.831  0.00  0.00    +0.000 A 
ATOM      4  C   UNL     1       5.231   6.098  15.470  0.00  0.00    +0.000 A 
ATOM      5  C   UNL     1       6.148   5.276  14.819  0.00  0.00    +0.000 A 
ATOM      6  C   UNL     1       6.789   4.262  15.525  0.00  0.00    +0.000 A 
ATOM      7  C   UNL     1       6.523   4.082  16.882  0.00  0.00    +0.000 A 
ATOM      8  C   UNL     1       5.609   4.913  17.551  0.00  0.00    +0.000 A 
ATOM      9  C   UNL     1       5.380   4.752  19.032  0.00  0.00    +0.000 C 
ATOM     10  C   UNL     1       3.950   4.410  19.374  0.00  0.00    +0.000 A 
ATOM     11  C   UNL     1       3.673   3.175  19.991  0.00  0.00    +0.000 A 
ATOM     12  C   UNL     1       2.374   2.831  20.355  0.00  0.00    +0.000 A 
ATOM     13  C   UNL     1       1.332   3.716  20.105  0.00  0.00    +0.000 A 
ATOM     14  C   UNL     1       1.591   4.938  19.481  0.00  0.00    +0.000 A 
ATOM     15  C   UNL     1       2.896   5.309  19.102  0.00  0.00    +0.000 A 
ENDROOT
BRANCH   1  19
ATOM     16  N   UNL     1       0.660  10.098  19.499  0.00  0.00    +0.000 NA
ATOM     17  C   UNL     1       0.888   9.046  20.506  0.00  0.00    +0.000 C 
ATOM     18  C   UNL     1       1.820   7.947  20.094  0.00  0.00    +0.000 C 
ATOM     19  C   UNL     1       2.312   7.811  18.850  0.00  0.00    +0.000 C 
ATOM     20  C   UNL     1       1.968   8.820  17.791  0.00  0.00    +0.000 C 
ATOM     21  C   UNL     1       0.658   9.547  18.131  0.00  0.00    +0.000 C 
BRANCH  16  22
ATOM     22  C   UNL     1      -0.613  10.791  19.753  0.00  0.00    +0.000 C 
BRANCH  22  24
ATOM     23  C   UNL     1      -2.582  11.462  18.337  0.00  0.00    +0.000 C 
ATOM     24  C   UNL     1      -1.604  10.599  18.640  0.00  0.00    +0.000 C 
ENDBRANCH  22  24
ENDBRANCH  16  22
ENDBRANCH   1  19
TORSDOF 3
ENDMDL
MODEL 2
REMARK VINA RESULT:      -8.8      0.909      1.296
REMARK  Name = 
REMARK  3 active torsions:
REMARK  status: ('A' for Active; 'I' for Inactive)
REMARK    1  A    between atoms: C_2  and  C_3
REMARK    2  A    between atoms: C_3  and  N_4
REMARK    3  A    between atoms: C_7  and  C_8
REMARK                            x       y       z     vdW  Elec       q    Type
REMARK                         _______ _______ _______ _____ _____    ______ ____
ROOT
ATOM      1  C   UNL     1       2.995   6.495  18.674  0.00  0.00    +0.000 C 
ATOM      2  C   UNL     1       3.897   6.780  17.704  0.00  0.00    +0.000 C 
ATOM      3  C   UNL     1       4.765   5.875  16.940  0.00  0.00    +0.000 A 
ATOM      4  C   UNL     1       5.049   6.207  15.607  0.00  0.00    +0.000 A 
ATOM      5  C   UNL     1       5.907   5.420  14.841  0.00  0.00    +0.000 A 
ATOM      6  C   UNL     1       6.496   4.292  15.403  0.00  0.00    +0.000 A 
ATOM      7  C   UNL     1       6.238   3.961  16.733  0.00  0.00    +0.000 A 
ATOM      8  C   UNL     1       5.383   4.754  17.518  0.00  0.00    +0.000 A 
ATOM      9  C   UNL     1       5.164   4.424  18.972  0.00  0.00    +0.000 C 
ATOM     10  C   UNL     1       3.721   4.125  19.299  0.00  0.00    +0.000 A 
ATOM     11  C   UNL     1       3.379   2.841  19.764  0.00  0.00    +0.000 A 
ATOM     12  C   UNL     1       2.067   2.530  20.109  0.00  0.00    +0.000 A 
ATOM     13  C   UNL     1       1.076   3.497  19.991  0.00  0.00    +0.000 A 
ATOM     14  C   UNL     1       1.400   4.771  19.517  0.00  0.00    +0.000 A 
ATOM     15  C   UNL     1       2.719   5.110  19.160  0.00  0.00    +0.000 A 
ENDROOT
BRANCH   1  19
ATOM     16  N   UNL     1       0.777   9.932  20.188  0.00  0.00    +0.000 NA
ATOM     17  C   UNL     1       0.965   8.758  21.058  0.00  0.00    +0.000 C 
ATOM     18  C   UNL     1       1.825   7.667  20.494  0.00  0.00    +0.000 C 
ATOM     19  C   UNL     1       2.282   7.653  19.229  0.00  0.00    +0.000 C 
ATOM     20  C   UNL     1       1.974   8.799  18.306  0.00  0.00    +0.000 C 
ATOM     21  C   UNL     1       0.714   9.550  18.765  0.00  0.00    +0.000 C 
BRANCH  16  22
ATOM     22  C   UNL     1      -0.449  10.658  20.557  0.00  0.00    +0.000 C 
BRANCH  22  24
ATOM     23  C   UNL     1      -1.186  11.076  22.927  0.00  0.00    +0.000 C 
ATOM     24  C   UNL     1      -0.348  11.308  21.908  0.00  0.00    +0.000 C 
ENDBRANCH  22  24
ENDBRANCH  16  22
ENDBRANCH   1  19
TORSDOF 3
ENDMDL
MODEL 3
REMARK VINA RESULT:      -8.7      1.123      1.653
REMARK  Name = 
REMARK  3 active torsions:
REMARK  status: ('A' for Active; 'I' for Inactive)
REMARK    1  A    between atoms: C_2  and  C_3
REMARK    2  A    between atoms: C_3  and  N_4
REMARK    3  A    between atoms: C_7  and  C_8
REMARK                            x       y       z     vdW  Elec       q    Type
REMARK                         _______ _______ _______ _____ _____    ______ ____
ROOT
ATOM      1  C   UNL     1       2.950   6.388  18.628  0.00  0.00    +0.000 C 
ATOM      2  C   UNL     1       3.880   6.736  17.706  0.00  0.00    +0.000 C 
ATOM      3  C   UNL     1       4.847   5.895  16.990  0.00  0.00    +0.000 A 
ATOM      4  C   UNL     1       5.177   6.250  15.673  0.00  0.00    +0.000 A 
ATOM      5  C   UNL     1       6.126   5.526  14.954  0.00  0.00    +0.000 A 
ATOM      6  C   UNL     1       6.759   4.438  15.546  0.00  0.00    +0.000 A 
ATOM      7  C   UNL     1       6.454   4.086  16.861  0.00  0.00    +0.000 A 
ATOM      8  C   UNL     1       5.508   4.816  17.599  0.00  0.00    +0.000 A 
ATOM      9  C   UNL     1       5.235   4.467  19.041  0.00  0.00    +0.000 C 
ATOM     10  C   UNL     1       3.801   4.070  19.290  0.00  0.00    +0.000 A 
ATOM     11  C   UNL     1       3.523   2.764  19.737  0.00  0.00    +0.000 A 
ATOM     12  C   UNL     1       2.218   2.364  20.012  0.00  0.00    +0.000 A 
ATOM     13  C   UNL     1       1.171   3.263  19.842  0.00  0.00    +0.000 A 
ATOM     14  C   UNL     1       1.433   4.557  19.386  0.00  0.00    +0.000 A 
ATOM     15  C   UNL     1       2.743   4.985  19.099  0.00  0.00    +0.000 A 
ENDROOT
BRANCH   1  19
ATOM     16  N   UNL     1       0.619   9.675  20.299  0.00  0.00    +0.000 NA
ATOM     17  C   UNL     1       1.131   9.784  18.920  0.00  0.00    +0.000 C 
ATOM     18  C   UNL     1       1.832   8.568  18.394  0.00  0.00    +0.000 C 
ATOM     19  C   UNL     1       2.132   7.493  19.145  0.00  0.00    +0.000 C 
ATOM     20  C   UNL     1       1.719   7.447  20.589  0.00  0.00    +0.000 C 
ATOM     21  C   UNL     1       1.512   8.864  21.147  0.00  0.00    +0.000 C 
BRANCH  16  22
ATOM     22  C   UNL     1       0.453  11.010  20.896  0.00  0.00    +0.000 C 
BRANCH  22  24
ATOM     23  C   UNL     1      -1.020  10.897  22.933  0.00  0.00    +0.000 C 
ATOM     24  C   UNL     1      -0.851  11.153  21.629  0.00  0.00    +0.000 C 
ENDBRANCH  22  24
ENDBRANCH  16  22
ENDBRANCH   1  19
TORSDOF 3
ENDMDL
MODEL 4
REMARK VINA RESULT:      -8.6      0.799      1.302
REMARK  Name = 
REMARK  3 active torsions:
REMARK  status: ('A' for Active; 'I' for Inactive)
REMARK    1  A    between atoms: C_2  and  C_3
REMARK    2  A    between atoms: C_3  and  N_4
REMARK    3  A    between atoms: C_7  and  C_8
REMARK                            x       y       z     vdW  Elec       q    Type
REMARK                         _______ _______ _______ _____ _____    ______ ____
ROOT
ATOM      1  C   UNL     1       2.988   6.549  18.437  0.00  0.00    +0.000 C 
ATOM      2  C   UNL     1       3.910   6.827  17.484  0.00  0.00    +0.000 C 
ATOM      3  C   UNL     1       4.944   5.961  16.904  0.00  0.00    +0.000 A 
ATOM      4  C   UNL     1       5.275   6.149  15.553  0.00  0.00    +0.000 A 
ATOM      5  C   UNL     1       6.283   5.397  14.952  0.00  0.00    +0.000 A 
ATOM      6  C   UNL     1       6.975   4.449  15.699  0.00  0.00    +0.000 A 
ATOM      7  C   UNL     1       6.669   4.265  17.047  0.00  0.00    +0.000 A 
ATOM      8  C   UNL     1       5.663   5.026  17.666  0.00  0.00    +0.000 A 
ATOM      9  C   UNL     1       5.387   4.866  19.139  0.00  0.00    +0.000 C 
ATOM     10  C   UNL     1       3.977   4.411  19.429  0.00  0.00    +0.000 A 
ATOM     11  C   UNL     1       3.778   3.165  20.054  0.00  0.00    +0.000 A 
ATOM     12  C   UNL     1       2.497   2.720  20.371  0.00  0.00    +0.000 A 
ATOM     13  C   UNL     1       1.397   3.512  20.065  0.00  0.00    +0.000 A 
ATOM     14  C   UNL     1       1.581   4.744  19.433  0.00  0.00    +0.000 A 
ATOM     15  C   UNL     1       2.865   5.216  19.100  0.00  0.00    +0.000 A 
ENDROOT
BRANCH   1  19
ATOM     16  N   UNL     1       0.418   9.875  19.601  0.00  0.00    +0.000 NA
ATOM     17  C   UNL     1       0.915   9.802  18.215  0.00  0.00    +0.000 C 
ATOM     18  C   UNL     1       1.707   8.574  17.878  0.00  0.00    +0.000 C 
ATOM     19  C   UNL     1       2.089   7.658  18.785  0.00  0.00    +0.000 C 
ATOM     20  C   UNL     1       1.685   7.811  20.224  0.00  0.00    +0.000 C 
ATOM     21  C   UNL     1       1.372   9.279  20.553  0.00  0.00    +0.000 C 
BRANCH  16  22
ATOM     22  C   UNL     1       0.151  11.272  19.981  0.00  0.00    +0.000 C 
BRANCH  22  24
ATOM     23  C   UNL     1      -0.427  13.236  18.518  0.00  0.00    +0.000 C 
ATOM     24  C   UNL     1       0.395  12.233  18.852  0.00  0.00    +0.000 C 
ENDBRANCH  22  24
ENDBRANCH  16  22
ENDBRANCH   1  19
TORSDOF 3
ENDMDL
MODEL 5
REMARK VINA RESULT:      -8.0      1.255      3.969
REMARK  Name = 
REMARK  3 active torsions:
REMARK  status: ('A' for Active; 'I' for Inactive)
REMARK    1  A    between atoms: C_2  and  C_3
REMARK    2  A    between atoms: C_3  and  N_4
REMARK    3  A    between atoms: C_7  and  C_8
REMARK                            x       y       z     vdW  Elec       q    Type
REMARK                         _______ _______ _______ _____ _____    ______ ____
ROOT
ATOM      1  C   UNL     1       2.416   6.681  19.027  0.00  0.00    +0.000 C 
ATOM      2  C   UNL     1       1.833   5.837  19.911  0.00  0.00    +0.000 C 
ATOM      3  C   UNL     1       2.058   4.402  20.121  0.00  0.00    +0.000 A 
ATOM      4  C   UNL     1       1.940   3.903  21.428  0.00  0.00    +0.000 A 
ATOM      5  C   UNL     1       2.091   2.543  21.691  0.00  0.00    +0.000 A 
ATOM      6  C   UNL     1       2.356   1.663  20.646  0.00  0.00    +0.000 A 
ATOM      7  C   UNL     1       2.456   2.142  19.340  0.00  0.00    +0.000 A 
ATOM      8  C   UNL     1       2.295   3.510  19.062  0.00  0.00    +0.000 A 
ATOM      9  C   UNL     1       2.339   4.007  17.640  0.00  0.00    +0.000 C 
ATOM     10  C   UNL     1       3.447   5.003  17.397  0.00  0.00    +0.000 A 
ATOM     11  C   UNL     1       4.472   4.676  16.488  0.00  0.00    +0.000 A 
ATOM     12  C   UNL     1       5.495   5.577  16.208  0.00  0.00    +0.000 A 
ATOM     13  C   UNL     1       5.511   6.818  16.834  0.00  0.00    +0.000 A 
ATOM     14  C   UNL     1       4.508   7.149  17.748  0.00  0.00    +0.000 A 
ATOM     15  C   UNL     1       3.463   6.255  18.050  0.00  0.00    +0.000 A 
ENDROOT
BRANCH   1  19
ATOM     16  N   UNL     1       0.945  10.787  19.088  0.00  0.00    +0.000 NA
ATOM     17  C   UNL     1       0.976  10.015  20.343  0.00  0.00    +0.000 C 
ATOM     18  C   UNL     1       1.590   8.651  20.248  0.00  0.00    +0.000 C 
ATOM     19  C   UNL     1       1.957   8.075  19.090  0.00  0.00    +0.000 C 
ATOM     20  C   UNL     1       1.800   8.823  17.795  0.00  0.00    +0.000 C 
ATOM     21  C   UNL     1       0.726   9.915  17.919  0.00  0.00    +0.000 C 
BRANCH  16  22
ATOM     22  C   UNL     1      -0.107  11.815  19.138  0.00  0.00    +0.000 C 
BRANCH  22  24
ATOM     23  C   UNL     1      -2.529  11.679  18.468  0.00  0.00    +0.000 C 
ATOM     24  C   UNL     1      -1.488  11.225  19.178  0.00  0.00    +0.000 C 
ENDBRANCH  22  24
ENDBRANCH  16  22
ENDBRANCH   1  19
TORSDOF 3
ENDMDL
MODEL 6
REMARK VINA RESULT:      -7.9      1.478      4.151
REMARK  Name = 
REMARK  3 active torsions:
REMARK  status: ('A' for Active; 'I' for Inactive)
REMARK    1  A    between atoms: C_2  and  C_3
REMARK    2  A    between atoms: C_3  and  N_4
REMARK    3  A    between atoms: C_7  and  C_8
REMARK                            x       y       z     vdW  Elec       q    Type
REMARK                         _______ _______ _______ _____ _____    ______ ____
ROOT
ATOM      1  C   UNL     1       2.438   6.686  19.024  0.00  0.00    +0.000 C 
ATOM      2  C   UNL     1       1.853   5.857  19.920  0.00  0.00    +0.000 C 
ATOM      3  C   UNL     1       2.058   4.419  20.137  0.00  0.00    +0.000 A 
ATOM      4  C   UNL     1       1.950   3.931  21.448  0.00  0.00    +0.000 A 
ATOM      5  C   UNL     1       2.082   2.570  21.717  0.00  0.00    +0.000 A 
ATOM      6  C   UNL     1       2.321   1.679  20.675  0.00  0.00    +0.000 A 
ATOM      7  C   UNL     1       2.411   2.149  19.365  0.00  0.00    +0.000 A 
ATOM      8  C   UNL     1       2.268   3.518  19.081  0.00  0.00    +0.000 A 
ATOM      9  C   UNL     1       2.301   4.005  17.654  0.00  0.00    +0.000 C 
ATOM     10  C   UNL     1       3.421   4.982  17.391  0.00  0.00    +0.000 A 
ATOM     11  C   UNL     1       4.428   4.632  16.471  0.00  0.00    +0.000 A 
ATOM     12  C   UNL     1       5.462   5.516  16.172  0.00  0.00    +0.000 A 
ATOM     13  C   UNL     1       5.506   6.760  16.789  0.00  0.00    +0.000 A 
ATOM     14  C   UNL     1       4.520   7.113  17.714  0.00  0.00    +0.000 A 
ATOM     15  C   UNL     1       3.465   6.237  18.035  0.00  0.00    +0.000 A 
ENDROOT
BRANCH   1  19
ATOM     16  N   UNL     1       1.040  10.817  19.070  0.00  0.00    +0.000 NA
ATOM     17  C   UNL     1       0.992  10.028  20.313  0.00  0.00    +0.000 C 
ATOM     18  C   UNL     1       1.586   8.654  20.229  0.00  0.00    +0.000 C 
ATOM     19  C   UNL     1       2.001   8.087  19.083  0.00  0.00    +0.000 C 
ATOM     20  C   UNL     1       1.925   8.856  17.794  0.00  0.00    +0.000 C 
ATOM     21  C   UNL     1       0.866   9.966  17.879  0.00  0.00    +0.000 C 
BRANCH  16  22
ATOM     22  C   UNL     1       0.006  11.865  19.081  0.00  0.00    +0.000 C 
BRANCH  22  24
ATOM     23  C   UNL     1       1.803  13.494  18.411  0.00  0.00    +0.000 C 
ATOM     24  C   UNL     1       0.509  13.176  18.547  0.00  0.00    +0.000 C 
ENDBRANCH  22  24
ENDBRANCH  16  22
ENDBRANCH   1  19
TORSDOF 3
ENDMDL
MODEL 7
REMARK VINA RESULT:      -7.6      2.248      8.280
REMARK  Name = 
REMARK  3 active torsions:
REMARK  status: ('A' for Active; 'I' for Inactive)
REMARK    1  A    between atoms: C_2  and  C_3
REMARK    2  A    between atoms: C_3  and  N_4
REMARK    3  A    between atoms: C_7  and  C_8
REMARK                            x       y       z     vdW  Elec       q    Type
REMARK                         _______ _______ _______ _____ _____    ______ ____
ROOT
ATOM      1  C   UNL     1       0.370  10.027  18.412  0.00  0.00    +0.000 C 
ATOM      2  C   UNL     1      -0.743   9.574  17.787  0.00  0.00    +0.000 C 
ATOM      3  C   UNL     1      -1.969  10.294  17.423  0.00  0.00    +0.000 A 
ATOM      4  C   UNL     1      -2.630   9.911  16.246  0.00  0.00    +0.000 A 
ATOM      5  C   UNL     1      -3.826  10.518  15.868  0.00  0.00    +0.000 A 
ATOM      6  C   UNL     1      -4.379  11.514  16.668  0.00  0.00    +0.000 A 
ATOM      7  C   UNL     1      -3.742  11.890  17.850  0.00  0.00    +0.000 A 
ATOM      8  C   UNL     1      -2.542  11.277  18.246  0.00  0.00    +0.000 A 
ATOM      9  C   UNL     1      -1.899  11.645  19.559  0.00  0.00    +0.000 C 
ATOM     10  C   UNL     1      -0.511  12.215  19.397  0.00  0.00    +0.000 A 
ATOM     11  C   UNL     1      -0.267  13.542  19.801  0.00  0.00    +0.000 A 
ATOM     12  C   UNL     1       1.005  14.099  19.701  0.00  0.00    +0.000 A 
ATOM     13  C   UNL     1       2.052  13.339  19.192  0.00  0.00    +0.000 A 
ATOM     14  C   UNL     1       1.820  12.027  18.775  0.00  0.00    +0.000 A 
ATOM     15  C   UNL     1       0.543  11.441  18.864  0.00  0.00    +0.000 A 
ENDROOT
BRANCH   1  19
ATOM     16  N   UNL     1       3.398   6.963  19.099  0.00  0.00    +0.000 NA
ATOM     17  C   UNL     1       3.208   7.493  17.737  0.00  0.00    +0.000 C 
ATOM     18  C   UNL     1       2.219   8.613  17.612  0.00  0.00    +0.000 C 
ATOM     19  C   UNL     1       1.428   9.028  18.617  0.00  0.00    +0.000 C 
ATOM     20  C   UNL     1       1.539   8.390  19.973  0.00  0.00    +0.000 C 
ATOM     21  C   UNL     1       2.140   6.980  19.869  0.00  0.00    +0.000 C 
BRANCH  16  22
ATOM     22  C   UNL     1       3.926   5.590  19.050  0.00  0.00    +0.000 C 
BRANCH  22  24
ATOM     23  C   UNL     1       2.476   3.964  17.790  0.00  0.00    +0.000 C 
ATOM     24  C   UNL     1       3.484   4.846  17.822  0.00  0.00    +0.000 C 
ENDBRANCH  22  24
ENDBRANCH  16  22
ENDBRANCH   1  19
TORSDOF 3
ENDMDL
MODEL 8
REMARK VINA RESULT:      -7.6      1.780      4.413
REMARK  Name = 
REMARK  3 active torsions:
REMARK  status: ('A' for Active; 'I' for Inactive)
REMARK    1  A    between atoms: C_2  and  C_3
REMARK    2  A    between atoms: C_3  and  N_4
REMARK    3  A    between atoms: C_7  and  C_8
REMARK                            x       y       z     vdW  Elec       q    Type
REMARK                         _______ _______ _______ _____ _____    ______ ____
ROOT
ATOM      1  C   UNL     1       2.438   6.705  18.857  0.00  0.00    +0.000 C 
ATOM      2  C   UNL     1       1.843   5.912  19.780  0.00  0.00    +0.000 C 
ATOM      3  C   UNL     1       2.067   4.491  20.074  0.00  0.00    +0.000 A 
ATOM      4  C   UNL     1       1.933   4.067  21.405  0.00  0.00    +0.000 A 
ATOM      5  C   UNL     1       2.081   2.724  21.747  0.00  0.00    +0.000 A 
ATOM      6  C   UNL     1       2.362   1.787  20.757  0.00  0.00    +0.000 A 
ATOM      7  C   UNL     1       2.479   2.191  19.428  0.00  0.00    +0.000 A 
ATOM      8  C   UNL     1       2.320   3.541  19.071  0.00  0.00    +0.000 A 
ATOM      9  C   UNL     1       2.383   3.956  17.623  0.00  0.00    +0.000 C 
ATOM     10  C   UNL     1       3.493   4.940  17.339  0.00  0.00    +0.000 A 
ATOM     11  C   UNL     1       4.530   4.563  16.464  0.00  0.00    +0.000 A 
ATOM     12  C   UNL     1       5.556   5.449  16.147  0.00  0.00    +0.000 A 
ATOM     13  C   UNL     1       5.562   6.723  16.702  0.00  0.00    +0.000 A 
ATOM     14  C   UNL     1       4.546   7.104  17.582  0.00  0.00    +0.000 A 
ATOM     15  C   UNL     1       3.498   6.226  17.920  0.00  0.00    +0.000 A 
ENDROOT
BRANCH   1  19
ATOM     16  N   UNL     1       1.128  10.865  18.945  0.00  0.00    +0.000 NA
ATOM     17  C   UNL     1       1.933  10.388  17.806  0.00  0.00    +0.000 C 
ATOM     18  C   UNL     1       2.251   8.923  17.809  0.00  0.00    +0.000 C 
ATOM     19  C   UNL     1       1.976   8.099  18.835  0.00  0.00    +0.000 C 
ATOM     20  C   UNL     1       1.269   8.626  20.052  0.00  0.00    +0.000 C 
ATOM     21  C   UNL     1       1.464  10.144  20.187  0.00  0.00    +0.000 C 
BRANCH  16  22
ATOM     22  C   UNL     1       1.323  12.310  19.147  0.00  0.00    +0.000 C 
BRANCH  22  24
ATOM     23  C   UNL     1       3.070  14.015  18.537  0.00  0.00    +0.000 C 
ATOM     24  C   UNL     1       2.426  12.867  18.292  0.00  0.00    +0.000 C 
ENDBRANCH  22  24
ENDBRANCH  16  22
ENDBRANCH   1  19
TORSDOF 3
ENDMDL
MODEL 9
REMARK VINA RESULT:      -7.5      3.837      5.618
REMARK  Name = 
REMARK  3 active torsions:
REMARK  status: ('A' for Active; 'I' for Inactive)
REMARK    1  A    between atoms: C_2  and  C_3
REMARK    2  A    between atoms: C_3  and  N_4
REMARK    3  A    between atoms: C_7  and  C_8
REMARK                            x       y       z     vdW  Elec       q    Type
REMARK                         _______ _______ _______ _____ _____    ______ ____
ROOT
ATOM      1  C   UNL     1       4.761   4.250  16.613  0.00  0.00    +0.000 C 
ATOM      2  C   UNL     1       4.782   3.910  15.302  0.00  0.00    +0.000 C 
ATOM      3  C   UNL     1       5.799   4.189  14.280  0.00  0.00    +0.000 A 
ATOM      4  C   UNL     1       6.005   3.228  13.279  0.00  0.00    +0.000 A 
ATOM      5  C   UNL     1       6.918   3.451  12.250  0.00  0.00    +0.000 A 
ATOM      6  C   UNL     1       7.633   4.644  12.208  0.00  0.00    +0.000 A 
ATOM      7  C   UNL     1       7.425   5.616  13.186  0.00  0.00    +0.000 A 
ATOM      8  C   UNL     1       6.498   5.405  14.222  0.00  0.00    +0.000 A 
ATOM      9  C   UNL     1       6.233   6.490  15.235  0.00  0.00    +0.000 C 
ATOM     10  C   UNL     1       6.556   6.069  16.648  0.00  0.00    +0.000 A 
ATOM     11  C   UNL     1       7.572   6.750  17.346  0.00  0.00    +0.000 A 
ATOM     12  C   UNL     1       7.882   6.418  18.663  0.00  0.00    +0.000 A 
ATOM     13  C   UNL     1       7.183   5.400  19.299  0.00  0.00    +0.000 A 
ATOM     14  C   UNL     1       6.183   4.708  18.613  0.00  0.00    +0.000 A 
ATOM     15  C   UNL     1       5.851   5.022  17.281  0.00  0.00    +0.000 A 
ENDROOT
BRANCH   1  19
ATOM     16  N   UNL     1       1.356   2.827  18.938  0.00  0.00    +0.000 NA
ATOM     17  C   UNL     1       1.489   4.269  18.667  0.00  0.00    +0.000 C 
ATOM     18  C   UNL     1       2.632   4.656  17.777  0.00  0.00    +0.000 C 
ATOM     19  C   UNL     1       3.580   3.799  17.361  0.00  0.00    +0.000 C 
ATOM     20  C   UNL     1       3.506   2.349  17.752  0.00  0.00    +0.000 C 
ATOM     21  C   UNL     1       2.672   2.167  19.029  0.00  0.00    +0.000 C 
BRANCH  16  22
ATOM     22  C   UNL     1       0.605   2.601  20.184  0.00  0.00    +0.000 C 
BRANCH  22  24
ATOM     23  C   UNL     1       2.178   3.594  21.880  0.00  0.00    +0.000 C 
ATOM     24  C   UNL     1       1.498   2.548  21.392  0.00  0.00    +0.000 C 
ENDBRANCH  22  24
ENDBRANCH  16  22
ENDBRANCH   1  19
TORSDOF 3
ENDMDL
