MODEL 1
REMARK VINA RESULT:      -8.7      0.000      0.000
REMARK  Name = 
REMARK  10 active torsions:
REMARK  status: ('A' for Active; 'I' for Inactive)
REMARK    1  A    between atoms: C_1  and  C_2
REMARK    2  A    between atoms: C_5  and  C_6
REMARK    3  A    between atoms: C_7  and  C_8
REMARK    4  A    between atoms: C_8  and  C_9
REMARK    5  A    between atoms: C_9  and  C_10
REMARK    6  A    between atoms: N_12  and  C_13
REMARK    7  A    between atoms: C_13  and  C_14
REMARK    8  A    between atoms: C_17  and  O_18
REMARK    9  A    between atoms: O_18  and  C_19
REMARK   10  A    between atoms: C_27  and  C_28
REMARK                            x       y       z     vdW  Elec       q    Type
REMARK                         _______ _______ _______ _____ _____    ______ ____
ROOT
ATOM      1  C   UNL     1       2.180   7.643  19.069  0.00  0.00    +0.000 A 
ATOM      2  C   UNL     1       2.191   8.167  17.792  0.00  0.00    +0.000 A 
ATOM      3  N   UNL     1       1.553   9.378  17.626  0.00  0.00    +0.000 NA
ATOM      4  C   UNL     1       1.078   9.796  18.781  0.00  0.00    +0.000 A 
ATOM      5  S   UNL     1       1.310   8.714  20.098  0.00  0.00    +0.000 S 
ENDROOT
BRANCH   1   6
ATOM      6  C   UNL     1       2.845   6.409  19.575  0.00  0.00    +0.000 C 
BRANCH   6   9
ATOM      7  C   UNL     1       4.121   4.501  18.713  0.00  0.00    +0.000 C 
ATOM      8  O   UNL     1       4.607   4.275  19.814  0.00  0.00    +0.000 OA
ATOM      9  N   UNL     1       3.247   5.548  18.483  0.00  0.00    +0.000 N 
ATOM     10  H   UNL     1       2.835   5.674  17.568  0.00  0.00    +0.000 HD
BRANCH   7  11
ATOM     11  C   UNL     1       4.429   3.666  17.480  0.00  0.00    +0.000 C 
BRANCH  11  12
ATOM     12  C   UNL     1       4.392   4.502  16.197  0.00  0.00    +0.000 C 
BRANCH  12  19
ATOM     13  C   UNL     1       6.014   3.775  13.443  0.00  0.00    +0.000 C 
ATOM     14  C   UNL     1       6.437   4.659  14.555  0.00  0.00    +0.000 A 
ATOM     15  N   UNL     1       7.618   5.283  14.486  0.00  0.00    +0.000 NA
ATOM     16  O   UNL     1       7.714   6.030  15.639  0.00  0.00    +0.000 OA
ATOM     17  C   UNL     1       6.601   5.850  16.396  0.00  0.00    +0.000 A 
ATOM     18  C   UNL     1       6.570   6.609  17.662  0.00  0.00    +0.000 C 
ATOM     19  C   UNL     1       5.742   4.976  15.759  0.00  0.00    +0.000 A 
ENDBRANCH  12  19
ENDBRANCH  11  12
ENDBRANCH   7  11
ENDBRANCH   6   9
ENDBRANCH   1   6
BRANCH   4  20
ATOM     20  O   UNL     1       0.431  10.957  18.934  0.00  0.00    +0.000 OA
BRANCH  20  21
ATOM     21  C   UNL     1       1.090  12.099  19.341  0.00  0.00    +0.000 A 
ATOM     22  C   UNL     1       0.882  12.697  20.587  0.00  0.00    +0.000 A 
ATOM     23  C   UNL     1       1.489  13.914  20.893  0.00  0.00    +0.000 A 
ATOM     24  C   UNL     1       2.271  14.560  19.941  0.00  0.00    +0.000 A 
ATOM     25  C   UNL     1       2.540  13.956  18.708  0.00  0.00    +0.000 A 
ATOM     26  C   UNL     1       1.925  12.726  18.407  0.00  0.00    +0.000 A 
ATOM     27  C   UNL     1       3.422  14.636  17.698  0.00  0.00    +0.000 C 
ATOM     28  C   UNL     1       4.048  15.906  18.269  0.00  0.00    +0.000 C 
ATOM     29  C   UNL     1       3.036  16.653  19.145  0.00  0.00    +0.000 C 
ATOM     30  O   UNL     1       2.709  15.816  20.277  0.00  0.00    +0.000 OA
BRANCH  29  31
ATOM     31  C   UNL     1       1.796  17.215  18.443  0.00  0.00    +0.000 A 
ATOM     32  C   UNL     1       1.899  17.816  17.176  0.00  0.00    +0.000 A 
ATOM     33  C   UNL     1       0.773  18.323  16.521  0.00  0.00    +0.000 A 
ATOM     34  C   UNL     1      -0.483  18.218  17.111  0.00  0.00    +0.000 A 
ATOM     35  C   UNL     1      -0.612  17.607  18.354  0.00  0.00    +0.000 A 
ATOM     36  C   UNL     1       0.515  17.104  19.011  0.00  0.00    +0.000 A 
ENDBRANCH  29  31
ENDBRANCH  20  21
ENDBRANCH   4  20
TORSDOF 8
ENDMDL
MODEL 2
REMARK VINA RESULT:      -8.7      0.890      1.800
REMARK  Name = 
REMARK  10 active torsions:
REMARK  status: ('A' for Active; 'I' for Inactive)
REMARK    1  A    between atoms: C_1  and  C_2
REMARK    2  A    between atoms: C_5  and  C_6
REMARK    3  A    between atoms: C_7  and  C_8
REMARK    4  A    between atoms: C_8  and  C_9
REMARK    5  A    between atoms: C_9  and  C_10
REMARK    6  A    between atoms: N_12  and  C_13
REMARK    7  A    between atoms: C_13  and  C_14
REMARK    8  A    between atoms: C_17  and  O_18
REMARK    9  A    between atoms: O_18  and  C_19
REMARK   10  A    between atoms: C_27  and  C_28
REMARK                            x       y       z     vdW  Elec       q    Type
REMARK                         _______ _______ _______ _____ _____    ______ ____
ROOT
ATOM      1  C   UNL     1       2.242   7.736  19.158  0.00  0.00    +0.000 A 
ATOM      2  C   UNL     1       2.577   8.237  17.916  0.00  0.00    +0.000 A 
ATOM      3  N   UNL     1       2.026   9.456  17.584  0.00  0.00    +0.000 NA
ATOM      4  C   UNL     1       1.292   9.903  18.581  0.00  0.00    +0.000 A 
ATOM      5  S   UNL     1       1.170   8.840  19.929  0.00  0.00    +0.000 S 
ENDROOT
BRANCH   1   6
ATOM      6  C   UNL     1       2.736   6.498  19.827  0.00  0.00    +0.000 C 
BRANCH   6   9
ATOM      7  C   UNL     1       2.853   4.764  18.099  0.00  0.00    +0.000 C 
ATOM      8  O   UNL     1       1.643   4.585  18.136  0.00  0.00    +0.000 OA
ATOM      9  N   UNL     1       3.499   5.679  18.910  0.00  0.00    +0.000 N 
ATOM     10  H   UNL     1       4.495   5.826  18.817  0.00  0.00    +0.000 HD
BRANCH   7  11
ATOM     11  C   UNL     1       3.779   3.997  17.167  0.00  0.00    +0.000 C 
BRANCH  11  12
ATOM     12  C   UNL     1       5.230   4.015  17.658  0.00  0.00    +0.000 C 
BRANCH  12  19
ATOM     13  C   UNL     1       7.391   6.310  18.554  0.00  0.00    +0.000 C 
ATOM     14  C   UNL     1       7.083   5.819  17.191  0.00  0.00    +0.000 A 
ATOM     15  N   UNL     1       7.742   6.325  16.144  0.00  0.00    +0.000 NA
ATOM     16  O   UNL     1       7.253   5.667  15.038  0.00  0.00    +0.000 OA
ATOM     17  C   UNL     1       6.302   4.775  15.419  0.00  0.00    +0.000 A 
ATOM     18  C   UNL     1       5.701   3.988  14.326  0.00  0.00    +0.000 C 
ATOM     19  C   UNL     1       6.140   4.826  16.790  0.00  0.00    +0.000 A 
ENDBRANCH  12  19
ENDBRANCH  11  12
ENDBRANCH   7  11
ENDBRANCH   6   9
ENDBRANCH   1   6
BRANCH   4  20
ATOM     20  O   UNL     1       0.653  11.078  18.556  0.00  0.00    +0.000 OA
BRANCH  20  21
ATOM     21  C   UNL     1       1.253  12.233  19.016  0.00  0.00    +0.000 A 
ATOM     22  C   UNL     1       1.040  12.746  20.299  0.00  0.00    +0.000 A 
ATOM     23  C   UNL     1       1.582  13.977  20.661  0.00  0.00    +0.000 A 
ATOM     24  C   UNL     1       2.302  14.722  19.733  0.00  0.00    +0.000 A 
ATOM     25  C   UNL     1       2.576  14.206  18.462  0.00  0.00    +0.000 A 
ATOM     26  C   UNL     1       2.027  12.960  18.103  0.00  0.00    +0.000 A 
ATOM     27  C   UNL     1       3.392  14.995  17.475  0.00  0.00    +0.000 C 
ATOM     28  C   UNL     1       3.956  16.266  18.106  0.00  0.00    +0.000 C 
ATOM     29  C   UNL     1       2.923  16.899  19.045  0.00  0.00    +0.000 C 
ATOM     30  O   UNL     1       2.673  15.981  20.132  0.00  0.00    +0.000 OA
BRANCH  29  31
ATOM     31  C   UNL     1       1.636  17.425  18.402  0.00  0.00    +0.000 A 
ATOM     32  C   UNL     1       0.408  17.345  19.084  0.00  0.00    +0.000 A 
ATOM     33  C   UNL     1      -0.771  17.830  18.513  0.00  0.00    +0.000 A 
ATOM     34  C   UNL     1      -0.743  18.427  17.256  0.00  0.00    +0.000 A 
ATOM     35  C   UNL     1       0.463  18.538  16.573  0.00  0.00    +0.000 A 
ATOM     36  C   UNL     1       1.643  18.049  17.143  0.00  0.00    +0.000 A 
ENDBRANCH  29  31
ENDBRANCH  20  21
ENDBRANCH   4  20
TORSDOF 8
ENDMDL
MODEL 3
REMARK VINA RESULT:      -8.3      4.056      6.641
REMARK  Name = 
REMARK  10 active torsions:
REMARK  status: ('A' for Active; 'I' for Inactive)
REMARK    1  A    between atoms: C_1  and  C_2
REMARK    2  A    between atoms: C_5  and  C_6
REMARK    3  A    between atoms: C_7  and  C_8
REMARK    4  A    between atoms: C_8  and  C_9
REMARK    5  A    between atoms: C_9  and  C_10
REMARK    6  A    between atoms: N_12  and  C_13
REMARK    7  A    between atoms: C_13  and  C_14
REMARK    8  A    between atoms: C_17  and  O_18
REMARK    9  A    between atoms: O_18  and  C_19
REMARK   10  A    between atoms: C_27  and  C_28
REMARK                            x       y       z     vdW  Elec       q    Type
REMARK                         _______ _______ _______ _____ _____    ______ ____
ROOT
ATOM      1  C   UNL     1       1.704  12.591  19.021  0.00  0.00    +0.000 A 
ATOM      2  C   UNL     1       2.660  13.070  18.148  0.00  0.00    +0.000 A 
ATOM      3  N   UNL     1       3.433  14.115  18.606  0.00  0.00    +0.000 NA
ATOM      4  C   UNL     1       3.090  14.419  19.840  0.00  0.00    +0.000 A 
ATOM      5  S   UNL     1       1.771  13.513  20.473  0.00  0.00    +0.000 S 
ENDROOT
BRANCH   1   6
ATOM      6  C   UNL     1       0.783  11.431  18.850  0.00  0.00    +0.000 C 
BRANCH   6   9
ATOM      7  C   UNL     1       1.602   9.122  18.784  0.00  0.00    +0.000 C 
ATOM      8  O   UNL     1       1.238   8.915  19.934  0.00  0.00    +0.000 OA
ATOM      9  N   UNL     1       1.438  10.343  18.156  0.00  0.00    +0.000 N 
ATOM     10  H   UNL     1       1.714  10.459  17.190  0.00  0.00    +0.000 HD
BRANCH   7  11
ATOM     11  C   UNL     1       2.279   8.067  17.923  0.00  0.00    +0.000 C 
BRANCH  11  12
ATOM     12  C   UNL     1       2.753   6.869  18.751  0.00  0.00    +0.000 C 
BRANCH  12  19
ATOM     13  C   UNL     1       5.559   6.723  17.061  0.00  0.00    +0.000 C 
ATOM     14  C   UNL     1       4.508   5.687  17.191  0.00  0.00    +0.000 A 
ATOM     15  N   UNL     1       4.663   4.511  16.574  0.00  0.00    +0.000 NA
ATOM     16  O   UNL     1       3.548   3.769  16.894  0.00  0.00    +0.000 OA
ATOM     17  C   UNL     1       2.726   4.499  17.692  0.00  0.00    +0.000 A 
ATOM     18  C   UNL     1       1.491   3.813  18.121  0.00  0.00    +0.000 C 
ATOM     19  C   UNL     1       3.281   5.743  17.917  0.00  0.00    +0.000 A 
ENDBRANCH  12  19
ENDBRANCH  11  12
ENDBRANCH   7  11
ENDBRANCH   6   9
ENDBRANCH   1   6
BRANCH   4  20
ATOM     20  O   UNL     1       3.687  15.380  20.555  0.00  0.00    +0.000 OA
BRANCH  20  21
ATOM     21  C   UNL     1       5.037  15.333  20.835  0.00  0.00    +0.000 A 
ATOM     22  C   UNL     1       5.965  16.215  20.273  0.00  0.00    +0.000 A 
ATOM     23  C   UNL     1       7.328  16.041  20.504  0.00  0.00    +0.000 A 
ATOM     24  C   UNL     1       7.775  14.962  21.260  0.00  0.00    +0.000 A 
ATOM     25  C   UNL     1       6.864  14.099  21.879  0.00  0.00    +0.000 A 
ATOM     26  C   UNL     1       5.488  14.282  21.643  0.00  0.00    +0.000 A 
ATOM     27  C   UNL     1       7.349  12.959  22.732  0.00  0.00    +0.000 C 
ATOM     28  C   UNL     1       8.863  13.007  22.921  0.00  0.00    +0.000 C 
ATOM     29  C   UNL     1       9.550  13.440  21.621  0.00  0.00    +0.000 C 
ATOM     30  O   UNL     1       9.135  14.789  21.314  0.00  0.00    +0.000 OA
BRANCH  29  31
ATOM     31  C   UNL     1       9.424  12.492  20.424  0.00  0.00    +0.000 A 
ATOM     32  C   UNL     1       9.313  12.998  19.116  0.00  0.00    +0.000 A 
ATOM     33  C   UNL     1       9.208  12.143  18.015  0.00  0.00    +0.000 A 
ATOM     34  C   UNL     1       9.234  10.764  18.198  0.00  0.00    +0.000 A 
ATOM     35  C   UNL     1       9.366  10.241  19.480  0.00  0.00    +0.000 A 
ATOM     36  C   UNL     1       9.467  11.096  20.582  0.00  0.00    +0.000 A 
ENDBRANCH  29  31
ENDBRANCH  20  21
ENDBRANCH   4  20
TORSDOF 8
ENDMDL
MODEL 4
REMARK VINA RESULT:      -8.3      1.107      1.956
REMARK  Name = 
REMARK  10 active torsions:
REMARK  status: ('A' for Active; 'I' for Inactive)
REMARK    1  A    between atoms: C_1  and  C_2
REMARK    2  A    between atoms: C_5  and  C_6
REMARK    3  A    between atoms: C_7  and  C_8
REMARK    4  A    between atoms: C_8  and  C_9
REMARK    5  A    between atoms: C_9  and  C_10
REMARK    6  A    between atoms: N_12  and  C_13
REMARK    7  A    between atoms: C_13  and  C_14
REMARK    8  A    between atoms: C_17  and  O_18
REMARK    9  A    between atoms: O_18  and  C_19
REMARK   10  A    between atoms: C_27  and  C_28
REMARK                            x       y       z     vdW  Elec       q    Type
REMARK                         _______ _______ _______ _____ _____    ______ ____
ROOT
ATOM      1  C   UNL     1       1.430   7.739  20.460  0.00  0.00    +0.000 A 
ATOM      2  C   UNL     1       0.576   8.396  21.323  0.00  0.00    +0.000 A 
ATOM      3  N   UNL     1       0.162   9.651  20.930  0.00  0.00    +0.000 NA
ATOM      4  C   UNL     1       0.676   9.945  19.755  0.00  0.00    +0.000 A 
ATOM      5  S   UNL     1       1.740   8.758  19.108  0.00  0.00    +0.000 S 
ENDROOT
BRANCH   1   6
ATOM      6  C   UNL     1       1.977   6.356  20.564  0.00  0.00    +0.000 C 
BRANCH   6   9
ATOM      7  C   UNL     1       3.536   5.339  18.970  0.00  0.00    +0.000 C 
ATOM      8  O   UNL     1       4.457   5.384  19.775  0.00  0.00    +0.000 OA
ATOM      9  N   UNL     1       2.268   5.811  19.256  0.00  0.00    +0.000 N 
ATOM     10  H   UNL     1       1.525   5.715  18.577  0.00  0.00    +0.000 HD
BRANCH   7  11
ATOM     11  C   UNL     1       3.684   4.768  17.567  0.00  0.00    +0.000 C 
BRANCH  11  12
ATOM     12  C   UNL     1       5.019   4.040  17.383  0.00  0.00    +0.000 C 
BRANCH  12  19
ATOM     13  C   UNL     1       7.334   6.115  18.422  0.00  0.00    +0.000 C 
ATOM     14  C   UNL     1       7.018   5.709  17.033  0.00  0.00    +0.000 A 
ATOM     15  N   UNL     1       7.738   6.207  16.022  0.00  0.00    +0.000 NA
ATOM     16  O   UNL     1       7.224   5.638  14.879  0.00  0.00    +0.000 OA
ATOM     17  C   UNL     1       6.197   4.809  15.201  0.00  0.00    +0.000 A 
ATOM     18  C   UNL     1       5.560   4.120  14.063  0.00  0.00    +0.000 C 
ATOM     19  C   UNL     1       6.009   4.813  16.570  0.00  0.00    +0.000 A 
ENDBRANCH  12  19
ENDBRANCH  11  12
ENDBRANCH   7  11
ENDBRANCH   6   9
ENDBRANCH   1   6
BRANCH   4  20
ATOM     20  O   UNL     1       0.428  11.090  19.108  0.00  0.00    +0.000 OA
BRANCH  20  21
ATOM     21  C   UNL     1       1.069  12.263  19.454  0.00  0.00    +0.000 A 
ATOM     22  C   UNL     1       0.812  12.950  20.644  0.00  0.00    +0.000 A 
ATOM     23  C   UNL     1       1.404  14.189  20.881  0.00  0.00    +0.000 A 
ATOM     24  C   UNL     1       2.219  14.768  19.913  0.00  0.00    +0.000 A 
ATOM     25  C   UNL     1       2.535  14.076  18.739  0.00  0.00    +0.000 A 
ATOM     26  C   UNL     1       1.936  12.824  18.508  0.00  0.00    +0.000 A 
ATOM     27  C   UNL     1       3.452  14.686  17.715  0.00  0.00    +0.000 C 
ATOM     28  C   UNL     1       4.053  15.998  18.213  0.00  0.00    +0.000 C 
ATOM     29  C   UNL     1       3.006  16.801  18.994  0.00  0.00    +0.000 C 
ATOM     30  O   UNL     1       2.640  16.048  20.171  0.00  0.00    +0.000 OA
BRANCH  29  31
ATOM     31  C   UNL     1       1.791  17.303  18.207  0.00  0.00    +0.000 A 
ATOM     32  C   UNL     1       0.496  17.202  18.745  0.00  0.00    +0.000 A 
ATOM     33  C   UNL     1      -0.619  17.666  18.042  0.00  0.00    +0.000 A 
ATOM     34  C   UNL     1      -0.459  18.261  16.794  0.00  0.00    +0.000 A 
ATOM     35  C   UNL     1       0.816  18.392  16.252  0.00  0.00    +0.000 A 
ATOM     36  C   UNL     1       1.931  17.924  16.954  0.00  0.00    +0.000 A 
ENDBRANCH  29  31
ENDBRANCH  20  21
ENDBRANCH   4  20
TORSDOF 8
ENDMDL
MODEL 5
REMARK VINA RESULT:      -8.2      3.554      6.408
REMARK  Name = 
REMARK  10 active torsions:
REMARK  status: ('A' for Active; 'I' for Inactive)
REMARK    1  A    between atoms: C_1  and  C_2
REMARK    2  A    between atoms: C_5  and  C_6
REMARK    3  A    between atoms: C_7  and  C_8
REMARK    4  A    between atoms: C_8  and  C_9
REMARK    5  A    between atoms: C_9  and  C_10
REMARK    6  A    between atoms: N_12  and  C_13
REMARK    7  A    between atoms: C_13  and  C_14
REMARK    8  A    between atoms: C_17  and  O_18
REMARK    9  A    between atoms: O_18  and  C_19
REMARK   10  A    between atoms: C_27  and  C_28
REMARK                            x       y       z     vdW  Elec       q    Type
REMARK                         _______ _______ _______ _____ _____    ______ ____
ROOT
ATOM      1  C   UNL     1       1.311  11.322  19.212  0.00  0.00    +0.000 A 
ATOM      2  C   UNL     1       1.233  11.546  20.572  0.00  0.00    +0.000 A 
ATOM      3  N   UNL     1       1.857  12.685  21.036  0.00  0.00    +0.000 NA
ATOM      4  C   UNL     1       2.387  13.348  20.030  0.00  0.00    +0.000 A 
ATOM      5  S   UNL     1       2.226  12.590  18.494  0.00  0.00    +0.000 S 
ENDROOT
BRANCH   1   6
ATOM      6  C   UNL     1       0.676  10.237  18.409  0.00  0.00    +0.000 C 
BRANCH   6   9
ATOM      7  C   UNL     1       2.062   8.243  18.743  0.00  0.00    +0.000 C 
ATOM      8  O   UNL     1       1.630   8.080  19.876  0.00  0.00    +0.000 OA
ATOM      9  N   UNL     1       1.666   9.293  17.935  0.00  0.00    +0.000 N 
ATOM     10  H   UNL     1       2.015   9.367  16.989  0.00  0.00    +0.000 HD
BRANCH   7  11
ATOM     11  C   UNL     1       3.084   7.317  18.100  0.00  0.00    +0.000 C 
BRANCH  11  12
ATOM     12  C   UNL     1       3.466   6.156  19.023  0.00  0.00    +0.000 C 
BRANCH  12  19
ATOM     13  C   UNL     1       1.018   4.303  20.173  0.00  0.00    +0.000 C 
ATOM     14  C   UNL     1       1.923   4.029  19.033  0.00  0.00    +0.000 A 
ATOM     15  N   UNL     1       1.771   2.903  18.328  0.00  0.00    +0.000 NA
ATOM     16  O   UNL     1       2.731   2.943  17.342  0.00  0.00    +0.000 OA
ATOM     17  C   UNL     1       3.459   4.085  17.459  0.00  0.00    +0.000 A 
ATOM     18  C   UNL     1       4.521   4.262  16.450  0.00  0.00    +0.000 C 
ATOM     19  C   UNL     1       2.994   4.825  18.529  0.00  0.00    +0.000 A 
ENDBRANCH  12  19
ENDBRANCH  11  12
ENDBRANCH   7  11
ENDBRANCH   6   9
ENDBRANCH   1   6
BRANCH   4  20
ATOM     20  O   UNL     1       3.036  14.509  20.173  0.00  0.00    +0.000 OA
BRANCH  20  21
ATOM     21  C   UNL     1       4.253  14.732  19.560  0.00  0.00    +0.000 A 
ATOM     22  C   UNL     1       4.432  14.671  18.175  0.00  0.00    +0.000 A 
ATOM     23  C   UNL     1       5.707  14.789  17.627  0.00  0.00    +0.000 A 
ATOM     24  C   UNL     1       6.814  14.925  18.459  0.00  0.00    +0.000 A 
ATOM     25  C   UNL     1       6.655  15.044  19.843  0.00  0.00    +0.000 A 
ATOM     26  C   UNL     1       5.364  14.926  20.391  0.00  0.00    +0.000 A 
ATOM     27  C   UNL     1       7.849  15.235  20.737  0.00  0.00    +0.000 C 
ATOM     28  C   UNL     1       9.129  15.426  19.926  0.00  0.00    +0.000 C 
ATOM     29  C   UNL     1       9.129  14.501  18.704  0.00  0.00    +0.000 C 
ATOM     30  O   UNL     1       8.038  14.889  17.840  0.00  0.00    +0.000 OA
BRANCH  29  31
ATOM     31  C   UNL     1       9.164  12.994  18.977  0.00  0.00    +0.000 A 
ATOM     32  C   UNL     1       9.412  12.504  20.272  0.00  0.00    +0.000 A 
ATOM     33  C   UNL     1       9.436  11.132  20.535  0.00  0.00    +0.000 A 
ATOM     34  C   UNL     1       9.188  10.221  19.513  0.00  0.00    +0.000 A 
ATOM     35  C   UNL     1       8.917  10.683  18.229  0.00  0.00    +0.000 A 
ATOM     36  C   UNL     1       8.898  12.056  17.965  0.00  0.00    +0.000 A 
ENDBRANCH  29  31
ENDBRANCH  20  21
ENDBRANCH   4  20
TORSDOF 8
ENDMDL
MODEL 6
REMARK VINA RESULT:      -8.2      3.475      6.156
REMARK  Name = 
REMARK  10 active torsions:
REMARK  status: ('A' for Active; 'I' for Inactive)
REMARK    1  A    between atoms: C_1  and  C_2
REMARK    2  A    between atoms: C_5  and  C_6
REMARK    3  A    between atoms: C_7  and  C_8
REMARK    4  A    between atoms: C_8  and  C_9
REMARK    5  A    between atoms: C_9  and  C_10
REMARK    6  A    between atoms: N_12  and  C_13
REMARK    7  A    between atoms: C_13  and  C_14
REMARK    8  A    between atoms: C_17  and  O_18
REMARK    9  A    between atoms: O_18  and  C_19
REMARK   10  A    between atoms: C_27  and  C_28
REMARK                            x       y       z     vdW  Elec       q    Type
REMARK                         _______ _______ _______ _____ _____    ______ ____
ROOT
ATOM      1  C   UNL     1       1.259  11.471  19.538  0.00  0.00    +0.000 A 
ATOM      2  C   UNL     1       1.111  11.831  20.862  0.00  0.00    +0.000 A 
ATOM      3  N   UNL     1       1.754  12.986  21.253  0.00  0.00    +0.000 NA
ATOM      4  C   UNL     1       2.371  13.526  20.223  0.00  0.00    +0.000 A 
ATOM      5  S   UNL     1       2.270  12.627  18.760  0.00  0.00    +0.000 S 
ENDROOT
BRANCH   1   6
ATOM      6  C   UNL     1       0.628  10.336  18.805  0.00  0.00    +0.000 C 
BRANCH   6   9
ATOM      7  C   UNL     1       2.162   8.510  18.239  0.00  0.00    +0.000 C 
ATOM      8  O   UNL     1       2.418   9.005  17.150  0.00  0.00    +0.000 OA
ATOM      9  N   UNL     1       1.273   9.082  19.131  0.00  0.00    +0.000 N 
ATOM     10  H   UNL     1       1.123   8.662  20.039  0.00  0.00    +0.000 HD
BRANCH   7  11
ATOM     11  C   UNL     1       2.785   7.211  18.730  0.00  0.00    +0.000 C 
BRANCH  11  12
ATOM     12  C   UNL     1       3.702   6.582  17.678  0.00  0.00    +0.000 C 
BRANCH  12  19
ATOM     13  C   UNL     1       6.955   6.956  17.516  0.00  0.00    +0.000 C 
ATOM     14  C   UNL     1       6.184   5.889  18.195  0.00  0.00    +0.000 A 
ATOM     15  N   UNL     1       6.835   4.926  18.857  0.00  0.00    +0.000 NA
ATOM     16  O   UNL     1       5.860   4.108  19.384  0.00  0.00    +0.000 OA
ATOM     17  C   UNL     1       4.633   4.574  19.034  0.00  0.00    +0.000 A 
ATOM     18  C   UNL     1       3.492   3.792  19.548  0.00  0.00    +0.000 C 
ATOM     19  C   UNL     1       4.770   5.713  18.265  0.00  0.00    +0.000 A 
ENDBRANCH  12  19
ENDBRANCH  11  12
ENDBRANCH   7  11
ENDBRANCH   6   9
ENDBRANCH   1   6
BRANCH   4  20
ATOM     20  O   UNL     1       3.060  14.671  20.294  0.00  0.00    +0.000 OA
BRANCH  20  21
ATOM     21  C   UNL     1       4.245  14.841  19.608  0.00  0.00    +0.000 A 
ATOM     22  C   UNL     1       4.345  14.728  18.218  0.00  0.00    +0.000 A 
ATOM     23  C   UNL     1       5.590  14.792  17.596  0.00  0.00    +0.000 A 
ATOM     24  C   UNL     1       6.745  14.927  18.360  0.00  0.00    +0.000 A 
ATOM     25  C   UNL     1       6.667  15.097  19.747  0.00  0.00    +0.000 A 
ATOM     26  C   UNL     1       5.406  15.033  20.368  0.00  0.00    +0.000 A 
ATOM     27  C   UNL     1       7.914  15.286  20.566  0.00  0.00    +0.000 C 
ATOM     28  C   UNL     1       9.151  15.414  19.679  0.00  0.00    +0.000 C 
ATOM     29  C   UNL     1       9.059  14.448  18.492  0.00  0.00    +0.000 C 
ATOM     30  O   UNL     1       7.931  14.837  17.676  0.00  0.00    +0.000 OA
BRANCH  29  31
ATOM     31  C   UNL     1       9.071  12.951  18.817  0.00  0.00    +0.000 A 
ATOM     32  C   UNL     1       9.371  12.500  20.114  0.00  0.00    +0.000 A 
ATOM     33  C   UNL     1       9.375  11.137  20.425  0.00  0.00    +0.000 A 
ATOM     34  C   UNL     1       9.055  10.199  19.448  0.00  0.00    +0.000 A 
ATOM     35  C   UNL     1       8.732  10.623  18.163  0.00  0.00    +0.000 A 
ATOM     36  C   UNL     1       8.733  11.986  17.852  0.00  0.00    +0.000 A 
ENDBRANCH  29  31
ENDBRANCH  20  21
ENDBRANCH   4  20
TORSDOF 8
ENDMDL
MODEL 7
REMARK VINA RESULT:      -8.1      4.023      6.569
REMARK  Name = 
REMARK  10 active torsions:
REMARK  status: ('A' for Active; 'I' for Inactive)
REMARK    1  A    between atoms: C_1  and  C_2
REMARK    2  A    between atoms: C_5  and  C_6
REMARK    3  A    between atoms: C_7  and  C_8
REMARK    4  A    between atoms: C_8  and  C_9
REMARK    5  A    between atoms: C_9  and  C_10
REMARK    6  A    between atoms: N_12  and  C_13
REMARK    7  A    between atoms: C_13  and  C_14
REMARK    8  A    between atoms: C_17  and  O_18
REMARK    9  A    between atoms: O_18  and  C_19
REMARK   10  A    between atoms: C_27  and  C_28
REMARK                            x       y       z     vdW  Elec       q    Type
REMARK                         _______ _______ _______ _____ _____    ______ ____
ROOT
ATOM      1  C   UNL     1       5.929   5.254  17.799  0.00  0.00    +0.000 A 
ATOM      2  C   UNL     1       5.011   5.005  16.799  0.00  0.00    +0.000 A 
ATOM      3  N   UNL     1       3.683   5.101  17.156  0.00  0.00    +0.000 NA
ATOM      4  C   UNL     1       3.582   5.452  18.420  0.00  0.00    +0.000 A 
ATOM      5  S   UNL     1       5.079   5.603  19.255  0.00  0.00    +0.000 S 
ENDROOT
BRANCH   1   6
ATOM      6  C   UNL     1       7.416   5.307  17.707  0.00  0.00    +0.000 C 
BRANCH   6   9
ATOM      7  C   UNL     1       8.117   7.630  18.059  0.00  0.00    +0.000 C 
ATOM      8  O   UNL     1       7.851   7.930  16.903  0.00  0.00    +0.000 OA
ATOM      9  N   UNL     1       7.954   6.349  18.556  0.00  0.00    +0.000 N 
ATOM     10  H   UNL     1       8.145   6.153  19.529  0.00  0.00    +0.000 HD
BRANCH   7  11
ATOM     11  C   UNL     1       8.663   8.624  19.073  0.00  0.00    +0.000 C 
BRANCH  11  12
ATOM     12  C   UNL     1       8.728  10.044  18.505  0.00  0.00    +0.000 C 
BRANCH  12  19
ATOM     13  C   UNL     1      11.382  11.620  17.400  0.00  0.00    +0.000 C 
ATOM     14  C   UNL     1      10.809  11.628  18.765  0.00  0.00    +0.000 A 
ATOM     15  N   UNL     1      11.392  12.363  19.719  0.00  0.00    +0.000 NA
ATOM     16  O   UNL     1      10.630  12.181  20.851  0.00  0.00    +0.000 OA
ATOM     17  C   UNL     1       9.600  11.338  20.580  0.00  0.00    +0.000 A 
ATOM     18  C   UNL     1       8.692  11.066  21.711  0.00  0.00    +0.000 C 
ATOM     19  C   UNL     1       9.659  10.942  19.258  0.00  0.00    +0.000 A 
ENDBRANCH  12  19
ENDBRANCH  11  12
ENDBRANCH   7  11
ENDBRANCH   6   9
ENDBRANCH   1   6
BRANCH   4  20
ATOM     20  O   UNL     1       2.412   5.648  19.040  0.00  0.00    +0.000 OA
BRANCH  20  21
ATOM     21  C   UNL     1       2.047   6.895  19.507  0.00  0.00    +0.000 A 
ATOM     22  C   UNL     1       1.419   7.093  20.740  0.00  0.00    +0.000 A 
ATOM     23  C   UNL     1       0.969   8.361  21.103  0.00  0.00    +0.000 A 
ATOM     24  C   UNL     1       1.105   9.428  20.219  0.00  0.00    +0.000 A 
ATOM     25  C   UNL     1       1.778   9.266  19.004  0.00  0.00    +0.000 A 
ATOM     26  C   UNL     1       2.233   7.983  18.645  0.00  0.00    +0.000 A 
ATOM     27  C   UNL     1       1.962  10.430  18.070  0.00  0.00    +0.000 C 
ATOM     28  C   UNL     1       1.476  11.734  18.700  0.00  0.00    +0.000 C 
ATOM     29  C   UNL     1       0.194  11.492  19.505  0.00  0.00    +0.000 C 
ATOM     30  O   UNL     1       0.506  10.602  20.600  0.00  0.00    +0.000 OA
BRANCH  29  31
ATOM     31  C   UNL     1      -1.045  11.053  18.717  0.00  0.00    +0.000 A 
ATOM     32  C   UNL     1      -2.295  11.652  18.955  0.00  0.00    +0.000 A 
ATOM     33  C   UNL     1      -3.430  11.268  18.235  0.00  0.00    +0.000 A 
ATOM     34  C   UNL     1      -3.333  10.293  17.247  0.00  0.00    +0.000 A 
ATOM     35  C   UNL     1      -2.102   9.704  16.979  0.00  0.00    +0.000 A 
ATOM     36  C   UNL     1      -0.967  10.085  17.702  0.00  0.00    +0.000 A 
ENDBRANCH  29  31
ENDBRANCH  20  21
ENDBRANCH   4  20
TORSDOF 8
ENDMDL
MODEL 8
REMARK VINA RESULT:      -8.1      3.798      5.309
REMARK  Name = 
REMARK  10 active torsions:
REMARK  status: ('A' for Active; 'I' for Inactive)
REMARK    1  A    between atoms: C_1  and  C_2
REMARK    2  A    between atoms: C_5  and  C_6
REMARK    3  A    between atoms: C_7  and  C_8
REMARK    4  A    between atoms: C_8  and  C_9
REMARK    5  A    between atoms: C_9  and  C_10
REMARK    6  A    between atoms: N_12  and  C_13
REMARK    7  A    between atoms: C_13  and  C_14
REMARK    8  A    between atoms: C_17  and  O_18
REMARK    9  A    between atoms: O_18  and  C_19
REMARK   10  A    between atoms: C_27  and  C_28
REMARK                            x       y       z     vdW  Elec       q    Type
REMARK                         _______ _______ _______ _____ _____    ______ ____
ROOT
ATOM      1  C   UNL     1       1.565   8.220  20.154  0.00  0.00    +0.000 A 
ATOM      2  C   UNL     1       1.486   9.055  19.058  0.00  0.00    +0.000 A 
ATOM      3  N   UNL     1       1.029  10.333  19.300  0.00  0.00    +0.000 NA
ATOM      4  C   UNL     1       0.784  10.486  20.584  0.00  0.00    +0.000 A 
ATOM      5  S   UNL     1       1.018   9.077  21.543  0.00  0.00    +0.000 S 
ENDROOT
BRANCH   1   6
ATOM      6  C   UNL     1       2.091   6.827  20.227  0.00  0.00    +0.000 C 
BRANCH   6   9
ATOM      7  C   UNL     1       3.270   5.239  18.779  0.00  0.00    +0.000 C 
ATOM      8  O   UNL     1       3.788   4.683  19.738  0.00  0.00    +0.000 OA
ATOM      9  N   UNL     1       2.424   6.325  18.911  0.00  0.00    +0.000 N 
ATOM     10  H   UNL     1       1.983   6.729  18.095  0.00  0.00    +0.000 HD
BRANCH   7  11
ATOM     11  C   UNL     1       3.504   4.806  17.339  0.00  0.00    +0.000 C 
BRANCH  11  12
ATOM     12  C   UNL     1       4.796   4.000  17.186  0.00  0.00    +0.000 C 
BRANCH  12  19
ATOM     13  C   UNL     1       6.941   6.114  18.480  0.00  0.00    +0.000 C 
ATOM     14  C   UNL     1       6.822   5.670  17.072  0.00  0.00    +0.000 A 
ATOM     15  N   UNL     1       7.676   6.144  16.159  0.00  0.00    +0.000 NA
ATOM     16  O   UNL     1       7.327   5.542  14.971  0.00  0.00    +0.000 OA
ATOM     17  C   UNL     1       6.266   4.717  15.170  0.00  0.00    +0.000 A 
ATOM     18  C   UNL     1       5.795   3.994  13.972  0.00  0.00    +0.000 C 
ATOM     19  C   UNL     1       5.889   4.757  16.498  0.00  0.00    +0.000 A 
ENDBRANCH  12  19
ENDBRANCH  11  12
ENDBRANCH   7  11
ENDBRANCH   6   9
ENDBRANCH   1   6
BRANCH   4  20
ATOM     20  O   UNL     1       0.352  11.634  21.119  0.00  0.00    +0.000 OA
BRANCH  20  21
ATOM     21  C   UNL     1      -0.995  11.918  21.221  0.00  0.00    +0.000 A 
ATOM     22  C   UNL     1      -1.789  12.254  20.120  0.00  0.00    +0.000 A 
ATOM     23  C   UNL     1      -3.114  12.644  20.303  0.00  0.00    +0.000 A 
ATOM     24  C   UNL     1      -3.640  12.743  21.588  0.00  0.00    +0.000 A 
ATOM     25  C   UNL     1      -2.883  12.360  22.700  0.00  0.00    +0.000 A 
ATOM     26  C   UNL     1      -1.546  11.964  22.507  0.00  0.00    +0.000 A 
ATOM     27  C   UNL     1      -3.469  12.426  24.083  0.00  0.00    +0.000 C 
ATOM     28  C   UNL     1      -4.950  12.792  24.046  0.00  0.00    +0.000 C 
ATOM     29  C   UNL     1      -5.212  13.850  22.968  0.00  0.00    +0.000 C 
ATOM     30  O   UNL     1      -4.902  13.272  21.680  0.00  0.00    +0.000 OA
BRANCH  29  31
ATOM     31  C   UNL     1      -4.564  15.223  23.174  0.00  0.00    +0.000 A 
ATOM     32  C   UNL     1      -4.407  15.755  24.466  0.00  0.00    +0.000 A 
ATOM     33  C   UNL     1      -3.809  17.002  24.668  0.00  0.00    +0.000 A 
ATOM     34  C   UNL     1      -3.334  17.731  23.583  0.00  0.00    +0.000 A 
ATOM     35  C   UNL     1      -3.457  17.214  22.297  0.00  0.00    +0.000 A 
ATOM     36  C   UNL     1      -4.060  15.968  22.095  0.00  0.00    +0.000 A 
ENDBRANCH  29  31
ENDBRANCH  20  21
ENDBRANCH   4  20
TORSDOF 8
ENDMDL
MODEL 9
REMARK VINA RESULT:      -8.0      3.712      6.416
REMARK  Name = 
REMARK  10 active torsions:
REMARK  status: ('A' for Active; 'I' for Inactive)
REMARK    1  A    between atoms: C_1  and  C_2
REMARK    2  A    between atoms: C_5  and  C_6
REMARK    3  A    between atoms: C_7  and  C_8
REMARK    4  A    between atoms: C_8  and  C_9
REMARK    5  A    between atoms: C_9  and  C_10
REMARK    6  A    between atoms: N_12  and  C_13
REMARK    7  A    between atoms: C_13  and  C_14
REMARK    8  A    between atoms: C_17  and  O_18
REMARK    9  A    between atoms: O_18  and  C_19
REMARK   10  A    between atoms: C_27  and  C_28
REMARK                            x       y       z     vdW  Elec       q    Type
REMARK                         _______ _______ _______ _____ _____    ______ ____
ROOT
ATOM      1  C   UNL     1       1.791  11.438  19.017  0.00  0.00    +0.000 A 
ATOM      2  C   UNL     1       1.593  11.775  20.341  0.00  0.00    +0.000 A 
ATOM      3  N   UNL     1       2.053  13.015  20.727  0.00  0.00    +0.000 NA
ATOM      4  C   UNL     1       2.579  13.640  19.694  0.00  0.00    +0.000 A 
ATOM      5  S   UNL     1       2.612  12.731  18.234  0.00  0.00    +0.000 S 
ENDROOT
BRANCH   1   6
ATOM      6  C   UNL     1       1.338  10.218  18.289  0.00  0.00    +0.000 C 
BRANCH   6   9
ATOM      7  C   UNL     1       2.253   8.004  18.812  0.00  0.00    +0.000 C 
ATOM      8  O   UNL     1       2.944   8.004  17.801  0.00  0.00    +0.000 OA
ATOM      9  N   UNL     1       1.406   9.048  19.139  0.00  0.00    +0.000 N 
ATOM     10  H   UNL     1       0.885   9.027  20.005  0.00  0.00    +0.000 HD
BRANCH   7  11
ATOM     11  C   UNL     1       2.241   6.858  19.812  0.00  0.00    +0.000 C 
BRANCH  11  12
ATOM     12  C   UNL     1       3.280   5.787  19.468  0.00  0.00    +0.000 C 
BRANCH  12  19
ATOM     13  C   UNL     1       4.286   4.602  16.582  0.00  0.00    +0.000 C 
ATOM     14  C   UNL     1       3.166   4.132  17.430  0.00  0.00    +0.000 A 
ATOM     15  N   UNL     1       2.435   3.085  17.033  0.00  0.00    +0.000 NA
ATOM     16  O   UNL     1       1.500   2.883  18.023  0.00  0.00    +0.000 OA
ATOM     17  C   UNL     1       1.665   3.808  19.005  0.00  0.00    +0.000 A 
ATOM     18  C   UNL     1       0.729   3.697  20.140  0.00  0.00    +0.000 C 
ATOM     19  C   UNL     1       2.716   4.644  18.683  0.00  0.00    +0.000 A 
ENDBRANCH  12  19
ENDBRANCH  11  12
ENDBRANCH   7  11
ENDBRANCH   6   9
ENDBRANCH   1   6
BRANCH   4  20
ATOM     20  O   UNL     1       3.086  14.877  19.761  0.00  0.00    +0.000 OA
BRANCH  20  21
ATOM     21  C   UNL     1       4.429  15.115  19.549  0.00  0.00    +0.000 A 
ATOM     22  C   UNL     1       4.954  15.468  18.303  0.00  0.00    +0.000 A 
ATOM     23  C   UNL     1       6.332  15.579  18.127  0.00  0.00    +0.000 A 
ATOM     24  C   UNL     1       7.193  15.297  19.183  0.00  0.00    +0.000 A 
ATOM     25  C   UNL     1       6.691  14.997  20.453  0.00  0.00    +0.000 A 
ATOM     26  C   UNL     1       5.298  14.888  20.624  0.00  0.00    +0.000 A 
ATOM     27  C   UNL     1       7.624  14.736  21.603  0.00  0.00    +0.000 C 
ATOM     28  C   UNL     1       9.077  14.996  21.214  0.00  0.00    +0.000 C 
ATOM     29  C   UNL     1       9.342  14.510  19.784  0.00  0.00    +0.000 C 
ATOM     30  O   UNL     1       8.531  15.293  18.880  0.00  0.00    +0.000 OA
BRANCH  29  31
ATOM     31  C   UNL     1       9.226  13.003  19.534  0.00  0.00    +0.000 A 
ATOM     32  C   UNL     1       8.942  12.509  18.249  0.00  0.00    +0.000 A 
ATOM     33  C   UNL     1       8.844  11.136  18.006  0.00  0.00    +0.000 A 
ATOM     34  C   UNL     1       9.052  10.228  19.040  0.00  0.00    +0.000 A 
ATOM     35  C   UNL     1       9.357  10.693  20.315  0.00  0.00    +0.000 A 
ATOM     36  C   UNL     1       9.450  12.067  20.558  0.00  0.00    +0.000 A 
ENDBRANCH  29  31
ENDBRANCH  20  21
ENDBRANCH   4  20
TORSDOF 8
ENDMDL
