MODEL 1
REMARK VINA RESULT:      -5.8      0.000      0.000
REMARK  Name = 
REMARK  11 active torsions:
REMARK  status: ('A' for Active; 'I' for Inactive)
REMARK    1  A    between atoms: N_1  and  C_2
REMARK    2  A    between atoms: C_2  and  C_3
REMARK    3  A    between atoms: C_2  and  C_17
REMARK    4  A    between atoms: C_3  and  S_4
REMARK    5  A    between atoms: S_4  and  C_5
REMARK    6  A    between atoms: C_5  and  S_6
REMARK    7  A    between atoms: N_7  and  C_8
REMARK    8  A    between atoms: C_8  and  C_9
REMARK    9  A    between atoms: C_9  and  C_10
REMARK   10  A    between atoms: C_10  and  C_11
REMARK   11  A    between atoms: C_17  and  O_19
REMARK                            x       y       z     vdW  Elec       q    Type
REMARK                         _______ _______ _______ _____ _____    ______ ____
ROOT
ATOM      1  C   UNK     1       2.466   4.750  18.576  0.00  0.00    +0.000 C 
ATOM      2  N   UNK     1       3.101   4.219  17.584  0.00  0.00    +0.000 NA
ENDROOT
BRANCH   1   3
ATOM      3  S   UNK     1       2.890   6.394  19.200  0.00  0.00    +0.000 S 
ATOM      4  H   UNK     1       3.864   5.949  20.109  0.00  0.00    +0.000 HD
ENDBRANCH   1   3
BRANCH   1   5
ATOM      5  S   UNK     1       1.240   3.737  19.417  0.00  0.00    +0.000 S 
BRANCH   5   6
ATOM      6  C   UNK     1       2.189   2.174  19.640  0.00  0.00    +0.000 C 
BRANCH   6   7
ATOM      7  C   UNK     1       3.034   2.045  20.930  0.00  0.00    +0.000 C 
BRANCH   7   8
ATOM      8  N   UNK     1       2.648   3.044  21.928  0.00  0.00    +0.000 NA
ATOM      9  H   UNK     1       3.492   3.578  22.238  0.00  0.00    +0.000 HD
ATOM     10  H   UNK     1       2.208   2.590  22.761  0.00  0.00    +0.000 HD
ENDBRANCH   7   8
BRANCH   7  11
ATOM     11  C   UNK     1       4.521   2.092  20.664  0.00  0.00    +0.000 C 
ATOM     12  O   UNK     1       5.299   1.463  21.364  0.00  0.00    +0.000 OA
BRANCH  11  13
ATOM     13  O   UNK     1       5.005   2.811  19.625  0.00  0.00    +0.000 OA
ATOM     14  H   UNK     1       5.049   3.777  19.644  0.00  0.00    +0.000 HD
ENDBRANCH  11  13
ENDBRANCH   7  11
ENDBRANCH   6   7
ENDBRANCH   5   6
ENDBRANCH   1   5
BRANCH   2  15
ATOM     15  C   UNK     1       4.149   4.879  16.833  0.00  0.00    +0.000 C 
BRANCH  15  16
ATOM     16  C   UNK     1       5.124   3.845  16.254  0.00  0.00    +0.000 C 
BRANCH  16  17
ATOM     17  C   UNK     1       6.443   4.489  15.801  0.00  0.00    +0.000 C 
BRANCH  17  18
ATOM     18  C   UNK     1       7.030   5.396  16.859  0.00  0.00    +0.000 A 
ATOM     19  C   UNK     1       7.472   4.861  18.082  0.00  0.00    +0.000 A 
ATOM     20  C   UNK     1       8.033   5.694  19.057  0.00  0.00    +0.000 A 
ATOM     21  C   UNK     1       8.154   7.067  18.820  0.00  0.00    +0.000 A 
ATOM     22  C   UNK     1       7.717   7.606  17.610  0.00  0.00    +0.000 A 
ATOM     23  C   UNK     1       7.158   6.779  16.631  0.00  0.00    +0.000 A 
ENDBRANCH  17  18
ENDBRANCH  16  17
ENDBRANCH  15  16
ENDBRANCH   2  15
TORSDOF 11
ENDMDL
MODEL 2
REMARK VINA RESULT:      -5.8      4.032      5.766
REMARK  Name = 
REMARK  11 active torsions:
REMARK  status: ('A' for Active; 'I' for Inactive)
REMARK    1  A    between atoms: N_1  and  C_2
REMARK    2  A    between atoms: C_2  and  C_3
REMARK    3  A    between atoms: C_2  and  C_17
REMARK    4  A    between atoms: C_3  and  S_4
REMARK    5  A    between atoms: S_4  and  C_5
REMARK    6  A    between atoms: C_5  and  S_6
REMARK    7  A    between atoms: N_7  and  C_8
REMARK    8  A    between atoms: C_8  and  C_9
REMARK    9  A    between atoms: C_9  and  C_10
REMARK   10  A    between atoms: C_10  and  C_11
REMARK   11  A    between atoms: C_17  and  O_19
REMARK                            x       y       z     vdW  Elec       q    Type
REMARK                         _______ _______ _______ _____ _____    ______ ____
ROOT
ATOM      1  C   UNK     1       6.555   6.739  17.477  0.00  0.00    +0.000 C 
ATOM      2  N   UNK     1       7.133   7.878  17.280  0.00  0.00    +0.000 NA
ENDROOT
BRANCH   1   3
ATOM      3  S   UNK     1       7.288   5.476  18.545  0.00  0.00    +0.000 S 
ATOM      4  H   UNK     1       7.327   4.473  17.564  0.00  0.00    +0.000 HD
ENDBRANCH   1   3
BRANCH   1   5
ATOM      5  S   UNK     1       5.065   6.389  16.530  0.00  0.00    +0.000 S 
BRANCH   5   6
ATOM      6  C   UNK     1       4.913   4.573  16.799  0.00  0.00    +0.000 C 
BRANCH   6   7
ATOM      7  C   UNK     1       3.598   4.067  17.440  0.00  0.00    +0.000 C 
BRANCH   7   8
ATOM      8  N   UNK     1       2.752   5.177  17.881  0.00  0.00    +0.000 NA
ATOM      9  H   UNK     1       2.561   5.816  17.075  0.00  0.00    +0.000 HD
ATOM     10  H   UNK     1       3.216   5.721  18.643  0.00  0.00    +0.000 HD
ENDBRANCH   7   8
BRANCH   7  11
ATOM     11  C   UNK     1       3.835   3.086  18.566  0.00  0.00    +0.000 C 
ATOM     12  O   UNK     1       2.906   2.458  19.050  0.00  0.00    +0.000 OA
BRANCH  11  13
ATOM     13  O   UNK     1       5.087   2.871  19.030  0.00  0.00    +0.000 OA
ATOM     14  H   UNK     1       5.452   3.367  19.775  0.00  0.00    +0.000 HD
ENDBRANCH  11  13
ENDBRANCH   7  11
ENDBRANCH   6   7
ENDBRANCH   5   6
ENDBRANCH   1   5
BRANCH   2  15
ATOM     15  C   UNK     1       8.363   8.295  17.922  0.00  0.00    +0.000 C 
BRANCH  15  16
ATOM     16  C   UNK     1       8.354   9.811  18.158  0.00  0.00    +0.000 C 
BRANCH  16  17
ATOM     17  C   UNK     1       9.192  10.207  19.383  0.00  0.00    +0.000 C 
BRANCH  17  18
ATOM     18  C   UNK     1      10.276  11.204  19.039  0.00  0.00    +0.000 A 
ATOM     19  C   UNK     1      10.511  11.556  17.698  0.00  0.00    +0.000 A 
ATOM     20  C   UNK     1      11.501  12.492  17.376  0.00  0.00    +0.000 A 
ATOM     21  C   UNK     1      12.265  13.080  18.388  0.00  0.00    +0.000 A 
ATOM     22  C   UNK     1      12.040  12.735  19.721  0.00  0.00    +0.000 A 
ATOM     23  C   UNK     1      11.051  11.803  20.050  0.00  0.00    +0.000 A 
ENDBRANCH  17  18
ENDBRANCH  16  17
ENDBRANCH  15  16
ENDBRANCH   2  15
TORSDOF 11
ENDMDL
MODEL 3
REMARK VINA RESULT:      -5.7      3.383      5.885
REMARK  Name = 
REMARK  11 active torsions:
REMARK  status: ('A' for Active; 'I' for Inactive)
REMARK    1  A    between atoms: N_1  and  C_2
REMARK    2  A    between atoms: C_2  and  C_3
REMARK    3  A    between atoms: C_2  and  C_17
REMARK    4  A    between atoms: C_3  and  S_4
REMARK    5  A    between atoms: S_4  and  C_5
REMARK    6  A    between atoms: C_5  and  S_6
REMARK    7  A    between atoms: N_7  and  C_8
REMARK    8  A    between atoms: C_8  and  C_9
REMARK    9  A    between atoms: C_9  and  C_10
REMARK   10  A    between atoms: C_10  and  C_11
REMARK   11  A    between atoms: C_17  and  O_19
REMARK                            x       y       z     vdW  Elec       q    Type
REMARK                         _______ _______ _______ _____ _____    ______ ____
ROOT
ATOM      1  C   UNK     1       3.201   3.234  17.920  0.00  0.00    +0.000 C 
ATOM      2  N   UNK     1       2.342   4.134  18.268  0.00  0.00    +0.000 NA
ENDROOT
BRANCH   1   3
ATOM      3  S   UNK     1       3.284   1.631  18.756  0.00  0.00    +0.000 S 
ATOM      4  H   UNK     1       4.678   1.636  18.924  0.00  0.00    +0.000 HD
ENDBRANCH   1   3
BRANCH   1   5
ATOM      5  S   UNK     1       4.418   3.682  16.673  0.00  0.00    +0.000 S 
BRANCH   5   6
ATOM      6  C   UNK     1       5.072   5.249  17.387  0.00  0.00    +0.000 C 
BRANCH   6   7
ATOM      7  C   UNK     1       6.035   6.075  16.500  0.00  0.00    +0.000 C 
BRANCH   7   8
ATOM      8  N   UNK     1       5.328   6.717  15.391  0.00  0.00    +0.000 NA
ATOM      9  H   UNK     1       4.937   5.986  14.752  0.00  0.00    +0.000 HD
ATOM     10  H   UNK     1       5.970   7.336  14.846  0.00  0.00    +0.000 HD
ENDBRANCH   7   8
BRANCH   7  11
ATOM     11  C   UNK     1       7.210   5.267  16.000  0.00  0.00    +0.000 C 
ATOM     12  O   UNK     1       7.549   5.322  14.829  0.00  0.00    +0.000 OA
BRANCH  11  13
ATOM     13  O   UNK     1       7.918   4.493  16.855  0.00  0.00    +0.000 OA
ATOM     14  H   UNK     1       7.574   3.656  17.197  0.00  0.00    +0.000 HD
ENDBRANCH  11  13
ENDBRANCH   7  11
ENDBRANCH   6   7
ENDBRANCH   5   6
ENDBRANCH   1   5
BRANCH   2  15
ATOM     15  C   UNK     1       1.331   3.953  19.289  0.00  0.00    +0.000 C 
BRANCH  15  16
ATOM     16  C   UNK     1       1.571   4.918  20.457  0.00  0.00    +0.000 C 
BRANCH  16  17
ATOM     17  C   UNK     1       2.698   5.917  20.155  0.00  0.00    +0.000 C 
BRANCH  17  18
ATOM     18  C   UNK     1       2.169   7.258  19.700  0.00  0.00    +0.000 A 
ATOM     19  C   UNK     1       2.380   7.689  18.378  0.00  0.00    +0.000 A 
ATOM     20  C   UNK     1       1.876   8.922  17.947  0.00  0.00    +0.000 A 
ATOM     21  C   UNK     1       1.161   9.735  18.833  0.00  0.00    +0.000 A 
ATOM     22  C   UNK     1       0.949   9.316  20.146  0.00  0.00    +0.000 A 
ATOM     23  C   UNK     1       1.447   8.084  20.582  0.00  0.00    +0.000 A 
ENDBRANCH  17  18
ENDBRANCH  16  17
ENDBRANCH  15  16
ENDBRANCH   2  15
TORSDOF 11
ENDMDL
MODEL 4
REMARK VINA RESULT:      -5.7      2.714      5.736
REMARK  Name = 
REMARK  11 active torsions:
REMARK  status: ('A' for Active; 'I' for Inactive)
REMARK    1  A    between atoms: N_1  and  C_2
REMARK    2  A    between atoms: C_2  and  C_3
REMARK    3  A    between atoms: C_2  and  C_17
REMARK    4  A    between atoms: C_3  and  S_4
REMARK    5  A    between atoms: S_4  and  C_5
REMARK    6  A    between atoms: C_5  and  S_6
REMARK    7  A    between atoms: N_7  and  C_8
REMARK    8  A    between atoms: C_8  and  C_9
REMARK    9  A    between atoms: C_9  and  C_10
REMARK   10  A    between atoms: C_10  and  C_11
REMARK   11  A    between atoms: C_17  and  O_19
REMARK                            x       y       z     vdW  Elec       q    Type
REMARK                         _______ _______ _______ _____ _____    ______ ____
ROOT
ATOM      1  C   UNK     1       3.110   7.442  18.038  0.00  0.00    +0.000 C 
ATOM      2  N   UNK     1       2.909   6.576  18.975  0.00  0.00    +0.000 NA
ENDROOT
BRANCH   1   3
ATOM      3  S   UNK     1       2.026   8.876  17.827  0.00  0.00    +0.000 S 
ATOM      4  H   UNK     1       0.966   8.360  18.590  0.00  0.00    +0.000 HD
ENDBRANCH   1   3
BRANCH   1   5
ATOM      5  S   UNK     1       4.417   7.097  16.851  0.00  0.00    +0.000 S 
BRANCH   5   6
ATOM      6  C   UNK     1       5.505   6.001  17.855  0.00  0.00    +0.000 C 
BRANCH   6   7
ATOM      7  C   UNK     1       7.030   6.122  17.621  0.00  0.00    +0.000 C 
BRANCH   7   8
ATOM      8  N   UNK     1       7.362   6.057  16.197  0.00  0.00    +0.000 NA
ATOM      9  H   UNK     1       6.958   6.885  15.702  0.00  0.00    +0.000 HD
ATOM     10  H   UNK     1       6.984   5.184  15.764  0.00  0.00    +0.000 HD
ENDBRANCH   7   8
BRANCH   7  11
ATOM     11  C   UNK     1       7.827   5.109  18.411  0.00  0.00    +0.000 C 
ATOM     12  O   UNK     1       7.975   5.238  19.616  0.00  0.00    +0.000 OA
BRANCH  11  13
ATOM     13  O   UNK     1       8.361   4.031  17.793  0.00  0.00    +0.000 OA
ATOM     14  H   UNK     1       9.307   3.831  17.834  0.00  0.00    +0.000 HD
ENDBRANCH  11  13
ENDBRANCH   7  11
ENDBRANCH   6   7
ENDBRANCH   5   6
ENDBRANCH   1   5
BRANCH   2  15
ATOM     15  C   UNK     1       1.870   6.677  19.978  0.00  0.00    +0.000 C 
BRANCH  15  16
ATOM     16  C   UNK     1       2.001   5.541  21.001  0.00  0.00    +0.000 C 
BRANCH  16  17
ATOM     17  C   UNK     1       1.205   4.295  20.582  0.00  0.00    +0.000 C 
BRANCH  17  18
ATOM     18  C   UNK     1       2.018   3.359  19.717  0.00  0.00    +0.000 A 
ATOM     19  C   UNK     1       1.618   3.093  18.395  0.00  0.00    +0.000 A 
ATOM     20  C   UNK     1       2.378   2.241  17.585  0.00  0.00    +0.000 A 
ATOM     21  C   UNK     1       3.540   1.647  18.087  0.00  0.00    +0.000 A 
ATOM     22  C   UNK     1       3.943   1.905  19.397  0.00  0.00    +0.000 A 
ATOM     23  C   UNK     1       3.190   2.756  20.212  0.00  0.00    +0.000 A 
ENDBRANCH  17  18
ENDBRANCH  16  17
ENDBRANCH  15  16
ENDBRANCH   2  15
TORSDOF 11
ENDMDL
MODEL 5
REMARK VINA RESULT:      -5.7      2.799      4.196
REMARK  Name = 
REMARK  11 active torsions:
REMARK  status: ('A' for Active; 'I' for Inactive)
REMARK    1  A    between atoms: N_1  and  C_2
REMARK    2  A    between atoms: C_2  and  C_3
REMARK    3  A    between atoms: C_2  and  C_17
REMARK    4  A    between atoms: C_3  and  S_4
REMARK    5  A    between atoms: S_4  and  C_5
REMARK    6  A    between atoms: C_5  and  S_6
REMARK    7  A    between atoms: N_7  and  C_8
REMARK    8  A    between atoms: C_8  and  C_9
REMARK    9  A    between atoms: C_9  and  C_10
REMARK   10  A    between atoms: C_10  and  C_11
REMARK   11  A    between atoms: C_17  and  O_19
REMARK                            x       y       z     vdW  Elec       q    Type
REMARK                         _______ _______ _______ _____ _____    ______ ____
ROOT
ATOM      1  C   UNK     1       4.949   5.008  18.826  0.00  0.00    +0.000 C 
ATOM      2  N   UNK     1       4.280   5.663  17.937  0.00  0.00    +0.000 NA
ENDROOT
BRANCH   1   3
ATOM      3  S   UNK     1       6.662   5.431  19.226  0.00  0.00    +0.000 S 
ATOM      4  H   UNK     1       7.192   4.169  18.913  0.00  0.00    +0.000 HD
ENDBRANCH   1   3
BRANCH   1   5
ATOM      5  S   UNK     1       4.169   3.556  19.551  0.00  0.00    +0.000 S 
BRANCH   5   6
ATOM      6  C   UNK     1       2.702   4.327  20.356  0.00  0.00    +0.000 C 
BRANCH   6   7
ATOM      7  C   UNK     1       1.312   3.790  19.940  0.00  0.00    +0.000 C 
BRANCH   7   8
ATOM      8  N   UNK     1       0.752   2.902  20.961  0.00  0.00    +0.000 NA
ATOM      9  H   UNK     1       0.405   3.469  21.769  0.00  0.00    +0.000 HD
ATOM     10  H   UNK     1       1.470   2.225  21.303  0.00  0.00    +0.000 HD
ENDBRANCH   7   8
BRANCH   7  11
ATOM     11  C   UNK     1       1.323   3.120  18.585  0.00  0.00    +0.000 C 
ATOM     12  O   UNK     1       1.310   3.786  17.562  0.00  0.00    +0.000 OA
BRANCH  11  13
ATOM     13  O   UNK     1       1.377   1.772  18.492  0.00  0.00    +0.000 OA
ATOM     14  H   UNK     1       1.423   1.203  19.274  0.00  0.00    +0.000 HD
ENDBRANCH  11  13
ENDBRANCH   7  11
ENDBRANCH   6   7
ENDBRANCH   5   6
ENDBRANCH   1   5
BRANCH   2  15
ATOM     15  C   UNK     1       4.778   6.821  17.223  0.00  0.00    +0.000 C 
BRANCH  15  16
ATOM     16  C   UNK     1       5.178   6.436  15.793  0.00  0.00    +0.000 C 
BRANCH  16  17
ATOM     17  C   UNK     1       5.398   4.923  15.645  0.00  0.00    +0.000 C 
BRANCH  17  18
ATOM     18  C   UNK     1       5.964   4.556  14.291  0.00  0.00    +0.000 A 
ATOM     19  C   UNK     1       7.187   5.104  13.864  0.00  0.00    +0.000 A 
ATOM     20  C   UNK     1       7.723   4.753  12.620  0.00  0.00    +0.000 A 
ATOM     21  C   UNK     1       7.041   3.856  11.791  0.00  0.00    +0.000 A 
ATOM     22  C   UNK     1       5.827   3.310  12.206  0.00  0.00    +0.000 A 
ATOM     23  C   UNK     1       5.287   3.654  13.449  0.00  0.00    +0.000 A 
ENDBRANCH  17  18
ENDBRANCH  16  17
ENDBRANCH  15  16
ENDBRANCH   2  15
TORSDOF 11
ENDMDL
MODEL 6
REMARK VINA RESULT:      -5.7      4.096      5.749
REMARK  Name = 
REMARK  11 active torsions:
REMARK  status: ('A' for Active; 'I' for Inactive)
REMARK    1  A    between atoms: N_1  and  C_2
REMARK    2  A    between atoms: C_2  and  C_3
REMARK    3  A    between atoms: C_2  and  C_17
REMARK    4  A    between atoms: C_3  and  S_4
REMARK    5  A    between atoms: S_4  and  C_5
REMARK    6  A    between atoms: C_5  and  S_6
REMARK    7  A    between atoms: N_7  and  C_8
REMARK    8  A    between atoms: C_8  and  C_9
REMARK    9  A    between atoms: C_9  and  C_10
REMARK   10  A    between atoms: C_10  and  C_11
REMARK   11  A    between atoms: C_17  and  O_19
REMARK                            x       y       z     vdW  Elec       q    Type
REMARK                         _______ _______ _______ _____ _____    ______ ____
ROOT
ATOM      1  C   UNK     1       6.510   6.456  17.281  0.00  0.00    +0.000 C 
ATOM      2  N   UNK     1       6.973   7.658  17.377  0.00  0.00    +0.000 NA
ENDROOT
BRANCH   1   3
ATOM      3  S   UNK     1       7.426   5.035  17.923  0.00  0.00    +0.000 S 
ATOM      4  H   UNK     1       8.267   4.897  16.807  0.00  0.00    +0.000 HD
ENDBRANCH   1   3
BRANCH   1   5
ATOM      5  S   UNK     1       4.988   6.223  16.349  0.00  0.00    +0.000 S 
BRANCH   5   6
ATOM      6  C   UNK     1       3.743   6.765  17.594  0.00  0.00    +0.000 C 
BRANCH   6   7
ATOM      7  C   UNK     1       3.187   5.680  18.547  0.00  0.00    +0.000 C 
BRANCH   7   8
ATOM      8  N   UNK     1       4.026   5.528  19.737  0.00  0.00    +0.000 NA
ATOM      9  H   UNK     1       3.596   6.044  20.540  0.00  0.00    +0.000 HD
ATOM     10  H   UNK     1       4.987   5.902  19.567  0.00  0.00    +0.000 HD
ENDBRANCH   7   8
BRANCH   7  11
ATOM     11  C   UNK     1       2.973   4.350  17.861  0.00  0.00    +0.000 C 
ATOM     12  O   UNK     1       3.839   3.490  17.888  0.00  0.00    +0.000 OA
BRANCH  11  13
ATOM     13  O   UNK     1       1.804   4.088  17.232  0.00  0.00    +0.000 OA
ATOM     14  H   UNK     1       1.122   3.527  17.626  0.00  0.00    +0.000 HD
ENDBRANCH  11  13
ENDBRANCH   7  11
ENDBRANCH   6   7
ENDBRANCH   5   6
ENDBRANCH   1   5
BRANCH   2  15
ATOM     15  C   UNK     1       8.207   8.012  18.048  0.00  0.00    +0.000 C 
BRANCH  15  16
ATOM     16  C   UNK     1       8.417   9.531  18.015  0.00  0.00    +0.000 C 
BRANCH  16  17
ATOM     17  C   UNK     1       9.062  10.050  19.309  0.00  0.00    +0.000 C 
BRANCH  17  18
ATOM     18  C   UNK     1      10.151  11.064  19.040  0.00  0.00    +0.000 A 
ATOM     19  C   UNK     1      10.946  11.545  20.096  0.00  0.00    +0.000 A 
ATOM     20  C   UNK     1      11.967  12.470  19.848  0.00  0.00    +0.000 A 
ATOM     21  C   UNK     1      12.200  12.925  18.547  0.00  0.00    +0.000 A 
ATOM     22  C   UNK     1      11.416  12.454  17.494  0.00  0.00    +0.000 A 
ATOM     23  C   UNK     1      10.396  11.528  17.733  0.00  0.00    +0.000 A 
ENDBRANCH  17  18
ENDBRANCH  16  17
ENDBRANCH  15  16
ENDBRANCH   2  15
TORSDOF 11
ENDMDL
MODEL 7
REMARK VINA RESULT:      -5.7      4.097      5.651
REMARK  Name = 
REMARK  11 active torsions:
REMARK  status: ('A' for Active; 'I' for Inactive)
REMARK    1  A    between atoms: N_1  and  C_2
REMARK    2  A    between atoms: C_2  and  C_3
REMARK    3  A    between atoms: C_2  and  C_17
REMARK    4  A    between atoms: C_3  and  S_4
REMARK    5  A    between atoms: S_4  and  C_5
REMARK    6  A    between atoms: C_5  and  S_6
REMARK    7  A    between atoms: N_7  and  C_8
REMARK    8  A    between atoms: C_8  and  C_9
REMARK    9  A    between atoms: C_9  and  C_10
REMARK   10  A    between atoms: C_10  and  C_11
REMARK   11  A    between atoms: C_17  and  O_19
REMARK                            x       y       z     vdW  Elec       q    Type
REMARK                         _______ _______ _______ _____ _____    ______ ____
ROOT
ATOM      1  C   UNK     1       6.460   6.443  17.520  0.00  0.00    +0.000 C 
ATOM      2  N   UNK     1       6.883   7.637  17.266  0.00  0.00    +0.000 NA
ENDROOT
BRANCH   1   3
ATOM      3  S   UNK     1       7.520   5.213  18.317  0.00  0.00    +0.000 S 
ATOM      4  H   UNK     1       7.879   4.552  17.131  0.00  0.00    +0.000 HD
ENDBRANCH   1   3
BRANCH   1   5
ATOM      5  S   UNK     1       4.825   5.994  16.916  0.00  0.00    +0.000 S 
BRANCH   5   6
ATOM      6  C   UNK     1       4.839   4.178  17.223  0.00  0.00    +0.000 C 
BRANCH   6   7
ATOM      7  C   UNK     1       4.093   3.673  18.481  0.00  0.00    +0.000 C 
BRANCH   7   8
ATOM      8  N   UNK     1       4.936   2.791  19.290  0.00  0.00    +0.000 NA
ATOM      9  H   UNK     1       4.395   2.444  20.115  0.00  0.00    +0.000 HD
ATOM     10  H   UNK     1       5.787   3.295  19.629  0.00  0.00    +0.000 HD
ENDBRANCH   7   8
BRANCH   7  11
ATOM     11  C   UNK     1       2.773   3.012  18.154  0.00  0.00    +0.000 C 
ATOM     12  O   UNK     1       2.193   2.336  18.989  0.00  0.00    +0.000 OA
BRANCH  11  13
ATOM     13  O   UNK     1       2.206   3.187  16.939  0.00  0.00    +0.000 OA
ATOM     14  H   UNK     1       2.040   2.449  16.337  0.00  0.00    +0.000 HD
ENDBRANCH  11  13
ENDBRANCH   7  11
ENDBRANCH   6   7
ENDBRANCH   5   6
ENDBRANCH   1   5
BRANCH   2  15
ATOM     15  C   UNK     1       8.189   8.142  17.636  0.00  0.00    +0.000 C 
BRANCH  15  16
ATOM     16  C   UNK     1       8.113   9.640  17.955  0.00  0.00    +0.000 C 
BRANCH  16  17
ATOM     17  C   UNK     1       9.083  10.039  19.078  0.00  0.00    +0.000 C 
BRANCH  17  18
ATOM     18  C   UNK     1       9.925  11.239  18.708  0.00  0.00    +0.000 A 
ATOM     19  C   UNK     1       9.409  12.228  17.852  0.00  0.00    +0.000 A 
ATOM     20  C   UNK     1      10.179  13.349  17.521  0.00  0.00    +0.000 A 
ATOM     21  C   UNK     1      11.470  13.490  18.039  0.00  0.00    +0.000 A 
ATOM     22  C   UNK     1      11.991  12.513  18.888  0.00  0.00    +0.000 A 
ATOM     23  C   UNK     1      11.226  11.392  19.224  0.00  0.00    +0.000 A 
ENDBRANCH  17  18
ENDBRANCH  16  17
ENDBRANCH  15  16
ENDBRANCH   2  15
TORSDOF 11
ENDMDL
MODEL 8
REMARK VINA RESULT:      -5.7      2.692      4.105
REMARK  Name = 
REMARK  11 active torsions:
REMARK  status: ('A' for Active; 'I' for Inactive)
REMARK    1  A    between atoms: N_1  and  C_2
REMARK    2  A    between atoms: C_2  and  C_3
REMARK    3  A    between atoms: C_2  and  C_17
REMARK    4  A    between atoms: C_3  and  S_4
REMARK    5  A    between atoms: S_4  and  C_5
REMARK    6  A    between atoms: C_5  and  S_6
REMARK    7  A    between atoms: N_7  and  C_8
REMARK    8  A    between atoms: C_8  and  C_9
REMARK    9  A    between atoms: C_9  and  C_10
REMARK   10  A    between atoms: C_10  and  C_11
REMARK   11  A    between atoms: C_17  and  O_19
REMARK                            x       y       z     vdW  Elec       q    Type
REMARK                         _______ _______ _______ _____ _____    ______ ____
ROOT
ATOM      1  C   UNK     1       4.754   4.842  18.987  0.00  0.00    +0.000 C 
ATOM      2  N   UNK     1       6.030   4.676  18.870  0.00  0.00    +0.000 NA
ENDROOT
BRANCH   1   3
ATOM      3  S   UNK     1       3.892   6.180  18.127  0.00  0.00    +0.000 S 
ATOM      4  H   UNK     1       3.723   5.482  16.920  0.00  0.00    +0.000 HD
ENDBRANCH   1   3
BRANCH   1   5
ATOM      5  S   UNK     1       3.881   3.790  20.156  0.00  0.00    +0.000 S 
BRANCH   5   6
ATOM      6  C   UNK     1       2.253   4.648  20.234  0.00  0.00    +0.000 C 
BRANCH   6   7
ATOM      7  C   UNK     1       0.992   3.785  19.988  0.00  0.00    +0.000 C 
BRANCH   7   8
ATOM      8  N   UNK     1       0.783   2.820  21.069  0.00  0.00    +0.000 NA
ATOM      9  H   UNK     1       1.494   2.972  21.821  0.00  0.00    +0.000 HD
ATOM     10  H   UNK     1       0.867   1.839  20.716  0.00  0.00    +0.000 HD
ENDBRANCH   7   8
BRANCH   7  11
ATOM     11  C   UNK     1       1.006   3.098  18.642  0.00  0.00    +0.000 C 
ATOM     12  O   UNK     1       1.140   3.745  17.615  0.00  0.00    +0.000 OA
BRANCH  11  13
ATOM     13  O   UNK     1       0.898   1.752  18.563  0.00  0.00    +0.000 OA
ATOM     14  H   UNK     1       1.286   1.164  19.226  0.00  0.00    +0.000 HD
ENDBRANCH  11  13
ENDBRANCH   7  11
ENDBRANCH   6   7
ENDBRANCH   5   6
ENDBRANCH   1   5
BRANCH   2  15
ATOM     15  C   UNK     1       6.887   5.469  18.013  0.00  0.00    +0.000 C 
BRANCH  15  16
ATOM     16  C   UNK     1       7.365   4.637  16.816  0.00  0.00    +0.000 C 
BRANCH  16  17
ATOM     17  C   UNK     1       6.197   4.193  15.922  0.00  0.00    +0.000 C 
BRANCH  17  18
ATOM     18  C   UNK     1       6.545   4.258  14.452  0.00  0.00    +0.000 A 
ATOM     19  C   UNK     1       5.892   3.417  13.533  0.00  0.00    +0.000 A 
ATOM     20  C   UNK     1       6.198   3.487  12.169  0.00  0.00    +0.000 A 
ATOM     21  C   UNK     1       7.161   4.392  11.712  0.00  0.00    +0.000 A 
ATOM     22  C   UNK     1       7.815   5.228  12.616  0.00  0.00    +0.000 A 
ATOM     23  C   UNK     1       7.512   5.166  13.980  0.00  0.00    +0.000 A 
ENDBRANCH  17  18
ENDBRANCH  16  17
ENDBRANCH  15  16
ENDBRANCH   2  15
TORSDOF 11
ENDMDL
MODEL 9
REMARK VINA RESULT:      -5.7      3.300      5.706
REMARK  Name = 
REMARK  11 active torsions:
REMARK  status: ('A' for Active; 'I' for Inactive)
REMARK    1  A    between atoms: N_1  and  C_2
REMARK    2  A    between atoms: C_2  and  C_3
REMARK    3  A    between atoms: C_2  and  C_17
REMARK    4  A    between atoms: C_3  and  S_4
REMARK    5  A    between atoms: S_4  and  C_5
REMARK    6  A    between atoms: C_5  and  S_6
REMARK    7  A    between atoms: N_7  and  C_8
REMARK    8  A    between atoms: C_8  and  C_9
REMARK    9  A    between atoms: C_9  and  C_10
REMARK   10  A    between atoms: C_10  and  C_11
REMARK   11  A    between atoms: C_17  and  O_19
REMARK                            x       y       z     vdW  Elec       q    Type
REMARK                         _______ _______ _______ _____ _____    ______ ____
ROOT
ATOM      1  C   UNK     1       3.366   2.808  18.575  0.00  0.00    +0.000 C 
ATOM      2  N   UNK     1       2.106   3.037  18.742  0.00  0.00    +0.000 NA
ENDROOT
BRANCH   1   3
ATOM      3  S   UNK     1       4.429   2.312  19.952  0.00  0.00    +0.000 S 
ATOM      4  H   UNK     1       3.449   1.558  20.617  0.00  0.00    +0.000 HD
ENDBRANCH   1   3
BRANCH   1   5
ATOM      5  S   UNK     1       4.065   3.148  16.951  0.00  0.00    +0.000 S 
BRANCH   5   6
ATOM      6  C   UNK     1       5.202   4.539  17.357  0.00  0.00    +0.000 C 
BRANCH   6   7
ATOM      7  C   UNK     1       6.679   4.389  16.917  0.00  0.00    +0.000 C 
BRANCH   7   8
ATOM      8  N   UNK     1       7.579   4.319  18.070  0.00  0.00    +0.000 NA
ATOM      9  H   UNK     1       8.456   4.852  17.865  0.00  0.00    +0.000 HD
ATOM     10  H   UNK     1       7.826   3.328  18.292  0.00  0.00    +0.000 HD
ENDBRANCH   7   8
BRANCH   7  11
ATOM     11  C   UNK     1       7.115   5.468  15.953  0.00  0.00    +0.000 C 
ATOM     12  O   UNK     1       6.990   5.313  14.748  0.00  0.00    +0.000 OA
BRANCH  11  13
ATOM     13  O   UNK     1       7.625   6.631  16.417  0.00  0.00    +0.000 OA
ATOM     14  H   UNK     1       7.808   7.382  15.836  0.00  0.00    +0.000 HD
ENDBRANCH  11  13
ENDBRANCH   7  11
ENDBRANCH   6   7
ENDBRANCH   5   6
ENDBRANCH   1   5
BRANCH   2  15
ATOM     15  C   UNK     1       1.399   2.864  19.994  0.00  0.00    +0.000 C 
BRANCH  15  16
ATOM     16  C   UNK     1       0.931   4.220  20.536  0.00  0.00    +0.000 C 
BRANCH  16  17
ATOM     17  C   UNK     1       2.109   5.165  20.817  0.00  0.00    +0.000 C 
BRANCH  17  18
ATOM     18  C   UNK     1       1.977   6.480  20.082  0.00  0.00    +0.000 A 
ATOM     19  C   UNK     1       1.421   7.598  20.729  0.00  0.00    +0.000 A 
ATOM     20  C   UNK     1       1.314   8.822  20.058  0.00  0.00    +0.000 A 
ATOM     21  C   UNK     1       1.757   8.939  18.737  0.00  0.00    +0.000 A 
ATOM     22  C   UNK     1       2.308   7.834  18.088  0.00  0.00    +0.000 A 
ATOM     23  C   UNK     1       2.421   6.609  18.752  0.00  0.00    +0.000 A 
ENDBRANCH  17  18
ENDBRANCH  16  17
ENDBRANCH  15  16
ENDBRANCH   2  15
TORSDOF 11
ENDMDL
