MODEL 1
REMARK VINA RESULT:      -6.4      0.000      0.000
REMARK  Name = 
REMARK  10 active torsions:
REMARK  status: ('A' for Active; 'I' for Inactive)
REMARK    1  A    between atoms: C_1  and  C_2
REMARK    2  A    between atoms: C_2  and  C_3
REMARK    3  A    between atoms: C_3  and  C_4
REMARK    4  A    between atoms: C_4  and  O_5
REMARK    5  A    between atoms: O_5  and  C_6
REMARK    6  A    between atoms: C_7  and  O_8
REMARK    7  A    between atoms: O_8  and  C_9
REMARK    8  A    between atoms: C_10  and  O_11
REMARK    9  A    between atoms: O_11  and  C_12
REMARK   10  A    between atoms: C_16  and  C_17
REMARK                            x       y       z     vdW  Elec       q    Type
REMARK                         _______ _______ _______ _____ _____    ______ ____
ROOT
ATOM      1  C   UNL     1       4.468   4.655  18.708  0.00  0.00    +0.000 A 
ATOM      2  C   UNL     1       4.088   3.666  19.652  0.00  0.00    +0.000 A 
ATOM      3  C   UNL     1       2.989   3.891  20.519  0.00  0.00    +0.000 A 
ATOM      4  C   UNL     1       2.318   5.112  20.476  0.00  0.00    +0.000 A 
ATOM      5  C   UNL     1       2.658   6.062  19.518  0.00  0.00    +0.000 A 
ATOM      6  O   UNL     1       1.907   7.213  19.547  0.00  0.00    +0.000 OA
ATOM      7  C   UNL     1       2.224   8.230  18.674  0.00  0.00    +0.000 A 
ATOM      8  C   UNL     1       1.445   9.493  18.875  0.00  0.00    +0.000 C 
ATOM      9  C   UNL     1       3.116   8.104  17.688  0.00  0.00    +0.000 A 
ATOM     10  C   UNL     1       3.781   6.806  17.490  0.00  0.00    +0.000 A 
ATOM     11  O   UNL     1       4.349   6.599  16.426  0.00  0.00    +0.000 OA
ATOM     12  C   UNL     1       3.678   5.821  18.595  0.00  0.00    +0.000 A 
ENDROOT
BRANCH   2  13
ATOM     13  O   UNL     1       4.649   2.413  19.781  0.00  0.00    +0.000 OA
ATOM     14  C   UNL     1       4.179   1.367  18.943  0.00  0.00    +0.000 C 
ENDBRANCH   2  13
BRANCH   3  15
ATOM     15  O   UNL     1       2.651   2.875  21.381  0.00  0.00    +0.000 OA
ATOM     16  C   UNL     1       1.265   2.638  21.605  0.00  0.00    +0.000 C 
ENDBRANCH   3  15
BRANCH   1  17
ATOM     17  O   UNL     1       5.547   4.375  17.910  0.00  0.00    +0.000 OA
BRANCH  17  18
ATOM     18  C   UNL     1       6.838   4.750  18.403  0.00  0.00    +0.000 C 
BRANCH  18  19
ATOM     19  C   UNL     1       7.479   5.819  17.522  0.00  0.00    +0.000 C 
BRANCH  19  21
ATOM     20  C   UNL     1       7.804   8.326  17.617  0.00  0.00    +0.000 C 
ATOM     21  C   UNL     1       7.877   7.018  18.383  0.00  0.00    +0.000 C 
ENDBRANCH  19  21
ENDBRANCH  18  19
ENDBRANCH  17  18
ENDBRANCH   1  17
TORSDOF 6
ENDMDL
MODEL 2
REMARK VINA RESULT:      -6.3      1.730      2.399
REMARK  Name = 
REMARK  10 active torsions:
REMARK  status: ('A' for Active; 'I' for Inactive)
REMARK    1  A    between atoms: C_1  and  C_2
REMARK    2  A    between atoms: C_2  and  C_3
REMARK    3  A    between atoms: C_3  and  C_4
REMARK    4  A    between atoms: C_4  and  O_5
REMARK    5  A    between atoms: O_5  and  C_6
REMARK    6  A    between atoms: C_7  and  O_8
REMARK    7  A    between atoms: O_8  and  C_9
REMARK    8  A    between atoms: C_10  and  O_11
REMARK    9  A    between atoms: O_11  and  C_12
REMARK   10  A    between atoms: C_16  and  C_17
REMARK                            x       y       z     vdW  Elec       q    Type
REMARK                         _______ _______ _______ _____ _____    ______ ____
ROOT
ATOM      1  C   UNL     1       3.400   6.090  18.410  0.00  0.00    +0.000 A 
ATOM      2  C   UNL     1       3.498   4.790  18.972  0.00  0.00    +0.000 A 
ATOM      3  C   UNL     1       2.810   4.478  20.171  0.00  0.00    +0.000 A 
ATOM      4  C   UNL     1       2.081   5.470  20.825  0.00  0.00    +0.000 A 
ATOM      5  C   UNL     1       1.945   6.729  20.249  0.00  0.00    +0.000 A 
ATOM      6  O   UNL     1       1.177   7.616  20.966  0.00  0.00    +0.000 OA
ATOM      7  C   UNL     1       1.047   8.905  20.497  0.00  0.00    +0.000 A 
ATOM      8  C   UNL     1       0.312   9.833  21.412  0.00  0.00    +0.000 C 
ATOM      9  C   UNL     1       1.490   9.303  19.301  0.00  0.00    +0.000 A 
ATOM     10  C   UNL     1       2.125   8.317  18.413  0.00  0.00    +0.000 A 
ATOM     11  O   UNL     1       2.248   8.594  17.227  0.00  0.00    +0.000 OA
ATOM     12  C   UNL     1       2.540   7.029  19.022  0.00  0.00    +0.000 A 
ENDROOT
BRANCH   2  13
ATOM     13  O   UNL     1       4.161   3.717  18.416  0.00  0.00    +0.000 OA
ATOM     14  C   UNL     1       3.503   2.953  17.416  0.00  0.00    +0.000 C 
ENDBRANCH   2  13
BRANCH   3  15
ATOM     15  O   UNL     1       2.916   3.189  20.638  0.00  0.00    +0.000 OA
ATOM     16  C   UNL     1       1.874   2.708  21.481  0.00  0.00    +0.000 C 
ENDBRANCH   3  15
BRANCH   1  17
ATOM     17  O   UNL     1       4.100   6.325  17.255  0.00  0.00    +0.000 OA
BRANCH  17  18
ATOM     18  C   UNL     1       5.480   6.684  17.391  0.00  0.00    +0.000 C 
BRANCH  18  19
ATOM     19  C   UNL     1       6.367   5.832  16.487  0.00  0.00    +0.000 C 
BRANCH  19  21
ATOM     20  C   UNL     1       6.120   4.015  14.745  0.00  0.00    +0.000 C 
ATOM     21  C   UNL     1       5.538   5.292  15.321  0.00  0.00    +0.000 C 
ENDBRANCH  19  21
ENDBRANCH  18  19
ENDBRANCH  17  18
ENDBRANCH   1  17
TORSDOF 6
ENDMDL
MODEL 3
REMARK VINA RESULT:      -6.2      1.418      1.967
REMARK  Name = 
REMARK  10 active torsions:
REMARK  status: ('A' for Active; 'I' for Inactive)
REMARK    1  A    between atoms: C_1  and  C_2
REMARK    2  A    between atoms: C_2  and  C_3
REMARK    3  A    between atoms: C_3  and  C_4
REMARK    4  A    between atoms: C_4  and  O_5
REMARK    5  A    between atoms: O_5  and  C_6
REMARK    6  A    between atoms: C_7  and  O_8
REMARK    7  A    between atoms: O_8  and  C_9
REMARK    8  A    between atoms: C_10  and  O_11
REMARK    9  A    between atoms: O_11  and  C_12
REMARK   10  A    between atoms: C_16  and  C_17
REMARK                            x       y       z     vdW  Elec       q    Type
REMARK                         _______ _______ _______ _____ _____    ______ ____
ROOT
ATOM      1  C   UNL     1       3.451   6.082  18.433  0.00  0.00    +0.000 A 
ATOM      2  C   UNL     1       3.517   4.793  19.023  0.00  0.00    +0.000 A 
ATOM      3  C   UNL     1       2.787   4.514  20.206  0.00  0.00    +0.000 A 
ATOM      4  C   UNL     1       2.048   5.527  20.815  0.00  0.00    +0.000 A 
ATOM      5  C   UNL     1       1.945   6.775  20.210  0.00  0.00    +0.000 A 
ATOM      6  O   UNL     1       1.165   7.685  20.882  0.00  0.00    +0.000 OA
ATOM      7  C   UNL     1       1.065   8.966  20.383  0.00  0.00    +0.000 A 
ATOM      8  C   UNL     1       0.311   9.920  21.255  0.00  0.00    +0.000 C 
ATOM      9  C   UNL     1       1.551   9.334  19.195  0.00  0.00    +0.000 A 
ATOM     10  C   UNL     1       2.202   8.322  18.348  0.00  0.00    +0.000 A 
ATOM     11  O   UNL     1       2.367   8.574  17.161  0.00  0.00    +0.000 OA
ATOM     12  C   UNL     1       2.583   7.043  18.997  0.00  0.00    +0.000 A 
ENDROOT
BRANCH   2  13
ATOM     13  O   UNL     1       4.185   3.702  18.512  0.00  0.00    +0.000 OA
ATOM     14  C   UNL     1       3.605   2.995  17.426  0.00  0.00    +0.000 C 
ENDBRANCH   2  13
BRANCH   3  15
ATOM     15  O   UNL     1       2.863   3.234  20.702  0.00  0.00    +0.000 OA
ATOM     16  C   UNL     1       1.652   2.491  20.791  0.00  0.00    +0.000 C 
ENDBRANCH   3  15
BRANCH   1  17
ATOM     17  O   UNL     1       4.192   6.286  17.296  0.00  0.00    +0.000 OA
BRANCH  17  18
ATOM     18  C   UNL     1       5.545   6.722  17.468  0.00  0.00    +0.000 C 
BRANCH  18  19
ATOM     19  C   UNL     1       6.524   5.781  16.771  0.00  0.00    +0.000 C 
BRANCH  19  21
ATOM     20  C   UNL     1       7.721   5.921  18.994  0.00  0.00    +0.000 C 
ATOM     21  C   UNL     1       7.352   5.037  17.818  0.00  0.00    +0.000 C 
ENDBRANCH  19  21
ENDBRANCH  18  19
ENDBRANCH  17  18
ENDBRANCH   1  17
TORSDOF 6
ENDMDL
MODEL 4
REMARK VINA RESULT:      -6.1      2.118      4.820
REMARK  Name = 
REMARK  10 active torsions:
REMARK  status: ('A' for Active; 'I' for Inactive)
REMARK    1  A    between atoms: C_1  and  C_2
REMARK    2  A    between atoms: C_2  and  C_3
REMARK    3  A    between atoms: C_3  and  C_4
REMARK    4  A    between atoms: C_4  and  O_5
REMARK    5  A    between atoms: O_5  and  C_6
REMARK    6  A    between atoms: C_7  and  O_8
REMARK    7  A    between atoms: O_8  and  C_9
REMARK    8  A    between atoms: C_10  and  O_11
REMARK    9  A    between atoms: O_11  and  C_12
REMARK   10  A    between atoms: C_16  and  C_17
REMARK                            x       y       z     vdW  Elec       q    Type
REMARK                         _______ _______ _______ _____ _____    ______ ____
ROOT
ATOM      1  C   UNL     1       4.594   4.888  18.001  0.00  0.00    +0.000 A 
ATOM      2  C   UNL     1       4.309   6.220  17.602  0.00  0.00    +0.000 A 
ATOM      3  C   UNL     1       3.234   6.927  18.196  0.00  0.00    +0.000 A 
ATOM      4  C   UNL     1       2.425   6.289  19.135  0.00  0.00    +0.000 A 
ATOM      5  C   UNL     1       2.734   5.002  19.562  0.00  0.00    +0.000 A 
ATOM      6  O   UNL     1       1.888   4.485  20.514  0.00  0.00    +0.000 OA
ATOM      7  C   UNL     1       2.086   3.191  20.941  0.00  0.00    +0.000 A 
ATOM      8  C   UNL     1       1.035   2.670  21.871  0.00  0.00    +0.000 C 
ATOM      9  C   UNL     1       3.151   2.459  20.605  0.00  0.00    +0.000 A 
ATOM     10  C   UNL     1       4.193   3.063  19.759  0.00  0.00    +0.000 A 
ATOM     11  O   UNL     1       5.289   2.520  19.706  0.00  0.00    +0.000 OA
ATOM     12  C   UNL     1       3.844   4.322  19.055  0.00  0.00    +0.000 A 
ENDROOT
BRANCH   2  13
ATOM     13  O   UNL     1       5.042   6.971  16.708  0.00  0.00    +0.000 OA
ATOM     14  C   UNL     1       6.376   7.321  17.044  0.00  0.00    +0.000 C 
ENDBRANCH   2  13
BRANCH   3  15
ATOM     15  O   UNL     1       3.038   8.227  17.792  0.00  0.00    +0.000 OA
ATOM     16  C   UNL     1       1.870   8.892  18.260  0.00  0.00    +0.000 C 
ENDBRANCH   3  15
BRANCH   1  17
ATOM     17  O   UNL     1       5.641   4.260  17.376  0.00  0.00    +0.000 OA
BRANCH  17  18
ATOM     18  C   UNL     1       5.354   3.575  16.152  0.00  0.00    +0.000 C 
BRANCH  18  19
ATOM     19  C   UNL     1       6.327   3.980  15.048  0.00  0.00    +0.000 C 
BRANCH  19  21
ATOM     20  C   UNL     1       6.311   3.531  12.559  0.00  0.00    +0.000 C 
ATOM     21  C   UNL     1       5.567   4.142  13.731  0.00  0.00    +0.000 C 
ENDBRANCH  19  21
ENDBRANCH  18  19
ENDBRANCH  17  18
ENDBRANCH   1  17
TORSDOF 6
ENDMDL
MODEL 5
REMARK VINA RESULT:      -6.1      0.934      1.063
REMARK  Name = 
REMARK  10 active torsions:
REMARK  status: ('A' for Active; 'I' for Inactive)
REMARK    1  A    between atoms: C_1  and  C_2
REMARK    2  A    between atoms: C_2  and  C_3
REMARK    3  A    between atoms: C_3  and  C_4
REMARK    4  A    between atoms: C_4  and  O_5
REMARK    5  A    between atoms: O_5  and  C_6
REMARK    6  A    between atoms: C_7  and  O_8
REMARK    7  A    between atoms: O_8  and  C_9
REMARK    8  A    between atoms: C_10  and  O_11
REMARK    9  A    between atoms: O_11  and  C_12
REMARK   10  A    between atoms: C_16  and  C_17
REMARK                            x       y       z     vdW  Elec       q    Type
REMARK                         _______ _______ _______ _____ _____    ______ ____
ROOT
ATOM      1  C   UNL     1       3.813   5.487  18.580  0.00  0.00    +0.000 A 
ATOM      2  C   UNL     1       3.648   4.334  19.392  0.00  0.00    +0.000 A 
ATOM      3  C   UNL     1       2.728   4.346  20.470  0.00  0.00    +0.000 A 
ATOM      4  C   UNL     1       2.026   5.515  20.762  0.00  0.00    +0.000 A 
ATOM      5  C   UNL     1       2.151   6.628  19.938  0.00  0.00    +0.000 A 
ATOM      6  O   UNL     1       1.387   7.711  20.303  0.00  0.00    +0.000 OA
ATOM      7  C   UNL     1       1.503   8.876  19.577  0.00  0.00    +0.000 A 
ATOM      8  C   UNL     1       0.741  10.038  20.132  0.00  0.00    +0.000 C 
ATOM      9  C   UNL     1       2.194   8.969  18.438  0.00  0.00    +0.000 A 
ATOM     10  C   UNL     1       2.846   7.764  17.900  0.00  0.00    +0.000 A 
ATOM     11  O   UNL     1       3.208   7.770  16.731  0.00  0.00    +0.000 OA
ATOM     12  C   UNL     1       2.984   6.605  18.817  0.00  0.00    +0.000 A 
ENDROOT
BRANCH   2  13
ATOM     13  O   UNL     1       4.259   3.113  19.196  0.00  0.00    +0.000 OA
ATOM     14  C   UNL     1       3.682   2.203  18.272  0.00  0.00    +0.000 C 
ENDBRANCH   2  13
BRANCH   3  15
ATOM     15  O   UNL     1       2.589   3.183  21.189  0.00  0.00    +0.000 OA
ATOM     16  C   UNL     1       1.266   2.711  21.426  0.00  0.00    +0.000 C 
ENDBRANCH   3  15
BRANCH   1  17
ATOM     17  O   UNL     1       4.728   5.408  17.562  0.00  0.00    +0.000 OA
BRANCH  17  18
ATOM     18  C   UNL     1       6.112   5.485  17.922  0.00  0.00    +0.000 C 
BRANCH  18  19
ATOM     19  C   UNL     1       6.832   6.573  17.129  0.00  0.00    +0.000 C 
BRANCH  19  21
ATOM     20  C   UNL     1       7.912   8.771  17.760  0.00  0.00    +0.000 C 
ATOM     21  C   UNL     1       7.841   7.280  18.033  0.00  0.00    +0.000 C 
ENDBRANCH  19  21
ENDBRANCH  18  19
ENDBRANCH  17  18
ENDBRANCH   1  17
TORSDOF 6
ENDMDL
MODEL 6
REMARK VINA RESULT:      -6.0      1.617      2.034
REMARK  Name = 
REMARK  10 active torsions:
REMARK  status: ('A' for Active; 'I' for Inactive)
REMARK    1  A    between atoms: C_1  and  C_2
REMARK    2  A    between atoms: C_2  and  C_3
REMARK    3  A    between atoms: C_3  and  C_4
REMARK    4  A    between atoms: C_4  and  O_5
REMARK    5  A    between atoms: O_5  and  C_6
REMARK    6  A    between atoms: C_7  and  O_8
REMARK    7  A    between atoms: O_8  and  C_9
REMARK    8  A    between atoms: C_10  and  O_11
REMARK    9  A    between atoms: O_11  and  C_12
REMARK   10  A    between atoms: C_16  and  C_17
REMARK                            x       y       z     vdW  Elec       q    Type
REMARK                         _______ _______ _______ _____ _____    ______ ____
ROOT
ATOM      1  C   UNL     1       4.446   4.820  18.688  0.00  0.00    +0.000 A 
ATOM      2  C   UNL     1       4.106   3.776  19.588  0.00  0.00    +0.000 A 
ATOM      3  C   UNL     1       2.999   3.920  20.460  0.00  0.00    +0.000 A 
ATOM      4  C   UNL     1       2.279   5.113  20.469  0.00  0.00    +0.000 A 
ATOM      5  C   UNL     1       2.581   6.116  19.553  0.00  0.00    +0.000 A 
ATOM      6  O   UNL     1       1.784   7.234  19.631  0.00  0.00    +0.000 OA
ATOM      7  C   UNL     1       2.061   8.300  18.804  0.00  0.00    +0.000 A 
ATOM      8  C   UNL     1       1.232   9.520  19.057  0.00  0.00    +0.000 C 
ATOM      9  C   UNL     1       2.957   8.253  17.815  0.00  0.00    +0.000 A 
ATOM     10  C   UNL     1       3.674   6.993  17.563  0.00  0.00    +0.000 A 
ATOM     11  O   UNL     1       4.251   6.854  16.492  0.00  0.00    +0.000 OA
ATOM     12  C   UNL     1       3.611   5.957  18.624  0.00  0.00    +0.000 A 
ENDROOT
BRANCH   2  13
ATOM     13  O   UNL     1       4.717   2.542  19.663  0.00  0.00    +0.000 OA
ATOM     14  C   UNL     1       4.128   1.447  18.978  0.00  0.00    +0.000 C 
ENDBRANCH   2  13
BRANCH   3  15
ATOM     15  O   UNL     1       2.701   2.854  21.277  0.00  0.00    +0.000 OA
ATOM     16  C   UNL     1       1.349   2.707  21.699  0.00  0.00    +0.000 C 
ENDBRANCH   3  15
BRANCH   1  17
ATOM     17  O   UNL     1       5.536   4.618  17.881  0.00  0.00    +0.000 OA
BRANCH  17  18
ATOM     18  C   UNL     1       5.339   3.828  16.703  0.00  0.00    +0.000 C 
BRANCH  18  19
ATOM     19  C   UNL     1       6.334   4.204  15.609  0.00  0.00    +0.000 C 
BRANCH  19  21
ATOM     20  C   UNL     1       6.256   3.690  13.134  0.00  0.00    +0.000 C 
ATOM     21  C   UNL     1       5.589   4.411  14.290  0.00  0.00    +0.000 C 
ENDBRANCH  19  21
ENDBRANCH  18  19
ENDBRANCH  17  18
ENDBRANCH   1  17
TORSDOF 6
ENDMDL
MODEL 7
REMARK VINA RESULT:      -5.9      3.151      5.114
REMARK  Name = 
REMARK  10 active torsions:
REMARK  status: ('A' for Active; 'I' for Inactive)
REMARK    1  A    between atoms: C_1  and  C_2
REMARK    2  A    between atoms: C_2  and  C_3
REMARK    3  A    between atoms: C_3  and  C_4
REMARK    4  A    between atoms: C_4  and  O_5
REMARK    5  A    between atoms: O_5  and  C_6
REMARK    6  A    between atoms: C_7  and  O_8
REMARK    7  A    between atoms: O_8  and  C_9
REMARK    8  A    between atoms: C_10  and  O_11
REMARK    9  A    between atoms: O_11  and  C_12
REMARK   10  A    between atoms: C_16  and  C_17
REMARK                            x       y       z     vdW  Elec       q    Type
REMARK                         _______ _______ _______ _____ _____    ______ ____
ROOT
ATOM      1  C   UNL     1       6.917   5.767  16.606  0.00  0.00    +0.000 A 
ATOM      2  C   UNL     1       6.315   5.344  17.820  0.00  0.00    +0.000 A 
ATOM      3  C   UNL     1       5.363   4.294  17.815  0.00  0.00    +0.000 A 
ATOM      4  C   UNL     1       4.981   3.716  16.606  0.00  0.00    +0.000 A 
ATOM      5  C   UNL     1       5.606   4.097  15.423  0.00  0.00    +0.000 A 
ATOM      6  O   UNL     1       5.173   3.438  14.297  0.00  0.00    +0.000 OA
ATOM      7  C   UNL     1       5.695   3.803  13.076  0.00  0.00    +0.000 A 
ATOM      8  C   UNL     1       5.062   3.130  11.898  0.00  0.00    +0.000 C 
ATOM      9  C   UNL     1       6.717   4.650  12.935  0.00  0.00    +0.000 A 
ATOM     10  C   UNL     1       7.352   5.207  14.140  0.00  0.00    +0.000 A 
ATOM     11  O   UNL     1       8.456   5.724  14.032  0.00  0.00    +0.000 OA
ATOM     12  C   UNL     1       6.612   5.066  15.419  0.00  0.00    +0.000 A 
ENDROOT
BRANCH   2  13
ATOM     13  O   UNL     1       6.621   5.811  19.080  0.00  0.00    +0.000 OA
ATOM     14  C   UNL     1       7.829   5.382  19.692  0.00  0.00    +0.000 C 
ENDBRANCH   2  13
BRANCH   3  15
ATOM     15  O   UNL     1       4.850   3.907  19.031  0.00  0.00    +0.000 OA
ATOM     16  C   UNL     1       3.991   2.771  19.050  0.00  0.00    +0.000 C 
ENDBRANCH   3  15
BRANCH   1  17
ATOM     17  O   UNL     1       7.821   6.795  16.683  0.00  0.00    +0.000 OA
BRANCH  17  18
ATOM     18  C   UNL     1       7.370   8.017  17.279  0.00  0.00    +0.000 C 
BRANCH  18  19
ATOM     19  C   UNL     1       8.402   8.570  18.258  0.00  0.00    +0.000 C 
BRANCH  19  21
ATOM     20  C   UNL     1       9.479  10.713  19.062  0.00  0.00    +0.000 C 
ATOM     21  C   UNL     1       8.562  10.074  18.036  0.00  0.00    +0.000 C 
ENDBRANCH  19  21
ENDBRANCH  18  19
ENDBRANCH  17  18
ENDBRANCH   1  17
TORSDOF 6
ENDMDL
MODEL 8
REMARK VINA RESULT:      -5.9      1.671      4.978
REMARK  Name = 
REMARK  10 active torsions:
REMARK  status: ('A' for Active; 'I' for Inactive)
REMARK    1  A    between atoms: C_1  and  C_2
REMARK    2  A    between atoms: C_2  and  C_3
REMARK    3  A    between atoms: C_3  and  C_4
REMARK    4  A    between atoms: C_4  and  O_5
REMARK    5  A    between atoms: O_5  and  C_6
REMARK    6  A    between atoms: C_7  and  O_8
REMARK    7  A    between atoms: O_8  and  C_9
REMARK    8  A    between atoms: C_10  and  O_11
REMARK    9  A    between atoms: O_11  and  C_12
REMARK   10  A    between atoms: C_16  and  C_17
REMARK                            x       y       z     vdW  Elec       q    Type
REMARK                         _______ _______ _______ _____ _____    ______ ____
ROOT
ATOM      1  C   UNL     1       2.531   6.280  19.616  0.00  0.00    +0.000 A 
ATOM      2  C   UNL     1       3.438   5.819  18.626  0.00  0.00    +0.000 A 
ATOM      3  C   UNL     1       3.790   6.656  17.537  0.00  0.00    +0.000 A 
ATOM      4  C   UNL     1       3.198   7.913  17.416  0.00  0.00    +0.000 A 
ATOM      5  C   UNL     1       2.349   8.383  18.412  0.00  0.00    +0.000 A 
ATOM      6  O   UNL     1       1.851   9.647  18.204  0.00  0.00    +0.000 OA
ATOM      7  C   UNL     1       0.949  10.160  19.111  0.00  0.00    +0.000 A 
ATOM      8  C   UNL     1       0.358  11.480  18.727  0.00  0.00    +0.000 C 
ATOM      9  C   UNL     1       0.651   9.566  20.270  0.00  0.00    +0.000 A 
ATOM     10  C   UNL     1       1.337   8.314  20.626  0.00  0.00    +0.000 A 
ATOM     11  O   UNL     1       1.301   7.940  21.790  0.00  0.00    +0.000 OA
ATOM     12  C   UNL     1       2.061   7.609  19.538  0.00  0.00    +0.000 A 
ENDROOT
BRANCH   2  13
ATOM     13  O   UNL     1       4.109   4.615  18.640  0.00  0.00    +0.000 OA
ATOM     14  C   UNL     1       5.284   4.500  19.429  0.00  0.00    +0.000 C 
ENDBRANCH   2  13
BRANCH   3  15
ATOM     15  O   UNL     1       4.704   6.163  16.637  0.00  0.00    +0.000 OA
ATOM     16  C   UNL     1       6.007   6.738  16.641  0.00  0.00    +0.000 C 
ENDBRANCH   3  15
BRANCH   1  17
ATOM     17  O   UNL     1       2.228   5.413  20.635  0.00  0.00    +0.000 OA
BRANCH  17  18
ATOM     18  C   UNL     1       1.036   4.631  20.493  0.00  0.00    +0.000 C 
BRANCH  18  19
ATOM     19  C   UNL     1       1.361   3.150  20.321  0.00  0.00    +0.000 C 
BRANCH  19  21
ATOM     20  C   UNL     1       2.129   2.077  18.163  0.00  0.00    +0.000 C 
ATOM     21  C   UNL     1       0.968   2.700  18.914  0.00  0.00    +0.000 C 
ENDBRANCH  19  21
ENDBRANCH  18  19
ENDBRANCH  17  18
ENDBRANCH   1  17
TORSDOF 6
ENDMDL
MODEL 9
REMARK VINA RESULT:      -5.9      2.047      4.536
REMARK  Name = 
REMARK  10 active torsions:
REMARK  status: ('A' for Active; 'I' for Inactive)
REMARK    1  A    between atoms: C_1  and  C_2
REMARK    2  A    between atoms: C_2  and  C_3
REMARK    3  A    between atoms: C_3  and  C_4
REMARK    4  A    between atoms: C_4  and  O_5
REMARK    5  A    between atoms: O_5  and  C_6
REMARK    6  A    between atoms: C_7  and  O_8
REMARK    7  A    between atoms: O_8  and  C_9
REMARK    8  A    between atoms: C_10  and  O_11
REMARK    9  A    between atoms: O_11  and  C_12
REMARK   10  A    between atoms: C_16  and  C_17
REMARK                            x       y       z     vdW  Elec       q    Type
REMARK                         _______ _______ _______ _____ _____    ______ ____
ROOT
ATOM      1  C   UNL     1       3.444   5.449  18.637  0.00  0.00    +0.000 A 
ATOM      2  C   UNL     1       2.643   4.410  19.178  0.00  0.00    +0.000 A 
ATOM      3  C   UNL     1       2.642   3.125  18.580  0.00  0.00    +0.000 A 
ATOM      4  C   UNL     1       3.391   2.903  17.426  0.00  0.00    +0.000 A 
ATOM      5  C   UNL     1       4.214   3.905  16.925  0.00  0.00    +0.000 A 
ATOM      6  O   UNL     1       4.931   3.564  15.802  0.00  0.00    +0.000 OA
ATOM      7  C   UNL     1       5.720   4.523  15.206  0.00  0.00    +0.000 A 
ATOM      8  C   UNL     1       6.350   4.100  13.915  0.00  0.00    +0.000 C 
ATOM      9  C   UNL     1       5.958   5.721  15.744  0.00  0.00    +0.000 A 
ATOM     10  C   UNL     1       5.380   6.039  17.060  0.00  0.00    +0.000 A 
ATOM     11  O   UNL     1       5.835   6.988  17.683  0.00  0.00    +0.000 OA
ATOM     12  C   UNL     1       4.298   5.150  17.553  0.00  0.00    +0.000 A 
ENDROOT
BRANCH   2  13
ATOM     13  O   UNL     1       1.880   4.490  20.324  0.00  0.00    +0.000 OA
ATOM     14  C   UNL     1       2.469   4.120  21.562  0.00  0.00    +0.000 C 
ENDBRANCH   2  13
BRANCH   3  15
ATOM     15  O   UNL     1       1.874   2.155  19.179  0.00  0.00    +0.000 OA
ATOM     16  C   UNL     1       0.511   2.054  18.777  0.00  0.00    +0.000 C 
ENDBRANCH   3  15
BRANCH   1  17
ATOM     17  O   UNL     1       3.388   6.669  19.260  0.00  0.00    +0.000 OA
BRANCH  17  18
ATOM     18  C   UNL     1       2.252   7.494  18.976  0.00  0.00    +0.000 C 
BRANCH  18  19
ATOM     19  C   UNL     1       2.515   8.406  17.781  0.00  0.00    +0.000 C 
BRANCH  19  21
ATOM     20  C   UNL     1       0.870   9.706  19.197  0.00  0.00    +0.000 C 
ATOM     21  C   UNL     1       1.652   9.663  17.898  0.00  0.00    +0.000 C 
ENDBRANCH  19  21
ENDBRANCH  18  19
ENDBRANCH  17  18
ENDBRANCH   1  17
TORSDOF 6
ENDMDL
