MODEL 1
REMARK VINA RESULT:      -8.4      0.000      0.000
REMARK  Name = 
REMARK  12 active torsions:
REMARK  status: ('A' for Active; 'I' for Inactive)
REMARK    1  A    between atoms: C_1  and  C_2
REMARK    2  A    between atoms: C_2  and  O_3
REMARK    3  A    between atoms: O_3  and  C_4
REMARK    4  A    between atoms: C_7  and  O_8
REMARK    5  A    between atoms: O_8  and  C_9
REMARK    6  A    between atoms: C_9  and  C_10
REMARK    7  A    between atoms: C_14  and  O_15
REMARK    8  A    between atoms: O_15  and  C_16
REMARK    9  A    between atoms: C_16  and  C_17
REMARK   10  A    between atoms: C_16  and  C_18
REMARK   11  A    between atoms: N_23  and  C_24
REMARK   12  A    between atoms: C_24  and  C_26
REMARK                            x       y       z     vdW  Elec       q    Type
REMARK                         _______ _______ _______ _____ _____    ______ ____
ROOT
ATOM      1  C   UNL     1       6.439   6.129  17.042  0.00  0.00    +0.000 C 
ATOM      2  C   UNL     1       7.209   7.318  17.626  0.00  0.00    +0.000 A 
ATOM      3  C   UNL     1       7.075   8.627  17.156  0.00  0.00    +0.000 A 
ATOM      4  C   UNL     1       7.872   9.649  17.692  0.00  0.00    +0.000 A 
ATOM      5  C   UNL     1       8.853   9.366  18.646  0.00  0.00    +0.000 A 
ATOM      6  C   UNL     1       8.902   8.091  19.208  0.00  0.00    +0.000 A 
ATOM      7  C   UNL     1       8.025   7.094  18.751  0.00  0.00    +0.000 A 
ATOM      8  C   UNL     1       7.883   5.770  19.461  0.00  0.00    +0.000 C 
ATOM      9  C   UNL     1       6.426   5.235  19.393  0.00  0.00    +0.000 C 
ATOM     10  N   UNL     1       5.674   5.543  18.158  0.00  0.00    +0.000 N 
ENDROOT
BRANCH  10  11
ATOM     11  C   UNL     1       4.300   5.290  18.041  0.00  0.00    +0.000 C 
ATOM     12  S   UNL     1       3.645   3.891  17.366  0.00  0.00    +0.000 S 
BRANCH  11  13
ATOM     13  C   UNL     1       3.400   6.405  18.445  0.00  0.00    +0.000 A 
ATOM     14  C   UNL     1       3.210   7.469  17.547  0.00  0.00    +0.000 A 
ATOM     15  C   UNL     1       2.362   8.526  17.883  0.00  0.00    +0.000 A 
ATOM     16  C   UNL     1       1.703   8.517  19.111  0.00  0.00    +0.000 A 
ATOM     17  C   UNL     1       1.868   7.438  19.976  0.00  0.00    +0.000 A 
ATOM     18  F   UNL     1       1.212   7.429  21.144  0.00  0.00    +0.000 F 
ATOM     19  C   UNL     1       2.702   6.374  19.654  0.00  0.00    +0.000 A 
ENDBRANCH  11  13
ENDBRANCH  10  11
BRANCH   1  20
ATOM     20  C   UNL     1       7.389   5.103  16.346  0.00  0.00    +0.000 C 
BRANCH  20  21
ATOM     21  O   UNL     1       7.636   5.448  14.976  0.00  0.00    +0.000 OA
BRANCH  21  25
ATOM     22  C   UNL     1       5.462   3.341  12.101  0.00  0.00    +0.000 A 
ATOM     23  C   UNL     1       6.724   3.852  11.824  0.00  0.00    +0.000 A 
ATOM     24  C   UNL     1       7.433   4.559  12.801  0.00  0.00    +0.000 A 
ATOM     25  C   UNL     1       6.859   4.794  14.054  0.00  0.00    +0.000 A 
ATOM     26  C   UNL     1       5.579   4.307  14.320  0.00  0.00    +0.000 A 
ATOM     27  C   UNL     1       4.878   3.585  13.344  0.00  0.00    +0.000 A 
BRANCH  22  28
ATOM     28  O   UNL     1       4.880   2.606  11.095  0.00  0.00    +0.000 OA
BRANCH  28  30
ATOM     29  C   UNL     1       3.316   3.989   9.945  0.00  0.00    +0.000 C 
ATOM     30  C   UNL     1       3.480   2.813  10.891  0.00  0.00    +0.000 C 
ENDBRANCH  28  30
ENDBRANCH  22  28
ENDBRANCH  21  25
ENDBRANCH  20  21
ENDBRANCH   1  20
BRANCH   5  31
ATOM     31  O   UNL     1       9.662  10.416  18.994  0.00  0.00    +0.000 OA
BRANCH  31  32
ATOM     32  C   UNL     1       9.856  11.458  18.022  0.00  0.00    +0.000 C 
ATOM     33  C   UNL     1       9.212  12.772  18.466  0.00  0.00    +0.000 C 
ATOM     34  C   UNL     1      11.365  11.677  17.883  0.00  0.00    +0.000 C 
ENDBRANCH  31  32
ENDBRANCH   5  31
TORSDOF 9
ENDMDL
MODEL 2
REMARK VINA RESULT:      -8.1      0.972      1.335
REMARK  Name = 
REMARK  12 active torsions:
REMARK  status: ('A' for Active; 'I' for Inactive)
REMARK    1  A    between atoms: C_1  and  C_2
REMARK    2  A    between atoms: C_2  and  O_3
REMARK    3  A    between atoms: O_3  and  C_4
REMARK    4  A    between atoms: C_7  and  O_8
REMARK    5  A    between atoms: O_8  and  C_9
REMARK    6  A    between atoms: C_9  and  C_10
REMARK    7  A    between atoms: C_14  and  O_15
REMARK    8  A    between atoms: O_15  and  C_16
REMARK    9  A    between atoms: C_16  and  C_17
REMARK   10  A    between atoms: C_16  and  C_18
REMARK   11  A    between atoms: N_23  and  C_24
REMARK   12  A    between atoms: C_24  and  C_26
REMARK                            x       y       z     vdW  Elec       q    Type
REMARK                         _______ _______ _______ _____ _____    ______ ____
ROOT
ATOM      1  C   UNL     1       6.400   5.983  17.072  0.00  0.00    +0.000 C 
ATOM      2  C   UNL     1       7.181   7.171  17.643  0.00  0.00    +0.000 A 
ATOM      3  C   UNL     1       7.082   8.471  17.139  0.00  0.00    +0.000 A 
ATOM      4  C   UNL     1       7.888   9.490  17.667  0.00  0.00    +0.000 A 
ATOM      5  C   UNL     1       8.844   9.212  18.647  0.00  0.00    +0.000 A 
ATOM      6  C   UNL     1       8.857   7.950  19.240  0.00  0.00    +0.000 A 
ATOM      7  C   UNL     1       7.969   6.959  18.790  0.00  0.00    +0.000 A 
ATOM      8  C   UNL     1       7.787   5.656  19.528  0.00  0.00    +0.000 C 
ATOM      9  C   UNL     1       6.322   5.147  19.444  0.00  0.00    +0.000 C 
ATOM     10  N   UNL     1       5.601   5.439  18.186  0.00  0.00    +0.000 N 
ENDROOT
BRANCH  10  11
ATOM     11  C   UNL     1       4.225   5.210  18.047  0.00  0.00    +0.000 C 
ATOM     12  S   UNL     1       3.557   3.835  17.337  0.00  0.00    +0.000 S 
BRANCH  11  13
ATOM     13  C   UNL     1       3.337   6.331  18.463  0.00  0.00    +0.000 A 
ATOM     14  C   UNL     1       2.739   6.273  19.733  0.00  0.00    +0.000 A 
ATOM     15  C   UNL     1       1.911   7.310  20.165  0.00  0.00    +0.000 A 
ATOM     16  C   UNL     1       1.687   8.406  19.332  0.00  0.00    +0.000 A 
ATOM     17  C   UNL     1       2.318   8.471  18.092  0.00  0.00    +0.000 A 
ATOM     18  F   UNL     1       2.112   9.538  17.309  0.00  0.00    +0.000 F 
ATOM     19  C   UNL     1       3.150   7.450  17.649  0.00  0.00    +0.000 A 
ENDBRANCH  11  13
ENDBRANCH  10  11
BRANCH   1  20
ATOM     20  C   UNL     1       7.342   4.923  16.420  0.00  0.00    +0.000 C 
BRANCH  20  21
ATOM     21  O   UNL     1       7.694   5.275  15.075  0.00  0.00    +0.000 OA
BRANCH  21  25
ATOM     22  C   UNL     1       5.491   3.472  12.022  0.00  0.00    +0.000 A 
ATOM     23  C   UNL     1       6.777   3.949  11.802  0.00  0.00    +0.000 A 
ATOM     24  C   UNL     1       7.496   4.553  12.839  0.00  0.00    +0.000 A 
ATOM     25  C   UNL     1       6.909   4.722  14.096  0.00  0.00    +0.000 A 
ATOM     26  C   UNL     1       5.604   4.272  14.306  0.00  0.00    +0.000 A 
ATOM     27  C   UNL     1       4.893   3.651  13.270  0.00  0.00    +0.000 A 
BRANCH  22  28
ATOM     28  O   UNL     1       4.898   2.836  10.956  0.00  0.00    +0.000 OA
BRANCH  28  30
ATOM     29  C   UNL     1       3.151   3.993   9.821  0.00  0.00    +0.000 C 
ATOM     30  C   UNL     1       3.474   2.944  10.868  0.00  0.00    +0.000 C 
ENDBRANCH  28  30
ENDBRANCH  22  28
ENDBRANCH  21  25
ENDBRANCH  20  21
ENDBRANCH   1  20
BRANCH   5  31
ATOM     31  O   UNL     1       9.666  10.254  18.987  0.00  0.00    +0.000 OA
BRANCH  31  32
ATOM     32  C   UNL     1       9.062  11.407  19.599  0.00  0.00    +0.000 C 
ATOM     33  C   UNL     1       9.551  11.604  21.036  0.00  0.00    +0.000 C 
ATOM     34  C   UNL     1       9.471  12.630  18.773  0.00  0.00    +0.000 C 
ENDBRANCH  31  32
ENDBRANCH   5  31
TORSDOF 9
ENDMDL
MODEL 3
REMARK VINA RESULT:      -7.9      1.946      2.526
REMARK  Name = 
REMARK  12 active torsions:
REMARK  status: ('A' for Active; 'I' for Inactive)
REMARK    1  A    between atoms: C_1  and  C_2
REMARK    2  A    between atoms: C_2  and  O_3
REMARK    3  A    between atoms: O_3  and  C_4
REMARK    4  A    between atoms: C_7  and  O_8
REMARK    5  A    between atoms: O_8  and  C_9
REMARK    6  A    between atoms: C_9  and  C_10
REMARK    7  A    between atoms: C_14  and  O_15
REMARK    8  A    between atoms: O_15  and  C_16
REMARK    9  A    between atoms: C_16  and  C_17
REMARK   10  A    between atoms: C_16  and  C_18
REMARK   11  A    between atoms: N_23  and  C_24
REMARK   12  A    between atoms: C_24  and  C_26
REMARK                            x       y       z     vdW  Elec       q    Type
REMARK                         _______ _______ _______ _____ _____    ______ ____
ROOT
ATOM      1  C   UNL     1       6.300   6.339  17.013  0.00  0.00    +0.000 C 
ATOM      2  C   UNL     1       7.179   7.415  17.657  0.00  0.00    +0.000 A 
ATOM      3  C   UNL     1       7.262   8.727  17.182  0.00  0.00    +0.000 A 
ATOM      4  C   UNL     1       8.149   9.633  17.780  0.00  0.00    +0.000 A 
ATOM      5  C   UNL     1       9.007   9.226  18.805  0.00  0.00    +0.000 A 
ATOM      6  C   UNL     1       8.838   7.961  19.365  0.00  0.00    +0.000 A 
ATOM      7  C   UNL     1       7.869   7.089  18.840  0.00  0.00    +0.000 A 
ATOM      8  C   UNL     1       7.494   5.803  19.534  0.00  0.00    +0.000 C 
ATOM      9  C   UNL     1       5.987   5.472  19.354  0.00  0.00    +0.000 C 
ATOM     10  N   UNL     1       5.380   5.871  18.066  0.00  0.00    +0.000 N 
ENDROOT
BRANCH  10  11
ATOM     11  C   UNL     1       3.996   5.809  17.845  0.00  0.00    +0.000 C 
ATOM     12  S   UNL     1       3.019   7.151  17.551  0.00  0.00    +0.000 S 
BRANCH  11  13
ATOM     13  C   UNL     1       3.375   4.465  18.003  0.00  0.00    +0.000 A 
ATOM     14  C   UNL     1       2.012   4.395  18.337  0.00  0.00    +0.000 A 
ATOM     15  C   UNL     1       1.389   3.154  18.480  0.00  0.00    +0.000 A 
ATOM     16  C   UNL     1       2.127   1.986  18.285  0.00  0.00    +0.000 A 
ATOM     17  C   UNL     1       3.467   2.069  17.915  0.00  0.00    +0.000 A 
ATOM     18  F   UNL     1       4.159   0.941  17.709  0.00  0.00    +0.000 F 
ATOM     19  C   UNL     1       4.100   3.297  17.761  0.00  0.00    +0.000 A 
ENDBRANCH  11  13
ENDBRANCH  10  11
BRANCH   1  20
ATOM     20  C   UNL     1       7.149   5.188  16.388  0.00  0.00    +0.000 C 
BRANCH  20  21
ATOM     21  O   UNL     1       7.497   5.460  15.023  0.00  0.00    +0.000 OA
BRANCH  21  25
ATOM     22  C   UNL     1       5.405   3.346  12.093  0.00  0.00    +0.000 A 
ATOM     23  C   UNL     1       6.673   3.859  11.850  0.00  0.00    +0.000 A 
ATOM     24  C   UNL     1       7.355   4.567  12.845  0.00  0.00    +0.000 A 
ATOM     25  C   UNL     1       6.746   4.804  14.081  0.00  0.00    +0.000 A 
ATOM     26  C   UNL     1       5.459   4.316  14.313  0.00  0.00    +0.000 A 
ATOM     27  C   UNL     1       4.786   3.592  13.319  0.00  0.00    +0.000 A 
BRANCH  22  28
ATOM     28  O   UNL     1       4.851   2.610  11.072  0.00  0.00    +0.000 OA
BRANCH  28  30
ATOM     29  C   UNL     1       3.288   3.979   9.905  0.00  0.00    +0.000 C 
ATOM     30  C   UNL     1       3.452   2.798  10.844  0.00  0.00    +0.000 C 
ENDBRANCH  28  30
ENDBRANCH  22  28
ENDBRANCH  21  25
ENDBRANCH  20  21
ENDBRANCH   1  20
BRANCH   5  31
ATOM     31  O   UNL     1       9.924  10.157  19.217  0.00  0.00    +0.000 OA
BRANCH  31  32
ATOM     32  C   UNL     1       9.893  11.448  18.583  0.00  0.00    +0.000 C 
ATOM     33  C   UNL     1       9.593  12.563  19.587  0.00  0.00    +0.000 C 
ATOM     34  C   UNL     1      11.278  11.695  17.979  0.00  0.00    +0.000 C 
ENDBRANCH  31  32
ENDBRANCH   5  31
TORSDOF 9
ENDMDL
MODEL 4
REMARK VINA RESULT:      -7.8      1.103      1.432
REMARK  Name = 
REMARK  12 active torsions:
REMARK  status: ('A' for Active; 'I' for Inactive)
REMARK    1  A    between atoms: C_1  and  C_2
REMARK    2  A    between atoms: C_2  and  O_3
REMARK    3  A    between atoms: O_3  and  C_4
REMARK    4  A    between atoms: C_7  and  O_8
REMARK    5  A    between atoms: O_8  and  C_9
REMARK    6  A    between atoms: C_9  and  C_10
REMARK    7  A    between atoms: C_14  and  O_15
REMARK    8  A    between atoms: O_15  and  C_16
REMARK    9  A    between atoms: C_16  and  C_17
REMARK   10  A    between atoms: C_16  and  C_18
REMARK   11  A    between atoms: N_23  and  C_24
REMARK   12  A    between atoms: C_24  and  C_26
REMARK                            x       y       z     vdW  Elec       q    Type
REMARK                         _______ _______ _______ _____ _____    ______ ____
ROOT
ATOM      1  C   UNL     1       6.406   6.291  17.068  0.00  0.00    +0.000 C 
ATOM      2  C   UNL     1       7.150   7.525  17.587  0.00  0.00    +0.000 A 
ATOM      3  C   UNL     1       6.888   8.825  17.145  0.00  0.00    +0.000 A 
ATOM      4  C   UNL     1       7.665   9.894  17.612  0.00  0.00    +0.000 A 
ATOM      5  C   UNL     1       8.749   9.672  18.466  0.00  0.00    +0.000 A 
ATOM      6  C   UNL     1       8.934   8.401  19.008  0.00  0.00    +0.000 A 
ATOM      7  C   UNL     1       8.083   7.350  18.627  0.00  0.00    +0.000 A 
ATOM      8  C   UNL     1       8.095   6.018  19.334  0.00  0.00    +0.000 C 
ATOM      9  C   UNL     1       6.676   5.389  19.401  0.00  0.00    +0.000 C 
ATOM     10  N   UNL     1       5.791   5.652  18.246  0.00  0.00    +0.000 N 
ENDROOT
BRANCH  10  11
ATOM     11  C   UNL     1       4.431   5.311  18.258  0.00  0.00    +0.000 C 
ATOM     12  S   UNL     1       3.825   3.803  17.812  0.00  0.00    +0.000 S 
BRANCH  11  13
ATOM     13  C   UNL     1       3.489   6.418  18.582  0.00  0.00    +0.000 A 
ATOM     14  C   UNL     1       3.313   7.443  17.637  0.00  0.00    +0.000 A 
ATOM     15  C   UNL     1       2.428   8.491  17.897  0.00  0.00    +0.000 A 
ATOM     16  C   UNL     1       1.717   8.511  19.097  0.00  0.00    +0.000 A 
ATOM     17  C   UNL     1       1.870   7.468  20.008  0.00  0.00    +0.000 A 
ATOM     18  F   UNL     1       1.165   7.487  21.147  0.00  0.00    +0.000 F 
ATOM     19  C   UNL     1       2.741   6.414  19.761  0.00  0.00    +0.000 A 
ENDBRANCH  11  13
ENDBRANCH  10  11
BRANCH   1  20
ATOM     20  C   UNL     1       7.348   5.332  16.274  0.00  0.00    +0.000 C 
BRANCH  20  21
ATOM     21  O   UNL     1       7.446   5.700  14.892  0.00  0.00    +0.000 OA
BRANCH  21  25
ATOM     22  C   UNL     1       5.841   2.987  12.153  0.00  0.00    +0.000 A 
ATOM     23  C   UNL     1       7.013   3.684  11.882  0.00  0.00    +0.000 A 
ATOM     24  C   UNL     1       7.530   4.592  12.812  0.00  0.00    +0.000 A 
ATOM     25  C   UNL     1       6.849   4.838  14.008  0.00  0.00    +0.000 A 
ATOM     26  C   UNL     1       5.656   4.161  14.265  0.00  0.00    +0.000 A 
ATOM     27  C   UNL     1       5.149   3.240  13.338  0.00  0.00    +0.000 A 
BRANCH  22  28
ATOM     28  O   UNL     1       5.455   2.072  11.203  0.00  0.00    +0.000 OA
BRANCH  28  30
ATOM     29  C   UNL     1       6.125  -0.208  11.377  0.00  0.00    +0.000 C 
ATOM     30  C   UNL     1       6.455   1.145  10.774  0.00  0.00    +0.000 C 
ENDBRANCH  28  30
ENDBRANCH  22  28
ENDBRANCH  21  25
ENDBRANCH  20  21
ENDBRANCH   1  20
BRANCH   5  31
ATOM     31  O   UNL     1       9.519  10.771  18.745  0.00  0.00    +0.000 OA
BRANCH  31  32
ATOM     32  C   UNL     1      10.137  10.839  20.042  0.00  0.00    +0.000 C 
ATOM     33  C   UNL     1      11.379  11.732  20.029  0.00  0.00    +0.000 C 
ATOM     34  C   UNL     1       9.112  11.445  21.005  0.00  0.00    +0.000 C 
ENDBRANCH  31  32
ENDBRANCH   5  31
TORSDOF 9
ENDMDL
MODEL 5
REMARK VINA RESULT:      -7.4      6.087      9.358
REMARK  Name = 
REMARK  12 active torsions:
REMARK  status: ('A' for Active; 'I' for Inactive)
REMARK    1  A    between atoms: C_1  and  C_2
REMARK    2  A    between atoms: C_2  and  O_3
REMARK    3  A    between atoms: O_3  and  C_4
REMARK    4  A    between atoms: C_7  and  O_8
REMARK    5  A    between atoms: O_8  and  C_9
REMARK    6  A    between atoms: C_9  and  C_10
REMARK    7  A    between atoms: C_14  and  O_15
REMARK    8  A    between atoms: O_15  and  C_16
REMARK    9  A    between atoms: C_16  and  C_17
REMARK   10  A    between atoms: C_16  and  C_18
REMARK   11  A    between atoms: N_23  and  C_24
REMARK   12  A    between atoms: C_24  and  C_26
REMARK                            x       y       z     vdW  Elec       q    Type
REMARK                         _______ _______ _______ _____ _____    ______ ____
ROOT
ATOM      1  C   UNL     1       0.439  10.423  19.079  0.00  0.00    +0.000 C 
ATOM      2  C   UNL     1       1.322   9.173  19.003  0.00  0.00    +0.000 A 
ATOM      3  C   UNL     1       2.059   8.819  17.870  0.00  0.00    +0.000 A 
ATOM      4  C   UNL     1       2.783   7.619  17.852  0.00  0.00    +0.000 A 
ATOM      5  C   UNL     1       2.726   6.731  18.931  0.00  0.00    +0.000 A 
ATOM      6  C   UNL     1       2.099   7.138  20.108  0.00  0.00    +0.000 A 
ATOM      7  C   UNL     1       1.469   8.392  20.165  0.00  0.00    +0.000 A 
ATOM      8  C   UNL     1       0.967   8.973  21.463  0.00  0.00    +0.000 C 
ATOM      9  C   UNL     1       1.120  10.519  21.499  0.00  0.00    +0.000 C 
ATOM     10  N   UNL     1       0.947  11.221  20.209  0.00  0.00    +0.000 N 
ENDROOT
BRANCH  10  11
ATOM     11  C   UNL     1       1.245  12.583  20.058  0.00  0.00    +0.000 C 
ATOM     12  S   UNL     1       2.405  13.190  18.996  0.00  0.00    +0.000 S 
BRANCH  11  13
ATOM     13  C   UNL     1       0.552  13.506  20.998  0.00  0.00    +0.000 A 
ATOM     14  C   UNL     1       1.315  14.483  21.660  0.00  0.00    +0.000 A 
ATOM     15  C   UNL     1       0.699  15.376  22.539  0.00  0.00    +0.000 A 
ATOM     16  C   UNL     1      -0.677  15.297  22.750  0.00  0.00    +0.000 A 
ATOM     17  C   UNL     1      -1.429  14.351  22.057  0.00  0.00    +0.000 A 
ATOM     18  F   UNL     1      -2.753  14.299  22.252  0.00  0.00    +0.000 F 
ATOM     19  C   UNL     1      -0.832  13.459  21.174  0.00  0.00    +0.000 A 
ENDBRANCH  11  13
ENDBRANCH  10  11
BRANCH   1  20
ATOM     20  C   UNL     1      -1.074  10.061  19.217  0.00  0.00    +0.000 C 
BRANCH  20  21
ATOM     21  O   UNL     1      -1.922  11.146  18.815  0.00  0.00    +0.000 OA
BRANCH  21  25
ATOM     22  C   UNL     1      -3.914  10.363  15.230  0.00  0.00    +0.000 A 
ATOM     23  C   UNL     1      -2.699   9.758  15.531  0.00  0.00    +0.000 A 
ATOM     24  C   UNL     1      -2.047  10.038  16.737  0.00  0.00    +0.000 A 
ATOM     25  C   UNL     1      -2.592  10.964  17.632  0.00  0.00    +0.000 A 
ATOM     26  C   UNL     1      -3.796  11.594  17.314  0.00  0.00    +0.000 A 
ATOM     27  C   UNL     1      -4.454  11.299  16.112  0.00  0.00    +0.000 A 
BRANCH  22  28
ATOM     28  O   UNL     1      -4.502   9.969  14.052  0.00  0.00    +0.000 OA
BRANCH  28  30
ATOM     29  C   UNL     1      -4.501   9.681  11.686  0.00  0.00    +0.000 C 
ATOM     30  C   UNL     1      -3.635   9.850  12.921  0.00  0.00    +0.000 C 
ENDBRANCH  28  30
ENDBRANCH  22  28
ENDBRANCH  21  25
ENDBRANCH  20  21
ENDBRANCH   1  20
BRANCH   5  31
ATOM     31  O   UNL     1       3.360   5.531  18.746  0.00  0.00    +0.000 OA
BRANCH  31  32
ATOM     32  C   UNL     1       2.922   4.708  17.650  0.00  0.00    +0.000 C 
ATOM     33  C   UNL     1       3.968   3.654  17.282  0.00  0.00    +0.000 C 
ATOM     34  C   UNL     1       1.645   3.992  18.098  0.00  0.00    +0.000 C 
ENDBRANCH  31  32
ENDBRANCH   5  31
TORSDOF 9
ENDMDL
MODEL 6
REMARK VINA RESULT:      -7.2      5.977      9.280
REMARK  Name = 
REMARK  12 active torsions:
REMARK  status: ('A' for Active; 'I' for Inactive)
REMARK    1  A    between atoms: C_1  and  C_2
REMARK    2  A    between atoms: C_2  and  O_3
REMARK    3  A    between atoms: O_3  and  C_4
REMARK    4  A    between atoms: C_7  and  O_8
REMARK    5  A    between atoms: O_8  and  C_9
REMARK    6  A    between atoms: C_9  and  C_10
REMARK    7  A    between atoms: C_14  and  O_15
REMARK    8  A    between atoms: O_15  and  C_16
REMARK    9  A    between atoms: C_16  and  C_17
REMARK   10  A    between atoms: C_16  and  C_18
REMARK   11  A    between atoms: N_23  and  C_24
REMARK   12  A    between atoms: C_24  and  C_26
REMARK                            x       y       z     vdW  Elec       q    Type
REMARK                         _______ _______ _______ _____ _____    ______ ____
ROOT
ATOM      1  C   UNL     1       0.270  10.929  19.528  0.00  0.00    +0.000 C 
ATOM      2  C   UNL     1       1.190   9.752  19.187  0.00  0.00    +0.000 A 
ATOM      3  C   UNL     1       1.946   9.681  18.014  0.00  0.00    +0.000 A 
ATOM      4  C   UNL     1       2.706   8.536  17.737  0.00  0.00    +0.000 A 
ATOM      5  C   UNL     1       2.665   7.427  18.588  0.00  0.00    +0.000 A 
ATOM      6  C   UNL     1       2.018   7.542  19.817  0.00  0.00    +0.000 A 
ATOM      7  C   UNL     1       1.350   8.733  20.146  0.00  0.00    +0.000 A 
ATOM      8  C   UNL     1       0.821   8.995  21.534  0.00  0.00    +0.000 C 
ATOM      9  C   UNL     1       0.930  10.496  21.918  0.00  0.00    +0.000 C 
ATOM     10  N   UNL     1       0.746  11.466  20.817  0.00  0.00    +0.000 N 
ENDROOT
BRANCH  10  11
ATOM     11  C   UNL     1       1.006  12.834  20.980  0.00  0.00    +0.000 C 
ATOM     12  S   UNL     1       0.061  13.877  21.907  0.00  0.00    +0.000 S 
BRANCH  11  13
ATOM     13  C   UNL     1       2.131  13.381  20.171  0.00  0.00    +0.000 A 
ATOM     14  C   UNL     1       2.016  13.364  18.771  0.00  0.00    +0.000 A 
ATOM     15  C   UNL     1       3.042  13.881  17.978  0.00  0.00    +0.000 A 
ATOM     16  C   UNL     1       4.178  14.416  18.584  0.00  0.00    +0.000 A 
ATOM     17  C   UNL     1       4.262  14.464  19.974  0.00  0.00    +0.000 A 
ATOM     18  F   UNL     1       5.348  15.001  20.545  0.00  0.00    +0.000 F 
ATOM     19  C   UNL     1       3.246  13.961  20.778  0.00  0.00    +0.000 A 
ENDBRANCH  11  13
ENDBRANCH  10  11
BRANCH   1  20
ATOM     20  C   UNL     1      -1.232  10.505  19.560  0.00  0.00    +0.000 C 
BRANCH  20  21
ATOM     21  O   UNL     1      -2.062  11.422  18.833  0.00  0.00    +0.000 OA
BRANCH  21  25
ATOM     22  C   UNL     1      -3.827  10.129  15.277  0.00  0.00    +0.000 A 
ATOM     23  C   UNL     1      -4.420  11.106  16.067  0.00  0.00    +0.000 A 
ATOM     24  C   UNL     1      -3.813  11.521  17.257  0.00  0.00    +0.000 A 
ATOM     25  C   UNL     1      -2.623  10.925  17.685  0.00  0.00    +0.000 A 
ATOM     26  C   UNL     1      -2.045   9.920  16.906  0.00  0.00    +0.000 A 
ATOM     27  C   UNL     1      -2.648   9.519  15.706  0.00  0.00    +0.000 A 
BRANCH  22  28
ATOM     28  O   UNL     1      -4.471   9.841  14.097  0.00  0.00    +0.000 OA
BRANCH  28  30
ATOM     29  C   UNL     1      -4.626   9.765  11.720  0.00  0.00    +0.000 C 
ATOM     30  C   UNL     1      -3.706  10.013  12.901  0.00  0.00    +0.000 C 
ENDBRANCH  28  30
ENDBRANCH  22  28
ENDBRANCH  21  25
ENDBRANCH  20  21
ENDBRANCH   1  20
BRANCH   5  31
ATOM     31  O   UNL     1       3.336   6.316  18.147  0.00  0.00    +0.000 OA
BRANCH  31  32
ATOM     32  C   UNL     1       2.865   5.033  18.595  0.00  0.00    +0.000 C 
ATOM     33  C   UNL     1       1.752   4.495  17.694  0.00  0.00    +0.000 C 
ATOM     34  C   UNL     1       4.051   4.066  18.535  0.00  0.00    +0.000 C 
ENDBRANCH  31  32
ENDBRANCH   5  31
TORSDOF 9
ENDMDL
MODEL 7
REMARK VINA RESULT:      -7.1      6.775     10.605
REMARK  Name = 
REMARK  12 active torsions:
REMARK  status: ('A' for Active; 'I' for Inactive)
REMARK    1  A    between atoms: C_1  and  C_2
REMARK    2  A    between atoms: C_2  and  O_3
REMARK    3  A    between atoms: O_3  and  C_4
REMARK    4  A    between atoms: C_7  and  O_8
REMARK    5  A    between atoms: O_8  and  C_9
REMARK    6  A    between atoms: C_9  and  C_10
REMARK    7  A    between atoms: C_14  and  O_15
REMARK    8  A    between atoms: O_15  and  C_16
REMARK    9  A    between atoms: C_16  and  C_17
REMARK   10  A    between atoms: C_16  and  C_18
REMARK   11  A    between atoms: N_23  and  C_24
REMARK   12  A    between atoms: C_24  and  C_26
REMARK                            x       y       z     vdW  Elec       q    Type
REMARK                         _______ _______ _______ _____ _____    ______ ____
ROOT
ATOM      1  C   UNL     1       0.286  10.536  19.191  0.00  0.00    +0.000 C 
ATOM      2  C   UNL     1       1.258   9.373  18.972  0.00  0.00    +0.000 A 
ATOM      3  C   UNL     1       2.096   9.270  17.859  0.00  0.00    +0.000 A 
ATOM      4  C   UNL     1       2.903   8.136  17.691  0.00  0.00    +0.000 A 
ATOM      5  C   UNL     1       2.833   7.068  18.591  0.00  0.00    +0.000 A 
ATOM      6  C   UNL     1       2.099   7.221  19.766  0.00  0.00    +0.000 A 
ATOM      7  C   UNL     1       1.378   8.406  19.989  0.00  0.00    +0.000 A 
ATOM      8  C   UNL     1       0.747   8.717  21.323  0.00  0.00    +0.000 C 
ATOM      9  C   UNL     1       0.788  10.238  21.639  0.00  0.00    +0.000 C 
ATOM     10  N   UNL     1       0.656  11.148  20.481  0.00  0.00    +0.000 N 
ENDROOT
BRANCH  10  11
ATOM     11  C   UNL     1       0.867  12.530  20.594  0.00  0.00    +0.000 C 
ATOM     12  S   UNL     1       2.379  13.271  20.512  0.00  0.00    +0.000 S 
BRANCH  11  13
ATOM     13  C   UNL     1      -0.336  13.344  20.921  0.00  0.00    +0.000 A 
ATOM     14  C   UNL     1      -1.116  12.968  22.028  0.00  0.00    +0.000 A 
ATOM     15  C   UNL     1      -2.243  13.714  22.376  0.00  0.00    +0.000 A 
ATOM     16  C   UNL     1      -2.587  14.836  21.623  0.00  0.00    +0.000 A 
ATOM     17  C   UNL     1      -1.783  15.222  20.553  0.00  0.00    +0.000 A 
ATOM     18  F   UNL     1      -2.111  16.314  19.850  0.00  0.00    +0.000 F 
ATOM     19  C   UNL     1      -0.654  14.494  20.197  0.00  0.00    +0.000 A 
ENDBRANCH  11  13
ENDBRANCH  10  11
BRANCH   1  20
ATOM     20  C   UNL     1      -1.204  10.070  19.141  0.00  0.00    +0.000 C 
BRANCH  20  21
ATOM     21  O   UNL     1      -1.844  10.456  17.918  0.00  0.00    +0.000 OA
BRANCH  21  25
ATOM     22  C   UNL     1      -5.513  12.421  18.255  0.00  0.00    +0.000 A 
ATOM     23  C   UNL     1      -5.171  11.717  17.107  0.00  0.00    +0.000 A 
ATOM     24  C   UNL     1      -3.934  11.069  17.014  0.00  0.00    +0.000 A 
ATOM     25  C   UNL     1      -3.012  11.160  18.061  0.00  0.00    +0.000 A 
ATOM     26  C   UNL     1      -3.344  11.895  19.200  0.00  0.00    +0.000 A 
ATOM     27  C   UNL     1      -4.591  12.528  19.297  0.00  0.00    +0.000 A 
BRANCH  22  28
ATOM     28  O   UNL     1      -6.776  12.964  18.270  0.00  0.00    +0.000 OA
BRANCH  28  30
ATOM     29  C   UNL     1      -7.283  14.629  16.643  0.00  0.00    +0.000 C 
ATOM     30  C   UNL     1      -6.858  14.378  18.078  0.00  0.00    +0.000 C 
ENDBRANCH  28  30
ENDBRANCH  22  28
ENDBRANCH  21  25
ENDBRANCH  20  21
ENDBRANCH   1  20
BRANCH   5  31
ATOM     31  O   UNL     1       3.562   5.959  18.252  0.00  0.00    +0.000 OA
BRANCH  31  32
ATOM     32  C   UNL     1       3.067   4.679  18.684  0.00  0.00    +0.000 C 
ATOM     33  C   UNL     1       2.003   4.134  17.729  0.00  0.00    +0.000 C 
ATOM     34  C   UNL     1       4.253   3.711  18.697  0.00  0.00    +0.000 C 
ENDBRANCH  31  32
ENDBRANCH   5  31
TORSDOF 9
ENDMDL
MODEL 8
REMARK VINA RESULT:      -7.1      6.702     10.596
REMARK  Name = 
REMARK  12 active torsions:
REMARK  status: ('A' for Active; 'I' for Inactive)
REMARK    1  A    between atoms: C_1  and  C_2
REMARK    2  A    between atoms: C_2  and  O_3
REMARK    3  A    between atoms: O_3  and  C_4
REMARK    4  A    between atoms: C_7  and  O_8
REMARK    5  A    between atoms: O_8  and  C_9
REMARK    6  A    between atoms: C_9  and  C_10
REMARK    7  A    between atoms: C_14  and  O_15
REMARK    8  A    between atoms: O_15  and  C_16
REMARK    9  A    between atoms: C_16  and  C_17
REMARK   10  A    between atoms: C_16  and  C_18
REMARK   11  A    between atoms: N_23  and  C_24
REMARK   12  A    between atoms: C_24  and  C_26
REMARK                            x       y       z     vdW  Elec       q    Type
REMARK                         _______ _______ _______ _____ _____    ______ ____
ROOT
ATOM      1  C   UNL     1       0.505  10.550  18.543  0.00  0.00    +0.000 C 
ATOM      2  C   UNL     1       1.343   9.286  18.757  0.00  0.00    +0.000 A 
ATOM      3  C   UNL     1       2.167   8.734  17.773  0.00  0.00    +0.000 A 
ATOM      4  C   UNL     1       2.844   7.531  18.019  0.00  0.00    +0.000 A 
ATOM      5  C   UNL     1       2.654   6.835  19.216  0.00  0.00    +0.000 A 
ATOM      6  C   UNL     1       1.938   7.443  20.246  0.00  0.00    +0.000 A 
ATOM      7  C   UNL     1       1.353   8.703  20.038  0.00  0.00    +0.000 A 
ATOM      8  C   UNL     1       0.756   9.502  21.171  0.00  0.00    +0.000 C 
ATOM      9  C   UNL     1       0.964  11.028  20.970  0.00  0.00    +0.000 C 
ATOM     10  N   UNL     1       0.937  11.513  19.574  0.00  0.00    +0.000 N 
ENDROOT
BRANCH  10  11
ATOM     11  C   UNL     1       1.299  12.824  19.234  0.00  0.00    +0.000 C 
ATOM     12  S   UNL     1       2.727  13.240  18.441  0.00  0.00    +0.000 S 
BRANCH  11  13
ATOM     13  C   UNL     1       0.390  13.895  19.727  0.00  0.00    +0.000 A 
ATOM     14  C   UNL     1       0.046  13.904  21.089  0.00  0.00    +0.000 A 
ATOM     15  C   UNL     1      -0.792  14.900  21.593  0.00  0.00    +0.000 A 
ATOM     16  C   UNL     1      -1.281  15.888  20.738  0.00  0.00    +0.000 A 
ATOM     17  C   UNL     1      -0.900  15.891  19.398  0.00  0.00    +0.000 A 
ATOM     18  F   UNL     1      -1.357  16.858  18.591  0.00  0.00    +0.000 F 
ATOM     19  C   UNL     1      -0.060  14.911  18.882  0.00  0.00    +0.000 A 
ENDBRANCH  11  13
ENDBRANCH  10  11
BRANCH   1  20
ATOM     20  C   UNL     1      -1.027  10.250  18.591  0.00  0.00    +0.000 C 
BRANCH  20  21
ATOM     21  O   UNL     1      -1.768  11.111  17.715  0.00  0.00    +0.000 OA
BRANCH  21  25
ATOM     22  C   UNL     1      -5.436  12.440  19.202  0.00  0.00    +0.000 A 
ATOM     23  C   UNL     1      -5.333  11.854  17.946  0.00  0.00    +0.000 A 
ATOM     24  C   UNL     1      -4.092  11.420  17.466  0.00  0.00    +0.000 A 
ATOM     25  C   UNL     1      -2.937  11.610  18.230  0.00  0.00    +0.000 A 
ATOM     26  C   UNL     1      -3.038  12.227  19.478  0.00  0.00    +0.000 A 
ATOM     27  C   UNL     1      -4.284  12.646  19.962  0.00  0.00    +0.000 A 
BRANCH  22  28
ATOM     28  O   UNL     1      -6.708  12.770  19.606  0.00  0.00    +0.000 OA
BRANCH  28  30
ATOM     29  C   UNL     1      -7.576  10.840  20.701  0.00  0.00    +0.000 C 
ATOM     30  C   UNL     1      -7.696  11.744  19.488  0.00  0.00    +0.000 C 
ENDBRANCH  28  30
ENDBRANCH  22  28
ENDBRANCH  21  25
ENDBRANCH  20  21
ENDBRANCH   1  20
BRANCH   5  31
ATOM     31  O   UNL     1       3.256   5.606  19.290  0.00  0.00    +0.000 OA
BRANCH  31  32
ATOM     32  C   UNL     1       4.343   5.342  18.385  0.00  0.00    +0.000 C 
ATOM     33  C   UNL     1       5.673   5.198  19.127  0.00  0.00    +0.000 C 
ATOM     34  C   UNL     1       4.035   4.020  17.675  0.00  0.00    +0.000 C 
ENDBRANCH  31  32
ENDBRANCH   5  31
TORSDOF 9
ENDMDL
MODEL 9
REMARK VINA RESULT:      -7.0      6.987     10.897
REMARK  Name = 
REMARK  12 active torsions:
REMARK  status: ('A' for Active; 'I' for Inactive)
REMARK    1  A    between atoms: C_1  and  C_2
REMARK    2  A    between atoms: C_2  and  O_3
REMARK    3  A    between atoms: O_3  and  C_4
REMARK    4  A    between atoms: C_7  and  O_8
REMARK    5  A    between atoms: O_8  and  C_9
REMARK    6  A    between atoms: C_9  and  C_10
REMARK    7  A    between atoms: C_14  and  O_15
REMARK    8  A    between atoms: O_15  and  C_16
REMARK    9  A    between atoms: C_16  and  C_17
REMARK   10  A    between atoms: C_16  and  C_18
REMARK   11  A    between atoms: N_23  and  C_24
REMARK   12  A    between atoms: C_24  and  C_26
REMARK                            x       y       z     vdW  Elec       q    Type
REMARK                         _______ _______ _______ _____ _____    ______ ____
ROOT
ATOM      1  C   UNL     1       0.330  10.850  18.677  0.00  0.00    +0.000 C 
ATOM      2  C   UNL     1       1.127   9.557  18.882  0.00  0.00    +0.000 A 
ATOM      3  C   UNL     1       1.895   8.960  17.879  0.00  0.00    +0.000 A 
ATOM      4  C   UNL     1       2.534   7.736  18.121  0.00  0.00    +0.000 A 
ATOM      5  C   UNL     1       2.359   7.064  19.334  0.00  0.00    +0.000 A 
ATOM      6  C   UNL     1       1.703   7.715  20.378  0.00  0.00    +0.000 A 
ATOM      7  C   UNL     1       1.159   8.993  20.171  0.00  0.00    +0.000 A 
ATOM      8  C   UNL     1       0.633   9.830  21.311  0.00  0.00    +0.000 C 
ATOM      9  C   UNL     1       0.891  11.344  21.080  0.00  0.00    +0.000 C 
ATOM     10  N   UNL     1       0.834  11.809  19.677  0.00  0.00    +0.000 N 
ENDROOT
BRANCH  10  11
ATOM     11  C   UNL     1       1.234  13.101  19.305  0.00  0.00    +0.000 C 
ATOM     12  S   UNL     1       2.531  13.437  18.282  0.00  0.00    +0.000 S 
BRANCH  11  13
ATOM     13  C   UNL     1       0.511  14.219  19.971  0.00  0.00    +0.000 A 
ATOM     14  C   UNL     1       1.265  15.196  20.643  0.00  0.00    +0.000 A 
ATOM     15  C   UNL     1       0.626  16.268  21.267  0.00  0.00    +0.000 A 
ATOM     16  C   UNL     1      -0.764  16.366  21.215  0.00  0.00    +0.000 A 
ATOM     17  C   UNL     1      -1.498  15.414  20.511  0.00  0.00    +0.000 A 
ATOM     18  F   UNL     1      -2.831  15.531  20.450  0.00  0.00    +0.000 F 
ATOM     19  C   UNL     1      -0.877  14.345  19.878  0.00  0.00    +0.000 A 
ENDBRANCH  11  13
ENDBRANCH  10  11
BRANCH   1  20
ATOM     20  C   UNL     1      -1.209  10.609  18.782  0.00  0.00    +0.000 C 
BRANCH  20  21
ATOM     21  O   UNL     1      -1.908  11.109  17.634  0.00  0.00    +0.000 OA
BRANCH  21  25
ATOM     22  C   UNL     1      -5.803  12.393  18.415  0.00  0.00    +0.000 A 
ATOM     23  C   UNL     1      -4.827  12.396  19.404  0.00  0.00    +0.000 A 
ATOM     24  C   UNL     1      -3.529  11.957  19.121  0.00  0.00    +0.000 A 
ATOM     25  C   UNL     1      -3.213  11.471  17.849  0.00  0.00    +0.000 A 
ATOM     26  C   UNL     1      -4.203  11.439  16.865  0.00  0.00    +0.000 A 
ATOM     27  C   UNL     1      -5.498  11.895  17.148  0.00  0.00    +0.000 A 
BRANCH  22  28
ATOM     28  O   UNL     1      -7.026  12.905  18.779  0.00  0.00    +0.000 OA
BRANCH  28  30
ATOM     29  C   UNL     1      -6.968  15.161  18.013  0.00  0.00    +0.000 C 
ATOM     30  C   UNL     1      -7.635  13.807  17.852  0.00  0.00    +0.000 C 
ENDBRANCH  28  30
ENDBRANCH  22  28
ENDBRANCH  21  25
ENDBRANCH  20  21
ENDBRANCH   1  20
BRANCH   5  31
ATOM     31  O   UNL     1       2.917   5.815  19.406  0.00  0.00    +0.000 OA
BRANCH  31  32
ATOM     32  C   UNL     1       2.038   4.684  19.272  0.00  0.00    +0.000 C 
ATOM     33  C   UNL     1       2.064   4.115  17.852  0.00  0.00    +0.000 C 
ATOM     34  C   UNL     1       2.532   3.604  20.239  0.00  0.00    +0.000 C 
ENDBRANCH  31  32
ENDBRANCH   5  31
TORSDOF 9
ENDMDL
