MODEL 1
REMARK VINA RESULT:      -8.7      0.000      0.000
REMARK  Name = 
REMARK  7 active torsions:
REMARK  status: ('A' for Active; 'I' for Inactive)
REMARK    1  A    between atoms: C_1  and  C_2
REMARK    2  A    between atoms: N_5  and  C_6
REMARK    3  A    between atoms: C_6  and  C_7
REMARK    4  A    between atoms: C_7  and  C_8
REMARK    5  A    between atoms: N_11  and  C_12
REMARK    6  A    between atoms: C_12  and  C_13
REMARK    7  A    between atoms: C_23  and  C_24
REMARK                            x       y       z     vdW  Elec       q    Type
REMARK                         _______ _______ _______ _____ _____    ______ ____
ROOT
ATOM      1  C   UNL     1      10.185  11.882  21.063  0.00  0.00    +0.000 C 
ATOM      2  C   UNL     1       9.547  11.515  19.748  0.00  0.00    +0.000 A 
ATOM      3  C   UNL     1       9.240  10.169  19.565  0.00  0.00    +0.000 A 
ATOM      4  C   UNL     1       8.600   9.743  18.419  0.00  0.00    +0.000 A 
ATOM      5  N   UNL     1       8.383   8.479  18.295  0.00  0.00    +0.000 NA
ATOM      6  N   UNL     1       8.234  10.665  17.479  0.00  0.00    +0.000 N 
ATOM      7  N   UNL     1       8.514  11.961  17.646  0.00  0.00    +0.000 NA
ATOM      8  C   UNL     1       9.188  12.444  18.734  0.00  0.00    +0.000 A 
ATOM      9  H   UNL     1       7.732  10.391  16.607  0.00  0.00    +0.000 HD
ENDROOT
BRANCH   8  10
ATOM     10  C   UNL     1       9.436  13.921  18.814  0.00  0.00    +0.000 A 
ATOM     11  C   UNL     1      10.664  14.445  18.357  0.00  0.00    +0.000 A 
ATOM     12  C   UNL     1      10.904  15.824  18.378  0.00  0.00    +0.000 A 
ATOM     13  C   UNL     1       9.937  16.699  18.876  0.00  0.00    +0.000 A 
ATOM     14  C   UNL     1       8.737  16.196  19.367  0.00  0.00    +0.000 A 
ATOM     15  C   UNL     1       8.490  14.825  19.342  0.00  0.00    +0.000 A 
ENDBRANCH   8  10
BRANCH   5  16
ATOM     16  C   UNL     1       7.731   7.813  17.200  0.00  0.00    +0.000 C 
BRANCH  16  17
ATOM     17  C   UNL     1       6.626   6.895  17.728  0.00  0.00    +0.000 C 
BRANCH  17  18
ATOM     18  C   UNL     1       5.372   6.908  16.816  0.00  0.00    +0.000 C 
ATOM     19  C   UNL     1       4.074   6.794  17.634  0.00  0.00    +0.000 C 
ATOM     20  C   UNL     1       3.937   5.398  18.273  0.00  0.00    +0.000 C 
ATOM     21  N   UNL     1       4.003   4.323  17.251  0.00  0.00    +0.000 NA
ATOM     22  C   UNL     1       5.236   4.415  16.433  0.00  0.00    +0.000 C 
ATOM     23  C   UNL     1       5.349   5.786  15.761  0.00  0.00    +0.000 C 
BRANCH  21  24
ATOM     24  C   UNL     1       3.965   2.987  17.887  0.00  0.00    +0.000 C 
BRANCH  24  25
ATOM     25  C   UNL     1       3.006   2.928  19.048  0.00  0.00    +0.000 A 
ATOM     26  C   UNL     1       3.482   2.721  20.353  0.00  0.00    +0.000 A 
ATOM     27  C   UNL     1       2.590   2.689  21.430  0.00  0.00    +0.000 A 
ATOM     28  C   UNL     1       1.220   2.862  21.212  0.00  0.00    +0.000 A 
ATOM     29  C   UNL     1       0.739   3.066  19.917  0.00  0.00    +0.000 A 
ATOM     30  C   UNL     1       1.626   3.098  18.837  0.00  0.00    +0.000 A 
ENDBRANCH  24  25
ENDBRANCH  21  24
ENDBRANCH  17  18
ENDBRANCH  16  17
ENDBRANCH   5  16
TORSDOF 6
ENDMDL
MODEL 2
REMARK VINA RESULT:      -8.6      0.926      1.511
REMARK  Name = 
REMARK  7 active torsions:
REMARK  status: ('A' for Active; 'I' for Inactive)
REMARK    1  A    between atoms: C_1  and  C_2
REMARK    2  A    between atoms: N_5  and  C_6
REMARK    3  A    between atoms: C_6  and  C_7
REMARK    4  A    between atoms: C_7  and  C_8
REMARK    5  A    between atoms: N_11  and  C_12
REMARK    6  A    between atoms: C_12  and  C_13
REMARK    7  A    between atoms: C_23  and  C_24
REMARK                            x       y       z     vdW  Elec       q    Type
REMARK                         _______ _______ _______ _____ _____    ______ ____
ROOT
ATOM      1  C   UNL     1      10.174  12.004  21.341  0.00  0.00    +0.000 C 
ATOM      2  C   UNL     1       9.651  11.609  19.984  0.00  0.00    +0.000 A 
ATOM      3  C   UNL     1       9.260  10.281  19.835  0.00  0.00    +0.000 A 
ATOM      4  C   UNL     1       8.713   9.838  18.648  0.00  0.00    +0.000 A 
ATOM      5  N   UNL     1       8.410   8.588  18.564  0.00  0.00    +0.000 NA
ATOM      6  N   UNL     1       8.523  10.729  17.629  0.00  0.00    +0.000 N 
ATOM      7  N   UNL     1       8.885  12.008  17.762  0.00  0.00    +0.000 NA
ATOM      8  C   UNL     1       9.477  12.502  18.892  0.00  0.00    +0.000 A 
ATOM      9  H   UNL     1       8.096  10.442  16.721  0.00  0.00    +0.000 HD
ENDROOT
BRANCH   8  10
ATOM     10  C   UNL     1       9.831  13.959  18.925  0.00  0.00    +0.000 A 
ATOM     11  C   UNL     1      11.152  14.359  18.631  0.00  0.00    +0.000 A 
ATOM     12  C   UNL     1      11.499  15.715  18.611  0.00  0.00    +0.000 A 
ATOM     13  C   UNL     1      10.545  16.691  18.906  0.00  0.00    +0.000 A 
ATOM     14  C   UNL     1       9.249  16.311  19.238  0.00  0.00    +0.000 A 
ATOM     15  C   UNL     1       8.896  14.963  19.252  0.00  0.00    +0.000 A 
ENDBRANCH   8  10
BRANCH   5  16
ATOM     16  C   UNL     1       7.827   7.909  17.438  0.00  0.00    +0.000 C 
BRANCH  16  17
ATOM     17  C   UNL     1       7.465   6.473  17.822  0.00  0.00    +0.000 C 
BRANCH  17  18
ATOM     18  C   UNL     1       6.635   5.767  16.719  0.00  0.00    +0.000 C 
ATOM     19  C   UNL     1       5.533   6.686  16.163  0.00  0.00    +0.000 C 
ATOM     20  C   UNL     1       4.435   6.943  17.213  0.00  0.00    +0.000 C 
ATOM     21  N   UNL     1       3.849   5.672  17.710  0.00  0.00    +0.000 NA
ATOM     22  C   UNL     1       4.888   4.756  18.239  0.00  0.00    +0.000 C 
ATOM     23  C   UNL     1       5.954   4.464  17.180  0.00  0.00    +0.000 C 
BRANCH  21  24
ATOM     24  C   UNL     1       2.865   5.929  18.785  0.00  0.00    +0.000 C 
BRANCH  24  25
ATOM     25  C   UNL     1       2.169   4.673  19.243  0.00  0.00    +0.000 A 
ATOM     26  C   UNL     1       1.547   3.826  18.310  0.00  0.00    +0.000 A 
ATOM     27  C   UNL     1       0.921   2.651  18.736  0.00  0.00    +0.000 A 
ATOM     28  C   UNL     1       0.910   2.313  20.093  0.00  0.00    +0.000 A 
ATOM     29  C   UNL     1       1.523   3.152  21.027  0.00  0.00    +0.000 A 
ATOM     30  C   UNL     1       2.150   4.329  20.606  0.00  0.00    +0.000 A 
ENDBRANCH  24  25
ENDBRANCH  21  24
ENDBRANCH  17  18
ENDBRANCH  16  17
ENDBRANCH   5  16
TORSDOF 6
ENDMDL
MODEL 3
REMARK VINA RESULT:      -8.4      1.379      1.647
REMARK  Name = 
REMARK  7 active torsions:
REMARK  status: ('A' for Active; 'I' for Inactive)
REMARK    1  A    between atoms: C_1  and  C_2
REMARK    2  A    between atoms: N_5  and  C_6
REMARK    3  A    between atoms: C_6  and  C_7
REMARK    4  A    between atoms: C_7  and  C_8
REMARK    5  A    between atoms: N_11  and  C_12
REMARK    6  A    between atoms: C_12  and  C_13
REMARK    7  A    between atoms: C_23  and  C_24
REMARK                            x       y       z     vdW  Elec       q    Type
REMARK                         _______ _______ _______ _____ _____    ______ ____
ROOT
ATOM      1  C   UNL     1       8.280  13.316  17.346  0.00  0.00    +0.000 C 
ATOM      2  C   UNL     1       8.539  12.060  18.136  0.00  0.00    +0.000 A 
ATOM      3  C   UNL     1       8.030  10.879  17.604  0.00  0.00    +0.000 A 
ATOM      4  C   UNL     1       8.266   9.669  18.223  0.00  0.00    +0.000 A 
ATOM      5  N   UNL     1       7.731   8.620  17.700  0.00  0.00    +0.000 NA
ATOM      6  N   UNL     1       9.041   9.637  19.349  0.00  0.00    +0.000 N 
ATOM      7  N   UNL     1       9.543  10.762  19.865  0.00  0.00    +0.000 NA
ATOM      8  C   UNL     1       9.308  11.998  19.330  0.00  0.00    +0.000 A 
ATOM      9  H   UNL     1       9.260   8.742  19.839  0.00  0.00    +0.000 HD
ENDROOT
BRANCH   8  10
ATOM     10  C   UNL     1       9.935  13.187  19.995  0.00  0.00    +0.000 A 
ATOM     11  C   UNL     1      11.180  13.665  19.534  0.00  0.00    +0.000 A 
ATOM     12  C   UNL     1      11.767  14.799  20.106  0.00  0.00    +0.000 A 
ATOM     13  C   UNL     1      11.137  15.461  21.162  0.00  0.00    +0.000 A 
ATOM     14  C   UNL     1       9.929  14.980  21.656  0.00  0.00    +0.000 A 
ATOM     15  C   UNL     1       9.337  13.855  21.084  0.00  0.00    +0.000 A 
ENDBRANCH   8  10
BRANCH   5  16
ATOM     16  C   UNL     1       7.844   7.263  18.164  0.00  0.00    +0.000 C 
BRANCH  16  17
ATOM     17  C   UNL     1       7.335   6.298  17.091  0.00  0.00    +0.000 C 
BRANCH  17  18
ATOM     18  C   UNL     1       5.928   6.695  16.571  0.00  0.00    +0.000 C 
ATOM     19  C   UNL     1       4.890   6.718  17.706  0.00  0.00    +0.000 C 
ATOM     20  C   UNL     1       4.601   5.297  18.230  0.00  0.00    +0.000 C 
ATOM     21  N   UNL     1       4.156   4.395  17.137  0.00  0.00    +0.000 NA
ATOM     22  C   UNL     1       5.129   4.363  16.019  0.00  0.00    +0.000 C 
ATOM     23  C   UNL     1       5.380   5.769  15.468  0.00  0.00    +0.000 C 
BRANCH  21  24
ATOM     24  C   UNL     1       3.974   3.013  17.635  0.00  0.00    +0.000 C 
BRANCH  24  25
ATOM     25  C   UNL     1       3.010   2.939  18.791  0.00  0.00    +0.000 A 
ATOM     26  C   UNL     1       3.484   2.969  20.114  0.00  0.00    +0.000 A 
ATOM     27  C   UNL     1       2.585   2.922  21.184  0.00  0.00    +0.000 A 
ATOM     28  C   UNL     1       1.210   2.846  20.943  0.00  0.00    +0.000 A 
ATOM     29  C   UNL     1       0.732   2.813  19.631  0.00  0.00    +0.000 A 
ATOM     30  C   UNL     1       1.626   2.858  18.557  0.00  0.00    +0.000 A 
ENDBRANCH  24  25
ENDBRANCH  21  24
ENDBRANCH  17  18
ENDBRANCH  16  17
ENDBRANCH   5  16
TORSDOF 6
ENDMDL
MODEL 4
REMARK VINA RESULT:      -8.3      1.415      1.682
REMARK  Name = 
REMARK  7 active torsions:
REMARK  status: ('A' for Active; 'I' for Inactive)
REMARK    1  A    between atoms: C_1  and  C_2
REMARK    2  A    between atoms: N_5  and  C_6
REMARK    3  A    between atoms: C_6  and  C_7
REMARK    4  A    between atoms: C_7  and  C_8
REMARK    5  A    between atoms: N_11  and  C_12
REMARK    6  A    between atoms: C_12  and  C_13
REMARK    7  A    between atoms: C_23  and  C_24
REMARK                            x       y       z     vdW  Elec       q    Type
REMARK                         _______ _______ _______ _____ _____    ______ ____
ROOT
ATOM      1  C   UNL     1      12.319  12.588  19.362  0.00  0.00    +0.000 C 
ATOM      2  C   UNL     1      10.998  12.352  18.679  0.00  0.00    +0.000 A 
ATOM      3  C   UNL     1      10.480  11.063  18.765  0.00  0.00    +0.000 A 
ATOM      4  C   UNL     1       9.247  10.762  18.222  0.00  0.00    +0.000 A 
ATOM      5  N   UNL     1       8.845   9.540  18.300  0.00  0.00    +0.000 NA
ATOM      6  N   UNL     1       8.520  11.757  17.630  0.00  0.00    +0.000 N 
ATOM      7  N   UNL     1       9.001  13.001  17.548  0.00  0.00    +0.000 NA
ATOM      8  C   UNL     1      10.234  13.355  18.022  0.00  0.00    +0.000 A 
ATOM      9  H   UNL     1       7.576  11.579  17.223  0.00  0.00    +0.000 HD
ENDROOT
BRANCH   8  10
ATOM     10  C   UNL     1      10.661  14.786  17.880  0.00  0.00    +0.000 A 
ATOM     11  C   UNL     1      11.926  15.082  17.330  0.00  0.00    +0.000 A 
ATOM     12  C   UNL     1      12.332  16.409  17.145  0.00  0.00    +0.000 A 
ATOM     13  C   UNL     1      11.496  17.460  17.527  0.00  0.00    +0.000 A 
ATOM     14  C   UNL     1      10.262  17.186  18.108  0.00  0.00    +0.000 A 
ATOM     15  C   UNL     1       9.851  15.867  18.288  0.00  0.00    +0.000 A 
ENDBRANCH   8  10
BRANCH   5  16
ATOM     16  C   UNL     1       7.604   9.001  17.816  0.00  0.00    +0.000 C 
BRANCH  16  17
ATOM     17  C   UNL     1       7.681   7.473  17.763  0.00  0.00    +0.000 C 
BRANCH  17  18
ATOM     18  C   UNL     1       6.801   6.885  16.629  0.00  0.00    +0.000 C 
ATOM     19  C   UNL     1       5.302   7.004  16.955  0.00  0.00    +0.000 C 
ATOM     20  C   UNL     1       4.907   6.077  18.122  0.00  0.00    +0.000 C 
ATOM     21  N   UNL     1       5.266   4.664  17.839  0.00  0.00    +0.000 NA
ATOM     22  C   UNL     1       6.704   4.517  17.505  0.00  0.00    +0.000 C 
ATOM     23  C   UNL     1       7.085   5.403  16.316  0.00  0.00    +0.000 C 
BRANCH  21  24
ATOM     24  C   UNL     1       4.969   3.801  19.004  0.00  0.00    +0.000 C 
BRANCH  24  25
ATOM     25  C   UNL     1       3.516   3.848  19.401  0.00  0.00    +0.000 A 
ATOM     26  C   UNL     1       3.094   4.671  20.458  0.00  0.00    +0.000 A 
ATOM     27  C   UNL     1       1.742   4.728  20.808  0.00  0.00    +0.000 A 
ATOM     28  C   UNL     1       0.802   3.965  20.108  0.00  0.00    +0.000 A 
ATOM     29  C   UNL     1       1.214   3.142  19.057  0.00  0.00    +0.000 A 
ATOM     30  C   UNL     1       2.565   3.081  18.704  0.00  0.00    +0.000 A 
ENDBRANCH  24  25
ENDBRANCH  21  24
ENDBRANCH  17  18
ENDBRANCH  16  17
ENDBRANCH   5  16
TORSDOF 6
ENDMDL
MODEL 5
REMARK VINA RESULT:      -8.3      1.467      2.190
REMARK  Name = 
REMARK  7 active torsions:
REMARK  status: ('A' for Active; 'I' for Inactive)
REMARK    1  A    between atoms: C_1  and  C_2
REMARK    2  A    between atoms: N_5  and  C_6
REMARK    3  A    between atoms: C_6  and  C_7
REMARK    4  A    between atoms: C_7  and  C_8
REMARK    5  A    between atoms: N_11  and  C_12
REMARK    6  A    between atoms: C_12  and  C_13
REMARK    7  A    between atoms: C_23  and  C_24
REMARK                            x       y       z     vdW  Elec       q    Type
REMARK                         _______ _______ _______ _____ _____    ______ ____
ROOT
ATOM      1  C   UNL     1      12.242  12.360  19.015  0.00  0.00    +0.000 C 
ATOM      2  C   UNL     1      10.847  12.114  18.501  0.00  0.00    +0.000 A 
ATOM      3  C   UNL     1      10.395  10.798  18.549  0.00  0.00    +0.000 A 
ATOM      4  C   UNL     1       9.110  10.481  18.157  0.00  0.00    +0.000 A 
ATOM      5  N   UNL     1       8.770   9.239  18.186  0.00  0.00    +0.000 NA
ATOM      6  N   UNL     1       8.270  11.482  17.756  0.00  0.00    +0.000 N 
ATOM      7  N   UNL     1       8.688  12.751  17.715  0.00  0.00    +0.000 NA
ATOM      8  C   UNL     1       9.962  13.127  18.043  0.00  0.00    +0.000 A 
ATOM      9  H   UNL     1       7.285  11.291  17.470  0.00  0.00    +0.000 HD
ENDROOT
BRANCH   8  10
ATOM     10  C   UNL     1      10.310  14.584  17.966  0.00  0.00    +0.000 A 
ATOM     11  C   UNL     1      11.191  15.035  16.960  0.00  0.00    +0.000 A 
ATOM     12  C   UNL     1      11.498  16.395  16.837  0.00  0.00    +0.000 A 
ATOM     13  C   UNL     1      10.954  17.323  17.727  0.00  0.00    +0.000 A 
ATOM     14  C   UNL     1      10.116  16.891  18.749  0.00  0.00    +0.000 A 
ATOM     15  C   UNL     1       9.801  15.538  18.871  0.00  0.00    +0.000 A 
ENDBRANCH   8  10
BRANCH   5  16
ATOM     16  C   UNL     1       7.493   8.679  17.833  0.00  0.00    +0.000 C 
BRANCH  16  17
ATOM     17  C   UNL     1       7.679   7.279  17.246  0.00  0.00    +0.000 C 
BRANCH  17  18
ATOM     18  C   UNL     1       7.672   6.181  18.342  0.00  0.00    +0.000 C 
ATOM     19  C   UNL     1       7.900   4.782  17.744  0.00  0.00    +0.000 C 
ATOM     20  C   UNL     1       6.695   4.333  16.894  0.00  0.00    +0.000 C 
ATOM     21  N   UNL     1       5.434   4.363  17.680  0.00  0.00    +0.000 NA
ATOM     22  C   UNL     1       5.194   5.695  18.283  0.00  0.00    +0.000 C 
ATOM     23  C   UNL     1       6.371   6.120  19.165  0.00  0.00    +0.000 C 
BRANCH  21  24
ATOM     24  C   UNL     1       4.274   4.021  16.828  0.00  0.00    +0.000 C 
BRANCH  24  25
ATOM     25  C   UNL     1       3.130   3.439  17.617  0.00  0.00    +0.000 A 
ATOM     26  C   UNL     1       1.864   4.049  17.590  0.00  0.00    +0.000 A 
ATOM     27  C   UNL     1       0.800   3.493  18.306  0.00  0.00    +0.000 A 
ATOM     28  C   UNL     1       0.990   2.327  19.054  0.00  0.00    +0.000 A 
ATOM     29  C   UNL     1       2.246   1.717  19.089  0.00  0.00    +0.000 A 
ATOM     30  C   UNL     1       3.314   2.269  18.375  0.00  0.00    +0.000 A 
ENDBRANCH  24  25
ENDBRANCH  21  24
ENDBRANCH  17  18
ENDBRANCH  16  17
ENDBRANCH   5  16
TORSDOF 6
ENDMDL
MODEL 6
REMARK VINA RESULT:      -8.1      1.194      1.832
REMARK  Name = 
REMARK  7 active torsions:
REMARK  status: ('A' for Active; 'I' for Inactive)
REMARK    1  A    between atoms: C_1  and  C_2
REMARK    2  A    between atoms: N_5  and  C_6
REMARK    3  A    between atoms: C_6  and  C_7
REMARK    4  A    between atoms: C_7  and  C_8
REMARK    5  A    between atoms: N_11  and  C_12
REMARK    6  A    between atoms: C_12  and  C_13
REMARK    7  A    between atoms: C_23  and  C_24
REMARK                            x       y       z     vdW  Elec       q    Type
REMARK                         _______ _______ _______ _____ _____    ______ ____
ROOT
ATOM      1  C   UNL     1       7.869  12.894  17.066  0.00  0.00    +0.000 C 
ATOM      2  C   UNL     1       8.372  11.719  17.863  0.00  0.00    +0.000 A 
ATOM      3  C   UNL     1       7.821  10.479  17.551  0.00  0.00    +0.000 A 
ATOM      4  C   UNL     1       8.259   9.334  18.184  0.00  0.00    +0.000 A 
ATOM      5  N   UNL     1       7.678   8.226  17.878  0.00  0.00    +0.000 NA
ATOM      6  N   UNL     1       9.272   9.425  19.098  0.00  0.00    +0.000 N 
ATOM      7  N   UNL     1       9.816  10.608  19.401  0.00  0.00    +0.000 NA
ATOM      8  C   UNL     1       9.396  11.785  18.847  0.00  0.00    +0.000 A 
ATOM      9  H   UNL     1       9.648   8.584  19.588  0.00  0.00    +0.000 HD
ENDROOT
BRANCH   8  10
ATOM     10  C   UNL     1      10.092  13.048  19.260  0.00  0.00    +0.000 A 
ATOM     11  C   UNL     1      11.462  13.008  19.595  0.00  0.00    +0.000 A 
ATOM     12  C   UNL     1      12.147  14.179  19.941  0.00  0.00    +0.000 A 
ATOM     13  C   UNL     1      11.475  15.402  19.981  0.00  0.00    +0.000 A 
ATOM     14  C   UNL     1      10.115  15.453  19.692  0.00  0.00    +0.000 A 
ATOM     15  C   UNL     1       9.431  14.291  19.341  0.00  0.00    +0.000 A 
ENDBRANCH   8  10
BRANCH   5  16
ATOM     16  C   UNL     1       7.970   6.918  18.400  0.00  0.00    +0.000 C 
BRANCH  16  17
ATOM     17  C   UNL     1       7.254   5.850  17.569  0.00  0.00    +0.000 C 
BRANCH  17  18
ATOM     18  C   UNL     1       5.987   6.408  16.870  0.00  0.00    +0.000 C 
ATOM     19  C   UNL     1       4.808   6.535  17.851  0.00  0.00    +0.000 C 
ATOM     20  C   UNL     1       4.295   5.150  18.291  0.00  0.00    +0.000 C 
ATOM     21  N   UNL     1       3.911   4.316  17.123  0.00  0.00    +0.000 NA
ATOM     22  C   UNL     1       5.023   4.187  16.150  0.00  0.00    +0.000 C 
ATOM     23  C   UNL     1       5.502   5.563  15.677  0.00  0.00    +0.000 C 
BRANCH  21  24
ATOM     24  C   UNL     1       3.511   2.958  17.553  0.00  0.00    +0.000 C 
BRANCH  24  25
ATOM     25  C   UNL     1       2.758   2.966  18.859  0.00  0.00    +0.000 A 
ATOM     26  C   UNL     1       1.427   3.413  18.910  0.00  0.00    +0.000 A 
ATOM     27  C   UNL     1       0.726   3.397  20.119  0.00  0.00    +0.000 A 
ATOM     28  C   UNL     1       1.346   2.937  21.285  0.00  0.00    +0.000 A 
ATOM     29  C   UNL     1       2.670   2.494  21.243  0.00  0.00    +0.000 A 
ATOM     30  C   UNL     1       3.376   2.508  20.037  0.00  0.00    +0.000 A 
ENDBRANCH  24  25
ENDBRANCH  21  24
ENDBRANCH  17  18
ENDBRANCH  16  17
ENDBRANCH   5  16
TORSDOF 6
ENDMDL
MODEL 7
REMARK VINA RESULT:      -8.0      1.220      1.919
REMARK  Name = 
REMARK  7 active torsions:
REMARK  status: ('A' for Active; 'I' for Inactive)
REMARK    1  A    between atoms: C_1  and  C_2
REMARK    2  A    between atoms: N_5  and  C_6
REMARK    3  A    between atoms: C_6  and  C_7
REMARK    4  A    between atoms: C_7  and  C_8
REMARK    5  A    between atoms: N_11  and  C_12
REMARK    6  A    between atoms: C_12  and  C_13
REMARK    7  A    between atoms: C_23  and  C_24
REMARK                            x       y       z     vdW  Elec       q    Type
REMARK                         _______ _______ _______ _____ _____    ______ ____
ROOT
ATOM      1  C   UNL     1      10.026  12.274  21.610  0.00  0.00    +0.000 C 
ATOM      2  C   UNL     1       9.738  11.869  20.187  0.00  0.00    +0.000 A 
ATOM      3  C   UNL     1       9.281  10.568  19.995  0.00  0.00    +0.000 A 
ATOM      4  C   UNL     1       8.934  10.123  18.736  0.00  0.00    +0.000 A 
ATOM      5  N   UNL     1       8.559   8.896  18.623  0.00  0.00    +0.000 NA
ATOM      6  N   UNL     1       9.006  10.989  17.681  0.00  0.00    +0.000 N 
ATOM      7  N   UNL     1       9.433  12.243  17.852  0.00  0.00    +0.000 NA
ATOM      8  C   UNL     1       9.838  12.733  19.063  0.00  0.00    +0.000 A 
ATOM      9  H   UNL     1       8.735  10.701  16.715  0.00  0.00    +0.000 HD
ENDROOT
BRANCH   8  10
ATOM     10  C   UNL     1      10.289  14.162  19.132  0.00  0.00    +0.000 A 
ATOM     11  C   UNL     1       9.349  15.174  19.420  0.00  0.00    +0.000 A 
ATOM     12  C   UNL     1       9.750  16.510  19.534  0.00  0.00    +0.000 A 
ATOM     13  C   UNL     1      11.087  16.863  19.340  0.00  0.00    +0.000 A 
ATOM     14  C   UNL     1      12.019  15.884  19.016  0.00  0.00    +0.000 A 
ATOM     15  C   UNL     1      11.626  14.551  18.908  0.00  0.00    +0.000 A 
ENDBRANCH   8  10
BRANCH   5  16
ATOM     16  C   UNL     1       8.147   8.220  17.422  0.00  0.00    +0.000 C 
BRANCH  16  17
ATOM     17  C   UNL     1       6.920   7.351  17.704  0.00  0.00    +0.000 C 
BRANCH  17  18
ATOM     18  C   UNL     1       7.310   5.946  18.233  0.00  0.00    +0.000 C 
ATOM     19  C   UNL     1       7.399   4.916  17.093  0.00  0.00    +0.000 C 
ATOM     20  C   UNL     1       6.007   4.613  16.503  0.00  0.00    +0.000 C 
ATOM     21  N   UNL     1       5.062   4.149  17.550  0.00  0.00    +0.000 NA
ATOM     22  C   UNL     1       4.966   5.113  18.672  0.00  0.00    +0.000 C 
ATOM     23  C   UNL     1       6.342   5.378  19.288  0.00  0.00    +0.000 C 
BRANCH  21  24
ATOM     24  C   UNL     1       3.707   3.953  16.988  0.00  0.00    +0.000 C 
BRANCH  24  25
ATOM     25  C   UNL     1       2.685   3.625  18.047  0.00  0.00    +0.000 A 
ATOM     26  C   UNL     1       2.272   4.606  18.963  0.00  0.00    +0.000 A 
ATOM     27  C   UNL     1       1.307   4.304  19.929  0.00  0.00    +0.000 A 
ATOM     28  C   UNL     1       0.750   3.023  19.988  0.00  0.00    +0.000 A 
ATOM     29  C   UNL     1       1.158   2.041  19.082  0.00  0.00    +0.000 A 
ATOM     30  C   UNL     1       2.122   2.338  18.114  0.00  0.00    +0.000 A 
ENDBRANCH  24  25
ENDBRANCH  21  24
ENDBRANCH  17  18
ENDBRANCH  16  17
ENDBRANCH   5  16
TORSDOF 6
ENDMDL
MODEL 8
REMARK VINA RESULT:      -8.0      5.398      7.625
REMARK  Name = 
REMARK  7 active torsions:
REMARK  status: ('A' for Active; 'I' for Inactive)
REMARK    1  A    between atoms: C_1  and  C_2
REMARK    2  A    between atoms: N_5  and  C_6
REMARK    3  A    between atoms: C_6  and  C_7
REMARK    4  A    between atoms: C_7  and  C_8
REMARK    5  A    between atoms: N_11  and  C_12
REMARK    6  A    between atoms: C_12  and  C_13
REMARK    7  A    between atoms: C_23  and  C_24
REMARK                            x       y       z     vdW  Elec       q    Type
REMARK                         _______ _______ _______ _____ _____    ______ ____
ROOT
ATOM      1  C   UNL     1       1.989   9.984  17.774  0.00  0.00    +0.000 C 
ATOM      2  C   UNL     1       1.647   9.127  18.965  0.00  0.00    +0.000 A 
ATOM      3  C   UNL     1       2.170   7.837  18.969  0.00  0.00    +0.000 A 
ATOM      4  C   UNL     1       1.962   6.996  20.043  0.00  0.00    +0.000 A 
ATOM      5  N   UNL     1       2.438   5.802  19.963  0.00  0.00    +0.000 NA
ATOM      6  N   UNL     1       1.266   7.458  21.125  0.00  0.00    +0.000 N 
ATOM      7  N   UNL     1       0.767   8.698  21.139  0.00  0.00    +0.000 NA
ATOM      8  C   UNL     1       0.895   9.565  20.089  0.00  0.00    +0.000 A 
ATOM      9  H   UNL     1       1.101   6.864  21.967  0.00  0.00    +0.000 HD
ENDROOT
BRANCH   8  10
ATOM     10  C   UNL     1       0.298  10.934  20.227  0.00  0.00    +0.000 A 
ATOM     11  C   UNL     1      -0.983  11.190  19.692  0.00  0.00    +0.000 A 
ATOM     12  C   UNL     1      -1.583  12.445  19.844  0.00  0.00    +0.000 A 
ATOM     13  C   UNL     1      -0.909  13.471  20.510  0.00  0.00    +0.000 A 
ATOM     14  C   UNL     1       0.371  13.248  21.008  0.00  0.00    +0.000 A 
ATOM     15  C   UNL     1       0.969  11.998  20.864  0.00  0.00    +0.000 A 
ENDBRANCH   8  10
BRANCH   5  16
ATOM     16  C   UNL     1       2.352   4.764  20.955  0.00  0.00    +0.000 C 
BRANCH  16  17
ATOM     17  C   UNL     1       1.448   3.635  20.454  0.00  0.00    +0.000 C 
BRANCH  17  18
ATOM     18  C   UNL     1       2.250   2.349  20.123  0.00  0.00    +0.000 C 
ATOM     19  C   UNL     1       3.768   2.599  20.177  0.00  0.00    +0.000 C 
ATOM     20  C   UNL     1       4.225   3.515  19.025  0.00  0.00    +0.000 C 
ATOM     21  N   UNL     1       3.836   2.961  17.702  0.00  0.00    +0.000 NA
ATOM     22  C   UNL     1       2.379   2.695  17.624  0.00  0.00    +0.000 C 
ATOM     23  C   UNL     1       1.934   1.747  18.741  0.00  0.00    +0.000 C 
BRANCH  21  24
ATOM     24  C   UNL     1       4.197   3.895  16.613  0.00  0.00    +0.000 C 
BRANCH  24  25
ATOM     25  C   UNL     1       5.305   4.839  17.005  0.00  0.00    +0.000 A 
ATOM     26  C   UNL     1       5.082   6.226  17.030  0.00  0.00    +0.000 A 
ATOM     27  C   UNL     1       6.106   7.096  17.416  0.00  0.00    +0.000 A 
ATOM     28  C   UNL     1       7.358   6.589  17.779  0.00  0.00    +0.000 A 
ATOM     29  C   UNL     1       7.588   5.212  17.754  0.00  0.00    +0.000 A 
ATOM     30  C   UNL     1       6.567   4.338  17.368  0.00  0.00    +0.000 A 
ENDBRANCH  24  25
ENDBRANCH  21  24
ENDBRANCH  17  18
ENDBRANCH  16  17
ENDBRANCH   5  16
TORSDOF 6
ENDMDL
MODEL 9
REMARK VINA RESULT:      -8.0      1.262      2.108
REMARK  Name = 
REMARK  7 active torsions:
REMARK  status: ('A' for Active; 'I' for Inactive)
REMARK    1  A    between atoms: C_1  and  C_2
REMARK    2  A    between atoms: N_5  and  C_6
REMARK    3  A    between atoms: C_6  and  C_7
REMARK    4  A    between atoms: C_7  and  C_8
REMARK    5  A    between atoms: N_11  and  C_12
REMARK    6  A    between atoms: C_12  and  C_13
REMARK    7  A    between atoms: C_23  and  C_24
REMARK                            x       y       z     vdW  Elec       q    Type
REMARK                         _______ _______ _______ _____ _____    ______ ____
ROOT
ATOM      1  C   UNL     1      10.938  12.112  20.676  0.00  0.00    +0.000 C 
ATOM      2  C   UNL     1      10.038  11.799  19.510  0.00  0.00    +0.000 A 
ATOM      3  C   UNL     1       9.647  10.470  19.371  0.00  0.00    +0.000 A 
ATOM      4  C   UNL     1       8.775  10.094  18.369  0.00  0.00    +0.000 A 
ATOM      5  N   UNL     1       8.487   8.842  18.271  0.00  0.00    +0.000 NA
ATOM      6  N   UNL     1       8.267  11.051  17.535  0.00  0.00    +0.000 N 
ATOM      7  N   UNL     1       8.626  12.332  17.663  0.00  0.00    +0.000 NA
ATOM      8  C   UNL     1       9.522  12.764  18.602  0.00  0.00    +0.000 A 
ATOM      9  H   UNL     1       7.591  10.815  16.776  0.00  0.00    +0.000 HD
ENDROOT
BRANCH   8  10
ATOM     10  C   UNL     1       9.839  14.229  18.654  0.00  0.00    +0.000 A 
ATOM     11  C   UNL     1       8.899  15.124  19.207  0.00  0.00    +0.000 A 
ATOM     12  C   UNL     1       9.187  16.490  19.309  0.00  0.00    +0.000 A 
ATOM     13  C   UNL     1      10.404  16.989  18.841  0.00  0.00    +0.000 A 
ATOM     14  C   UNL     1      11.325  16.127  18.256  0.00  0.00    +0.000 A 
ATOM     15  C   UNL     1      11.046  14.765  18.159  0.00  0.00    +0.000 A 
ENDBRANCH   8  10
BRANCH   5  16
ATOM     16  C   UNL     1       7.604   8.225  17.318  0.00  0.00    +0.000 C 
BRANCH  16  17
ATOM     17  C   UNL     1       6.893   7.032  17.958  0.00  0.00    +0.000 C 
BRANCH  17  18
ATOM     18  C   UNL     1       7.322   5.686  17.318  0.00  0.00    +0.000 C 
ATOM     19  C   UNL     1       6.676   5.484  15.936  0.00  0.00    +0.000 C 
ATOM     20  C   UNL     1       5.155   5.261  16.056  0.00  0.00    +0.000 C 
ATOM     21  N   UNL     1       4.842   4.115  16.949  0.00  0.00    +0.000 NA
ATOM     22  C   UNL     1       5.465   4.272  18.285  0.00  0.00    +0.000 C 
ATOM     23  C   UNL     1       6.981   4.447  18.168  0.00  0.00    +0.000 C 
BRANCH  21  24
ATOM     24  C   UNL     1       3.381   3.973  17.130  0.00  0.00    +0.000 C 
BRANCH  24  25
ATOM     25  C   UNL     1       2.864   4.769  18.301  0.00  0.00    +0.000 A 
ATOM     26  C   UNL     1       2.935   6.172  18.293  0.00  0.00    +0.000 A 
ATOM     27  C   UNL     1       2.435   6.908  19.371  0.00  0.00    +0.000 A 
ATOM     28  C   UNL     1       1.862   6.251  20.464  0.00  0.00    +0.000 A 
ATOM     29  C   UNL     1       1.791   4.856  20.482  0.00  0.00    +0.000 A 
ATOM     30  C   UNL     1       2.290   4.115  19.406  0.00  0.00    +0.000 A 
ENDBRANCH  24  25
ENDBRANCH  21  24
ENDBRANCH  17  18
ENDBRANCH  16  17
ENDBRANCH   5  16
TORSDOF 6
ENDMDL
