MODEL 1
REMARK VINA RESULT:      -8.6      0.000      0.000
REMARK  Name = 
REMARK  9 active torsions:
REMARK  status: ('A' for Active; 'I' for Inactive)
REMARK    1  A    between atoms: C_1  and  C_2
REMARK    2  A    between atoms: N_7  and  C_8
REMARK    3  A    between atoms: C_11  and  O_12
REMARK    4  A    between atoms: O_12  and  C_13
REMARK    5  A    between atoms: C_13  and  C_14
REMARK    6  A    between atoms: C_24  and  C_25
REMARK    7  A    between atoms: C_26  and  C_27
REMARK    8  A    between atoms: C_27  and  C_28
REMARK    9  A    between atoms: C_28  and  N_29
REMARK                            x       y       z     vdW  Elec       q    Type
REMARK                         _______ _______ _______ _____ _____    ______ ____
ROOT
ATOM      1  C   UNL     1       4.407   2.089  20.375  0.00  0.00    +0.000 C 
ATOM      2  C   UNL     1       3.343   3.134  20.203  0.00  0.00    +0.000 A 
ATOM      3  N   UNL     1       2.093   2.760  20.557  0.00  0.00    +0.000 NA
ATOM      4  C   UNL     1       1.138   3.681  20.409  0.00  0.00    +0.000 A 
ATOM      5  N   UNL     1       1.313   4.920  19.941  0.00  0.00    +0.000 NA
ATOM      6  C   UNL     1       2.564   5.295  19.603  0.00  0.00    +0.000 A 
ATOM      7  N   UNL     1       2.798   6.638  19.203  0.00  0.00    +0.000 N 
ATOM      8  C   UNL     1       3.637   4.407  19.722  0.00  0.00    +0.000 A 
ATOM      9  H   UNL     1       3.379   6.691  18.375  0.00  0.00    +0.000 HD
ENDROOT
BRANCH   7  10
ATOM     10  C   UNL     1       2.059   7.800  19.498  0.00  0.00    +0.000 A 
ATOM     11  C   UNL     1       1.787   8.781  18.537  0.00  0.00    +0.000 A 
ATOM     12  C   UNL     1       0.904   9.831  18.786  0.00  0.00    +0.000 A 
ATOM     13  C   UNL     1       0.198   9.894  19.985  0.00  0.00    +0.000 A 
ATOM     14  C   UNL     1       0.499   8.960  20.982  0.00  0.00    +0.000 A 
ATOM     15 CL   UNL     1      -0.286   9.012  22.523  0.00  0.00    +0.000 Cl
ATOM     16  C   UNL     1       1.419   7.924  20.742  0.00  0.00    +0.000 A 
BRANCH  13  17
ATOM     17  O   UNL     1      -0.799  10.816  20.209  0.00  0.00    +0.000 OA
BRANCH  17  18
ATOM     18  C   UNL     1      -0.878  11.846  19.215  0.00  0.00    +0.000 C 
BRANCH  18  19
ATOM     19  C   UNL     1      -2.076  11.712  18.305  0.00  0.00    +0.000 A 
ATOM     20  C   UNL     1      -3.386  11.921  18.764  0.00  0.00    +0.000 A 
ATOM     21  C   UNL     1      -4.479  11.616  17.950  0.00  0.00    +0.000 A 
ATOM     22  C   UNL     1      -4.277  11.091  16.674  0.00  0.00    +0.000 A 
ATOM     23  C   UNL     1      -2.981  10.903  16.210  0.00  0.00    +0.000 A 
ATOM     24  F   UNL     1      -2.784  10.386  14.990  0.00  0.00    +0.000 F 
ATOM     25  C   UNL     1      -1.885  11.210  17.008  0.00  0.00    +0.000 A 
ENDBRANCH  18  19
ENDBRANCH  17  18
ENDBRANCH  13  17
ENDBRANCH   7  10
BRANCH   8  26
ATOM     26  C   UNL     1       4.981   4.786  19.392  0.00  0.00    +0.000 C 
ATOM     27  C   UNL     1       6.197   5.103  19.042  0.00  0.00    +0.000 C 
BRANCH  27  28
ATOM     28  C   UNL     1       7.614   5.471  18.634  0.00  0.00    +0.000 C 
BRANCH  28  29
ATOM     29  C   UNL     1       7.514   6.603  17.571  0.00  0.00    +0.000 C 
BRANCH  29  30
ATOM     30  N   UNL     1       7.283   6.229  16.176  0.00  0.00    +0.000 NA
ATOM     31  C   UNL     1       6.000   6.748  15.650  0.00  0.00    +0.000 C 
ATOM     32  C   UNL     1       4.818   5.762  15.670  0.00  0.00    +0.000 C 
ATOM     33  O   UNL     1       5.172   4.519  15.059  0.00  0.00    +0.000 OA
ATOM     34  C   UNL     1       6.254   3.923  15.779  0.00  0.00    +0.000 C 
ATOM     35  C   UNL     1       7.496   4.829  15.790  0.00  0.00    +0.000 C 
ENDBRANCH  29  30
ENDBRANCH  28  29
ENDBRANCH  27  28
ENDBRANCH   8  26
TORSDOF 8
ENDMDL
MODEL 2
REMARK VINA RESULT:      -8.1      2.930      3.594
REMARK  Name = 
REMARK  9 active torsions:
REMARK  status: ('A' for Active; 'I' for Inactive)
REMARK    1  A    between atoms: C_1  and  C_2
REMARK    2  A    between atoms: N_7  and  C_8
REMARK    3  A    between atoms: C_11  and  O_12
REMARK    4  A    between atoms: O_12  and  C_13
REMARK    5  A    between atoms: C_13  and  C_14
REMARK    6  A    between atoms: C_24  and  C_25
REMARK    7  A    between atoms: C_26  and  C_27
REMARK    8  A    between atoms: C_27  and  C_28
REMARK    9  A    between atoms: C_28  and  N_29
REMARK                            x       y       z     vdW  Elec       q    Type
REMARK                         _______ _______ _______ _____ _____    ______ ____
ROOT
ATOM      1  C   UNL     1       4.477   2.057  20.249  0.00  0.00    +0.000 C 
ATOM      2  C   UNL     1       3.337   3.034  20.258  0.00  0.00    +0.000 A 
ATOM      3  N   UNL     1       2.153   2.545  20.690  0.00  0.00    +0.000 NA
ATOM      4  C   UNL     1       1.131   3.405  20.703  0.00  0.00    +0.000 A 
ATOM      5  N   UNL     1       1.181   4.685  20.324  0.00  0.00    +0.000 NA
ATOM      6  C   UNL     1       2.368   5.172  19.908  0.00  0.00    +0.000 A 
ATOM      7  N   UNL     1       2.477   6.555  19.601  0.00  0.00    +0.000 N 
ATOM      8  C   UNL     1       3.502   4.357  19.859  0.00  0.00    +0.000 A 
ATOM      9  H   UNL     1       2.973   6.713  18.732  0.00  0.00    +0.000 HD
ENDROOT
BRANCH   7  10
ATOM     10  C   UNL     1       1.696   7.636  20.054  0.00  0.00    +0.000 A 
ATOM     11  C   UNL     1       1.197   7.708  21.360  0.00  0.00    +0.000 A 
ATOM     12  C   UNL     1       0.586   8.859  21.854  0.00  0.00    +0.000 A 
ATOM     13  C   UNL     1       0.522  10.015  21.078  0.00  0.00    +0.000 A 
ATOM     14  C   UNL     1       0.958   9.949  19.751  0.00  0.00    +0.000 A 
ATOM     15 CL   UNL     1       0.850  11.322  18.704  0.00  0.00    +0.000 Cl
ATOM     16  C   UNL     1       1.539   8.773  19.243  0.00  0.00    +0.000 A 
BRANCH  13  17
ATOM     17  O   UNL     1       0.077  11.217  21.578  0.00  0.00    +0.000 OA
BRANCH  17  18
ATOM     18  C   UNL     1      -0.774  11.095  22.726  0.00  0.00    +0.000 C 
BRANCH  18  19
ATOM     19  C   UNL     1      -1.580  12.341  23.011  0.00  0.00    +0.000 A 
ATOM     20  C   UNL     1      -1.006  13.621  22.979  0.00  0.00    +0.000 A 
ATOM     21  C   UNL     1      -1.729  14.732  23.420  0.00  0.00    +0.000 A 
ATOM     22  C   UNL     1      -3.027  14.575  23.905  0.00  0.00    +0.000 A 
ATOM     23  C   UNL     1      -3.603  13.312  23.919  0.00  0.00    +0.000 A 
ATOM     24  F   UNL     1      -4.845  13.156  24.397  0.00  0.00    +0.000 F 
ATOM     25  C   UNL     1      -2.897  12.200  23.474  0.00  0.00    +0.000 A 
ENDBRANCH  18  19
ENDBRANCH  17  18
ENDBRANCH  13  17
ENDBRANCH   7  10
BRANCH   8  26
ATOM     26  C   UNL     1       4.783   4.856  19.443  0.00  0.00    +0.000 C 
ATOM     27  C   UNL     1       5.970   5.280  19.111  0.00  0.00    +0.000 C 
BRANCH  27  28
ATOM     28  C   UNL     1       7.354   5.776  18.725  0.00  0.00    +0.000 C 
BRANCH  28  29
ATOM     29  C   UNL     1       7.169   6.879  17.642  0.00  0.00    +0.000 C 
BRANCH  29  30
ATOM     30  N   UNL     1       6.895   6.463  16.266  0.00  0.00    +0.000 NA
ATOM     31  C   UNL     1       5.465   6.593  15.904  0.00  0.00    +0.000 C 
ATOM     32  C   UNL     1       4.625   5.308  16.013  0.00  0.00    +0.000 C 
ATOM     33  O   UNL     1       5.247   4.224  15.318  0.00  0.00    +0.000 OA
ATOM     34  C   UNL     1       6.529   3.961  15.893  0.00  0.00    +0.000 C 
ATOM     35  C   UNL     1       7.453   5.186  15.805  0.00  0.00    +0.000 C 
ENDBRANCH  29  30
ENDBRANCH  28  29
ENDBRANCH  27  28
ENDBRANCH   8  26
TORSDOF 8
ENDMDL
MODEL 3
REMARK VINA RESULT:      -8.0      3.637      9.994
REMARK  Name = 
REMARK  9 active torsions:
REMARK  status: ('A' for Active; 'I' for Inactive)
REMARK    1  A    between atoms: C_1  and  C_2
REMARK    2  A    between atoms: N_7  and  C_8
REMARK    3  A    between atoms: C_11  and  O_12
REMARK    4  A    between atoms: O_12  and  C_13
REMARK    5  A    between atoms: C_13  and  C_14
REMARK    6  A    between atoms: C_24  and  C_25
REMARK    7  A    between atoms: C_26  and  C_27
REMARK    8  A    between atoms: C_27  and  C_28
REMARK    9  A    between atoms: C_28  and  N_29
REMARK                            x       y       z     vdW  Elec       q    Type
REMARK                         _______ _______ _______ _____ _____    ______ ____
ROOT
ATOM      1  C   UNL     1      -1.621  11.487  22.850  0.00  0.00    +0.000 C 
ATOM      2  C   UNL     1      -0.480  10.566  22.526  0.00  0.00    +0.000 A 
ATOM      3  N   UNL     1       0.163  10.036  23.590  0.00  0.00    +0.000 NA
ATOM      4  C   UNL     1       1.179   9.215  23.315  0.00  0.00    +0.000 A 
ATOM      5  N   UNL     1       1.610   8.885  22.094  0.00  0.00    +0.000 NA
ATOM      6  C   UNL     1       0.956   9.404  21.035  0.00  0.00    +0.000 A 
ATOM      7  N   UNL     1       1.322   8.989  19.726  0.00  0.00    +0.000 N 
ATOM      8  C   UNL     1      -0.125  10.273  21.212  0.00  0.00    +0.000 A 
ATOM      9  H   UNL     1       1.405   9.772  19.089  0.00  0.00    +0.000 HD
ENDROOT
BRANCH   7  10
ATOM     10  C   UNL     1       1.956   7.802  19.309  0.00  0.00    +0.000 A 
ATOM     11  C   UNL     1       2.777   7.746  18.178  0.00  0.00    +0.000 A 
ATOM     12  C   UNL     1       3.544   6.621  17.878  0.00  0.00    +0.000 A 
ATOM     13  C   UNL     1       3.576   5.534  18.749  0.00  0.00    +0.000 A 
ATOM     14  C   UNL     1       2.717   5.542  19.853  0.00  0.00    +0.000 A 
ATOM     15 CL   UNL     1       2.649   4.201  20.944  0.00  0.00    +0.000 Cl
ATOM     16  C   UNL     1       1.916   6.663  20.132  0.00  0.00    +0.000 A 
BRANCH  13  17
ATOM     17  O   UNL     1       4.438   4.475  18.578  0.00  0.00    +0.000 OA
BRANCH  17  18
ATOM     18  C   UNL     1       4.261   3.769  17.343  0.00  0.00    +0.000 C 
BRANCH  18  19
ATOM     19  C   UNL     1       5.350   4.044  16.333  0.00  0.00    +0.000 A 
ATOM     20  C   UNL     1       6.484   4.807  16.650  0.00  0.00    +0.000 A 
ATOM     21  C   UNL     1       7.380   5.194  15.651  0.00  0.00    +0.000 A 
ATOM     22  C   UNL     1       7.149   4.831  14.325  0.00  0.00    +0.000 A 
ATOM     23  C   UNL     1       6.038   4.058  14.012  0.00  0.00    +0.000 A 
ATOM     24  F   UNL     1       5.806   3.720  12.736  0.00  0.00    +0.000 F 
ATOM     25  C   UNL     1       5.143   3.661  14.998  0.00  0.00    +0.000 A 
ENDBRANCH  18  19
ENDBRANCH  17  18
ENDBRANCH  13  17
ENDBRANCH   7  10
BRANCH   8  26
ATOM     26  C   UNL     1      -0.853  10.821  20.104  0.00  0.00    +0.000 C 
ATOM     27  C   UNL     1      -1.565  11.299  19.121  0.00  0.00    +0.000 C 
BRANCH  27  28
ATOM     28  C   UNL     1      -2.395  11.855  17.975  0.00  0.00    +0.000 C 
BRANCH  28  29
ATOM     29  C   UNL     1      -3.809  11.212  18.069  0.00  0.00    +0.000 C 
BRANCH  29  30
ATOM     30  N   UNL     1      -4.965  12.096  18.218  0.00  0.00    +0.000 NA
ATOM     31  C   UNL     1      -5.086  12.653  19.585  0.00  0.00    +0.000 C 
ATOM     32  C   UNL     1      -6.058  11.918  20.526  0.00  0.00    +0.000 C 
ATOM     33  O   UNL     1      -7.338  11.745  19.914  0.00  0.00    +0.000 OA
ATOM     34  C   UNL     1      -7.199  10.960  18.727  0.00  0.00    +0.000 C 
ATOM     35  C   UNL     1      -6.262  11.632  17.709  0.00  0.00    +0.000 C 
ENDBRANCH  29  30
ENDBRANCH  28  29
ENDBRANCH  27  28
ENDBRANCH   8  26
TORSDOF 8
ENDMDL
MODEL 4
REMARK VINA RESULT:      -8.0      1.547      2.245
REMARK  Name = 
REMARK  9 active torsions:
REMARK  status: ('A' for Active; 'I' for Inactive)
REMARK    1  A    between atoms: C_1  and  C_2
REMARK    2  A    between atoms: N_7  and  C_8
REMARK    3  A    between atoms: C_11  and  O_12
REMARK    4  A    between atoms: O_12  and  C_13
REMARK    5  A    between atoms: C_13  and  C_14
REMARK    6  A    between atoms: C_24  and  C_25
REMARK    7  A    between atoms: C_26  and  C_27
REMARK    8  A    between atoms: C_27  and  C_28
REMARK    9  A    between atoms: C_28  and  N_29
REMARK                            x       y       z     vdW  Elec       q    Type
REMARK                         _______ _______ _______ _____ _____    ______ ____
ROOT
ATOM      1  C   UNL     1       4.281   1.826  19.747  0.00  0.00    +0.000 C 
ATOM      2  C   UNL     1       3.412   3.018  20.027  0.00  0.00    +0.000 A 
ATOM      3  N   UNL     1       2.789   3.017  21.227  0.00  0.00    +0.000 NA
ATOM      4  C   UNL     1       2.013   4.072  21.488  0.00  0.00    +0.000 A 
ATOM      5  N   UNL     1       1.800   5.108  20.672  0.00  0.00    +0.000 NA
ATOM      6  C   UNL     1       2.436   5.112  19.482  0.00  0.00    +0.000 A 
ATOM      7  N   UNL     1       2.314   6.248  18.638  0.00  0.00    +0.000 N 
ATOM      8  C   UNL     1       3.274   4.056  19.111  0.00  0.00    +0.000 A 
ATOM      9  H   UNL     1       2.131   5.989  17.677  0.00  0.00    +0.000 HD
ENDROOT
BRANCH   7  10
ATOM     10  C   UNL     1       2.005   7.582  18.973  0.00  0.00    +0.000 A 
ATOM     11  C   UNL     1       1.988   8.610  18.024  0.00  0.00    +0.000 A 
ATOM     12  C   UNL     1       1.504   9.882  18.324  0.00  0.00    +0.000 A 
ATOM     13  C   UNL     1       0.945  10.151  19.572  0.00  0.00    +0.000 A 
ATOM     14  C   UNL     1       1.007   9.158  20.555  0.00  0.00    +0.000 A 
ATOM     15 CL   UNL     1       0.395   9.437  22.149  0.00  0.00    +0.000 Cl
ATOM     16  C   UNL     1       1.531   7.887  20.260  0.00  0.00    +0.000 A 
BRANCH  13  17
ATOM     17  O   UNL     1       0.311  11.338  19.857  0.00  0.00    +0.000 OA
BRANCH  17  18
ATOM     18  C   UNL     1      -0.298  11.965  18.721  0.00  0.00    +0.000 C 
BRANCH  18  19
ATOM     19  C   UNL     1      -1.714  11.503  18.467  0.00  0.00    +0.000 A 
ATOM     20  C   UNL     1      -2.033  10.621  17.423  0.00  0.00    +0.000 A 
ATOM     21  C   UNL     1      -3.366  10.354  17.103  0.00  0.00    +0.000 A 
ATOM     22  C   UNL     1      -4.393  10.971  17.815  0.00  0.00    +0.000 A 
ATOM     23  C   UNL     1      -4.080  11.829  18.862  0.00  0.00    +0.000 A 
ATOM     24  F   UNL     1      -5.066  12.435  19.539  0.00  0.00    +0.000 F 
ATOM     25  C   UNL     1      -2.757  12.096  19.195  0.00  0.00    +0.000 A 
ENDBRANCH  18  19
ENDBRANCH  17  18
ENDBRANCH  13  17
ENDBRANCH   7  10
BRANCH   8  26
ATOM     26  C   UNL     1       3.981   4.047  17.862  0.00  0.00    +0.000 C 
ATOM     27  C   UNL     1       4.579   4.069  16.704  0.00  0.00    +0.000 C 
BRANCH  27  28
ATOM     28  C   UNL     1       5.276   4.093  15.353  0.00  0.00    +0.000 C 
BRANCH  28  29
ATOM     29  C   UNL     1       5.814   5.537  15.132  0.00  0.00    +0.000 C 
BRANCH  29  30
ATOM     30  N   UNL     1       7.071   5.917  15.776  0.00  0.00    +0.000 NA
ATOM     31  C   UNL     1       7.818   4.751  16.303  0.00  0.00    +0.000 C 
ATOM     32  C   UNL     1       7.628   4.454  17.802  0.00  0.00    +0.000 C 
ATOM     33  O   UNL     1       7.854   5.624  18.592  0.00  0.00    +0.000 OA
ATOM     34  C   UNL     1       6.916   6.639  18.223  0.00  0.00    +0.000 C 
ATOM     35  C   UNL     1       7.050   7.023  16.741  0.00  0.00    +0.000 C 
ENDBRANCH  29  30
ENDBRANCH  28  29
ENDBRANCH  27  28
ENDBRANCH   8  26
TORSDOF 8
ENDMDL
MODEL 5
REMARK VINA RESULT:      -7.9      1.980      2.637
REMARK  Name = 
REMARK  9 active torsions:
REMARK  status: ('A' for Active; 'I' for Inactive)
REMARK    1  A    between atoms: C_1  and  C_2
REMARK    2  A    between atoms: N_7  and  C_8
REMARK    3  A    between atoms: C_11  and  O_12
REMARK    4  A    between atoms: O_12  and  C_13
REMARK    5  A    between atoms: C_13  and  C_14
REMARK    6  A    between atoms: C_24  and  C_25
REMARK    7  A    between atoms: C_26  and  C_27
REMARK    8  A    between atoms: C_27  and  C_28
REMARK    9  A    between atoms: C_28  and  N_29
REMARK                            x       y       z     vdW  Elec       q    Type
REMARK                         _______ _______ _______ _____ _____    ______ ____
ROOT
ATOM      1  C   UNL     1       3.399   1.214  18.729  0.00  0.00    +0.000 C 
ATOM      2  C   UNL     1       2.617   2.463  19.016  0.00  0.00    +0.000 A 
ATOM      3  N   UNL     1       1.672   2.353  19.976  0.00  0.00    +0.000 NA
ATOM      4  C   UNL     1       0.970   3.457  20.241  0.00  0.00    +0.000 A 
ATOM      5  N   UNL     1       1.117   4.641  19.639  0.00  0.00    +0.000 NA
ATOM      6  C   UNL     1       2.071   4.750  18.692  0.00  0.00    +0.000 A 
ATOM      7  N   UNL     1       2.323   6.022  18.110  0.00  0.00    +0.000 N 
ATOM      8  C   UNL     1       2.865   3.655  18.340  0.00  0.00    +0.000 A 
ATOM      9  H   UNL     1       2.405   5.968  17.102  0.00  0.00    +0.000 HD
ENDROOT
BRANCH   7  10
ATOM     10  C   UNL     1       2.073   7.308  18.628  0.00  0.00    +0.000 A 
ATOM     11  C   UNL     1       1.880   8.424  17.806  0.00  0.00    +0.000 A 
ATOM     12  C   UNL     1       1.451   9.649  18.316  0.00  0.00    +0.000 A 
ATOM     13  C   UNL     1       1.123   9.779  19.663  0.00  0.00    +0.000 A 
ATOM     14  C   UNL     1       1.365   8.695  20.514  0.00  0.00    +0.000 A 
ATOM     15 CL   UNL     1       1.047   8.801  22.211  0.00  0.00    +0.000 Cl
ATOM     16  C   UNL     1       1.835   7.472  20.003  0.00  0.00    +0.000 A 
BRANCH  13  17
ATOM     17  O   UNL     1       0.544  10.917  20.176  0.00  0.00    +0.000 OA
BRANCH  17  18
ATOM     18  C   UNL     1      -0.040  11.775  19.187  0.00  0.00    +0.000 C 
BRANCH  18  19
ATOM     19  C   UNL     1      -1.550  11.786  19.217  0.00  0.00    +0.000 A 
ATOM     20  C   UNL     1      -2.320  11.319  18.140  0.00  0.00    +0.000 A 
ATOM     21  C   UNL     1      -3.704  11.508  18.124  0.00  0.00    +0.000 A 
ATOM     22  C   UNL     1      -4.332  12.171  19.178  0.00  0.00    +0.000 A 
ATOM     23  C   UNL     1      -3.575  12.615  20.254  0.00  0.00    +0.000 A 
ATOM     24  F   UNL     1      -4.174  13.264  21.261  0.00  0.00    +0.000 F 
ATOM     25  C   UNL     1      -2.198  12.426  20.285  0.00  0.00    +0.000 A 
ENDBRANCH  18  19
ENDBRANCH  17  18
ENDBRANCH  13  17
ENDBRANCH   7  10
BRANCH   8  26
ATOM     26  C   UNL     1       3.903   3.750  17.353  0.00  0.00    +0.000 C 
ATOM     27  C   UNL     1       4.883   3.851  16.499  0.00  0.00    +0.000 C 
BRANCH  27  28
ATOM     28  C   UNL     1       6.025   3.972  15.504  0.00  0.00    +0.000 C 
BRANCH  28  29
ATOM     29  C   UNL     1       7.022   5.029  16.063  0.00  0.00    +0.000 C 
BRANCH  29  30
ATOM     30  N   UNL     1       6.598   5.853  17.195  0.00  0.00    +0.000 NA
ATOM     31  C   UNL     1       6.743   7.303  16.931  0.00  0.00    +0.000 C 
ATOM     32  C   UNL     1       8.024   7.960  17.474  0.00  0.00    +0.000 C 
ATOM     33  O   UNL     1       8.213   7.656  18.859  0.00  0.00    +0.000 OA
ATOM     34  C   UNL     1       8.340   6.242  19.025  0.00  0.00    +0.000 C 
ATOM     35  C   UNL     1       7.088   5.498  18.532  0.00  0.00    +0.000 C 
ENDBRANCH  29  30
ENDBRANCH  28  29
ENDBRANCH  27  28
ENDBRANCH   8  26
TORSDOF 8
ENDMDL
MODEL 6
REMARK VINA RESULT:      -7.9      1.235      1.782
REMARK  Name = 
REMARK  9 active torsions:
REMARK  status: ('A' for Active; 'I' for Inactive)
REMARK    1  A    between atoms: C_1  and  C_2
REMARK    2  A    between atoms: N_7  and  C_8
REMARK    3  A    between atoms: C_11  and  O_12
REMARK    4  A    between atoms: O_12  and  C_13
REMARK    5  A    between atoms: C_13  and  C_14
REMARK    6  A    between atoms: C_24  and  C_25
REMARK    7  A    between atoms: C_26  and  C_27
REMARK    8  A    between atoms: C_27  and  C_28
REMARK    9  A    between atoms: C_28  and  N_29
REMARK                            x       y       z     vdW  Elec       q    Type
REMARK                         _______ _______ _______ _____ _____    ______ ____
ROOT
ATOM      1  C   UNL     1       4.530   1.403  19.949  0.00  0.00    +0.000 C 
ATOM      2  C   UNL     1       3.629   2.581  20.184  0.00  0.00    +0.000 A 
ATOM      3  N   UNL     1       2.963   2.582  21.360  0.00  0.00    +0.000 NA
ATOM      4  C   UNL     1       2.159   3.625  21.580  0.00  0.00    +0.000 A 
ATOM      5  N   UNL     1       1.956   4.647  20.744  0.00  0.00    +0.000 NA
ATOM      6  C   UNL     1       2.634   4.649  19.578  0.00  0.00    +0.000 A 
ATOM      7  N   UNL     1       2.521   5.773  18.716  0.00  0.00    +0.000 N 
ATOM      8  C   UNL     1       3.504   3.606  19.250  0.00  0.00    +0.000 A 
ATOM      9  H   UNL     1       2.378   5.499  17.751  0.00  0.00    +0.000 HD
ENDROOT
BRANCH   7  10
ATOM     10  C   UNL     1       2.176   7.104  19.022  0.00  0.00    +0.000 A 
ATOM     11  C   UNL     1       2.018   8.085  18.037  0.00  0.00    +0.000 A 
ATOM     12  C   UNL     1       1.499   9.346  18.329  0.00  0.00    +0.000 A 
ATOM     13  C   UNL     1       1.043   9.644  19.611  0.00  0.00    +0.000 A 
ATOM     14  C   UNL     1       1.246   8.702  20.624  0.00  0.00    +0.000 A 
ATOM     15 CL   UNL     1       0.769   9.024  22.256  0.00  0.00    +0.000 Cl
ATOM     16  C   UNL     1       1.806   7.445  20.335  0.00  0.00    +0.000 A 
BRANCH  13  17
ATOM     17  O   UNL     1       0.377  10.812  19.905  0.00  0.00    +0.000 OA
BRANCH  17  18
ATOM     18  C   UNL     1       0.025  11.592  18.755  0.00  0.00    +0.000 C 
BRANCH  18  19
ATOM     19  C   UNL     1      -1.412  11.414  18.326  0.00  0.00    +0.000 A 
ATOM     20  C   UNL     1      -2.475  12.010  19.023  0.00  0.00    +0.000 A 
ATOM     21  C   UNL     1      -3.798  11.684  18.712  0.00  0.00    +0.000 A 
ATOM     22  C   UNL     1      -4.072  10.754  17.710  0.00  0.00    +0.000 A 
ATOM     23  C   UNL     1      -3.022  10.179  17.005  0.00  0.00    +0.000 A 
ATOM     24  F   UNL     1      -3.282   9.275  16.051  0.00  0.00    +0.000 F 
ATOM     25  C   UNL     1      -1.702  10.502  17.300  0.00  0.00    +0.000 A 
ENDBRANCH  18  19
ENDBRANCH  17  18
ENDBRANCH  13  17
ENDBRANCH   7  10
BRANCH   8  26
ATOM     26  C   UNL     1       4.256   3.594  18.027  0.00  0.00    +0.000 C 
ATOM     27  C   UNL     1       4.894   3.558  16.890  0.00  0.00    +0.000 C 
BRANCH  27  28
ATOM     28  C   UNL     1       5.637   3.514  15.565  0.00  0.00    +0.000 C 
BRANCH  28  29
ATOM     29  C   UNL     1       7.014   4.206  15.780  0.00  0.00    +0.000 C 
BRANCH  29  30
ATOM     30  N   UNL     1       7.061   5.669  15.801  0.00  0.00    +0.000 NA
ATOM     31  C   UNL     1       7.457   6.209  17.122  0.00  0.00    +0.000 C 
ATOM     32  C   UNL     1       6.304   6.652  18.039  0.00  0.00    +0.000 C 
ATOM     33  O   UNL     1       5.411   7.536  17.356  0.00  0.00    +0.000 OA
ATOM     34  C   UNL     1       4.842   6.865  16.229  0.00  0.00    +0.000 C 
ATOM     35  C   UNL     1       5.923   6.406  15.237  0.00  0.00    +0.000 C 
ENDBRANCH  29  30
ENDBRANCH  28  29
ENDBRANCH  27  28
ENDBRANCH   8  26
TORSDOF 8
ENDMDL
MODEL 7
REMARK VINA RESULT:      -7.9      2.028      4.579
REMARK  Name = 
REMARK  9 active torsions:
REMARK  status: ('A' for Active; 'I' for Inactive)
REMARK    1  A    between atoms: C_1  and  C_2
REMARK    2  A    between atoms: N_7  and  C_8
REMARK    3  A    between atoms: C_11  and  O_12
REMARK    4  A    between atoms: O_12  and  C_13
REMARK    5  A    between atoms: C_13  and  C_14
REMARK    6  A    between atoms: C_24  and  C_25
REMARK    7  A    between atoms: C_26  and  C_27
REMARK    8  A    between atoms: C_27  and  C_28
REMARK    9  A    between atoms: C_28  and  N_29
REMARK                            x       y       z     vdW  Elec       q    Type
REMARK                         _______ _______ _______ _____ _____    ______ ____
ROOT
ATOM      1  C   UNL     1       6.029   3.857  15.636  0.00  0.00    +0.000 C 
ATOM      2  C   UNL     1       5.648   5.148  16.301  0.00  0.00    +0.000 A 
ATOM      3  N   UNL     1       6.414   6.216  15.984  0.00  0.00    +0.000 NA
ATOM      4  C   UNL     1       6.085   7.370  16.568  0.00  0.00    +0.000 A 
ATOM      5  N   UNL     1       5.082   7.552  17.433  0.00  0.00    +0.000 NA
ATOM      6  C   UNL     1       4.312   6.486  17.735  0.00  0.00    +0.000 A 
ATOM      7  N   UNL     1       3.175   6.670  18.567  0.00  0.00    +0.000 N 
ATOM      8  C   UNL     1       4.569   5.231  17.175  0.00  0.00    +0.000 A 
ATOM      9  H   UNL     1       3.109   5.957  19.283  0.00  0.00    +0.000 HD
ENDROOT
BRANCH   7  10
ATOM     10  C   UNL     1       2.421   7.836  18.805  0.00  0.00    +0.000 A 
ATOM     11  C   UNL     1       1.982   8.672  17.772  0.00  0.00    +0.000 A 
ATOM     12  C   UNL     1       1.085   9.715  17.998  0.00  0.00    +0.000 A 
ATOM     13  C   UNL     1       0.531   9.911  19.261  0.00  0.00    +0.000 A 
ATOM     14  C   UNL     1       1.000   9.128  20.321  0.00  0.00    +0.000 A 
ATOM     15 CL   UNL     1       0.410   9.356  21.931  0.00  0.00    +0.000 Cl
ATOM     16  C   UNL     1       1.934   8.101  20.097  0.00  0.00    +0.000 A 
BRANCH  13  17
ATOM     17  O   UNL     1      -0.476  10.820  19.493  0.00  0.00    +0.000 OA
BRANCH  17  18
ATOM     18  C   UNL     1      -0.814  11.624  18.355  0.00  0.00    +0.000 C 
BRANCH  18  19
ATOM     19  C   UNL     1      -2.219  11.393  17.852  0.00  0.00    +0.000 A 
ATOM     20  C   UNL     1      -2.481  11.000  16.531  0.00  0.00    +0.000 A 
ATOM     21  C   UNL     1      -3.792  10.969  16.047  0.00  0.00    +0.000 A 
ATOM     22  C   UNL     1      -4.851  11.337  16.875  0.00  0.00    +0.000 A 
ATOM     23  C   UNL     1      -4.596  11.706  18.189  0.00  0.00    +0.000 A 
ATOM     24  F   UNL     1      -5.611  12.074  18.982  0.00  0.00    +0.000 F 
ATOM     25  C   UNL     1      -3.297  11.734  18.684  0.00  0.00    +0.000 A 
ENDBRANCH  18  19
ENDBRANCH  17  18
ENDBRANCH  13  17
ENDBRANCH   7  10
BRANCH   8  26
ATOM     26  C   UNL     1       3.751   4.087  17.461  0.00  0.00    +0.000 C 
ATOM     27  C   UNL     1       3.054   3.013  17.708  0.00  0.00    +0.000 C 
BRANCH  27  28
ATOM     28  C   UNL     1       2.241   1.761  17.995  0.00  0.00    +0.000 C 
BRANCH  28  29
ATOM     29  C   UNL     1       0.878   2.216  18.592  0.00  0.00    +0.000 C 
BRANCH  29  30
ATOM     30  N   UNL     1       0.800   2.472  20.030  0.00  0.00    +0.000 NA
ATOM     31  C   UNL     1       0.584   3.903  20.345  0.00  0.00    +0.000 C 
ATOM     32  C   UNL     1       1.847   4.710  20.697  0.00  0.00    +0.000 C 
ATOM     33  O   UNL     1       2.610   4.057  21.715  0.00  0.00    +0.000 OA
ATOM     34  C   UNL     1       3.027   2.771  21.249  0.00  0.00    +0.000 C 
ATOM     35  C   UNL     1       1.826   1.879  20.897  0.00  0.00    +0.000 C 
ENDBRANCH  29  30
ENDBRANCH  28  29
ENDBRANCH  27  28
ENDBRANCH   8  26
TORSDOF 8
ENDMDL
MODEL 8
REMARK VINA RESULT:      -7.9      4.209      5.412
REMARK  Name = 
REMARK  9 active torsions:
REMARK  status: ('A' for Active; 'I' for Inactive)
REMARK    1  A    between atoms: C_1  and  C_2
REMARK    2  A    between atoms: N_7  and  C_8
REMARK    3  A    between atoms: C_11  and  O_12
REMARK    4  A    between atoms: O_12  and  C_13
REMARK    5  A    between atoms: C_13  and  C_14
REMARK    6  A    between atoms: C_24  and  C_25
REMARK    7  A    between atoms: C_26  and  C_27
REMARK    8  A    between atoms: C_27  and  C_28
REMARK    9  A    between atoms: C_28  and  N_29
REMARK                            x       y       z     vdW  Elec       q    Type
REMARK                         _______ _______ _______ _____ _____    ______ ____
ROOT
ATOM      1  C   UNL     1       7.329   4.429  17.143  0.00  0.00    +0.000 C 
ATOM      2  C   UNL     1       5.890   4.790  17.366  0.00  0.00    +0.000 A 
ATOM      3  N   UNL     1       5.028   3.750  17.423  0.00  0.00    +0.000 NA
ATOM      4  C   UNL     1       3.744   4.059  17.621  0.00  0.00    +0.000 A 
ATOM      5  N   UNL     1       3.249   5.292  17.759  0.00  0.00    +0.000 NA
ATOM      6  C   UNL     1       4.113   6.326  17.716  0.00  0.00    +0.000 A 
ATOM      7  N   UNL     1       3.632   7.639  17.964  0.00  0.00    +0.000 N 
ATOM      8  C   UNL     1       5.480   6.112  17.515  0.00  0.00    +0.000 A 
ATOM      9  H   UNL     1       3.987   8.307  17.291  0.00  0.00    +0.000 HD
ENDROOT
BRANCH   7  10
ATOM     10  C   UNL     1       2.492   8.053  18.682  0.00  0.00    +0.000 A 
ATOM     11  C   UNL     1       2.146   7.506  19.922  0.00  0.00    +0.000 A 
ATOM     12  C   UNL     1       1.128   8.046  20.708  0.00  0.00    +0.000 A 
ATOM     13  C   UNL     1       0.469   9.208  20.311  0.00  0.00    +0.000 A 
ATOM     14  C   UNL     1       0.756   9.736  19.048  0.00  0.00    +0.000 A 
ATOM     15 CL   UNL     1      -0.068  11.138  18.456  0.00  0.00    +0.000 Cl
ATOM     16  C   UNL     1       1.756   9.166  18.241  0.00  0.00    +0.000 A 
BRANCH  13  17
ATOM     17  O   UNL     1      -0.424   9.865  21.126  0.00  0.00    +0.000 OA
BRANCH  17  18
ATOM     18  C   UNL     1       0.158  10.921  21.902  0.00  0.00    +0.000 C 
BRANCH  18  19
ATOM     19  C   UNL     1      -0.855  11.918  22.415  0.00  0.00    +0.000 A 
ATOM     20  C   UNL     1      -0.612  13.300  22.396  0.00  0.00    +0.000 A 
ATOM     21  C   UNL     1      -1.486  14.181  23.038  0.00  0.00    +0.000 A 
ATOM     22  C   UNL     1      -2.604  13.691  23.711  0.00  0.00    +0.000 A 
ATOM     23  C   UNL     1      -2.857  12.325  23.713  0.00  0.00    +0.000 A 
ATOM     24  F   UNL     1      -3.923  11.851  24.371  0.00  0.00    +0.000 F 
ATOM     25  C   UNL     1      -1.999  11.439  23.071  0.00  0.00    +0.000 A 
ENDBRANCH  18  19
ENDBRANCH  17  18
ENDBRANCH  13  17
ENDBRANCH   7  10
BRANCH   8  26
ATOM     26  C   UNL     1       6.426   7.192  17.490  0.00  0.00    +0.000 C 
ATOM     27  C   UNL     1       7.327   8.134  17.476  0.00  0.00    +0.000 C 
BRANCH  27  28
ATOM     28  C   UNL     1       8.378   9.232  17.462  0.00  0.00    +0.000 C 
BRANCH  28  29
ATOM     29  C   UNL     1       8.699   9.590  18.942  0.00  0.00    +0.000 C 
BRANCH  29  30
ATOM     30  N   UNL     1       9.808  10.505  19.211  0.00  0.00    +0.000 NA
ATOM     31  C   UNL     1       9.677  11.194  20.516  0.00  0.00    +0.000 C 
ATOM     32  C   UNL     1       9.074  12.610  20.470  0.00  0.00    +0.000 C 
ATOM     33  O   UNL     1       9.747  13.427  19.509  0.00  0.00    +0.000 OA
ATOM     34  C   UNL     1       9.609  12.849  18.209  0.00  0.00    +0.000 C 
ATOM     35  C   UNL     1      10.211  11.436  18.150  0.00  0.00    +0.000 C 
ENDBRANCH  29  30
ENDBRANCH  28  29
ENDBRANCH  27  28
ENDBRANCH   8  26
TORSDOF 8
ENDMDL
MODEL 9
REMARK VINA RESULT:      -7.8      2.325      2.889
REMARK  Name = 
REMARK  9 active torsions:
REMARK  status: ('A' for Active; 'I' for Inactive)
REMARK    1  A    between atoms: C_1  and  C_2
REMARK    2  A    between atoms: N_7  and  C_8
REMARK    3  A    between atoms: C_11  and  O_12
REMARK    4  A    between atoms: O_12  and  C_13
REMARK    5  A    between atoms: C_13  and  C_14
REMARK    6  A    between atoms: C_24  and  C_25
REMARK    7  A    between atoms: C_26  and  C_27
REMARK    8  A    between atoms: C_27  and  C_28
REMARK    9  A    between atoms: C_28  and  N_29
REMARK                            x       y       z     vdW  Elec       q    Type
REMARK                         _______ _______ _______ _____ _____    ______ ____
ROOT
ATOM      1  C   UNL     1       4.344   2.136  20.178  0.00  0.00    +0.000 C 
ATOM      2  C   UNL     1       3.237   3.148  20.236  0.00  0.00    +0.000 A 
ATOM      3  N   UNL     1       2.040   2.682  20.659  0.00  0.00    +0.000 NA
ATOM      4  C   UNL     1       1.048   3.573  20.715  0.00  0.00    +0.000 A 
ATOM      5  N   UNL     1       1.137   4.865  20.386  0.00  0.00    +0.000 NA
ATOM      6  C   UNL     1       2.335   5.329  19.978  0.00  0.00    +0.000 A 
ATOM      7  N   UNL     1       2.487   6.719  19.722  0.00  0.00    +0.000 N 
ATOM      8  C   UNL     1       3.442   4.480  19.886  0.00  0.00    +0.000 A 
ATOM      9  H   UNL     1       2.981   6.893  18.855  0.00  0.00    +0.000 HD
ENDROOT
BRANCH   7  10
ATOM     10  C   UNL     1       1.746   7.806  20.224  0.00  0.00    +0.000 A 
ATOM     11  C   UNL     1       1.377   7.907  21.570  0.00  0.00    +0.000 A 
ATOM     12  C   UNL     1       0.809   9.067  22.094  0.00  0.00    +0.000 A 
ATOM     13  C   UNL     1       0.660  10.203  21.301  0.00  0.00    +0.000 A 
ATOM     14  C   UNL     1       0.965  10.107  19.940  0.00  0.00    +0.000 A 
ATOM     15 CL   UNL     1       0.744  11.453  18.876  0.00  0.00    +0.000 Cl
ATOM     16  C   UNL     1       1.502   8.922  19.405  0.00  0.00    +0.000 A 
BRANCH  13  17
ATOM     17  O   UNL     1       0.257  11.415  21.814  0.00  0.00    +0.000 OA
BRANCH  17  18
ATOM     18  C   UNL     1      -0.843  11.327  22.729  0.00  0.00    +0.000 C 
BRANCH  18  19
ATOM     19  C   UNL     1      -1.889  12.395  22.515  0.00  0.00    +0.000 A 
ATOM     20  C   UNL     1      -2.330  13.224  23.559  0.00  0.00    +0.000 A 
ATOM     21  C   UNL     1      -3.421  14.077  23.373  0.00  0.00    +0.000 A 
ATOM     22  C   UNL     1      -4.087  14.105  22.149  0.00  0.00    +0.000 A 
ATOM     23  C   UNL     1      -3.639  13.301  21.108  0.00  0.00    +0.000 A 
ATOM     24  F   UNL     1      -4.286  13.316  19.935  0.00  0.00    +0.000 F 
ATOM     25  C   UNL     1      -2.550  12.454  21.278  0.00  0.00    +0.000 A 
ENDBRANCH  18  19
ENDBRANCH  17  18
ENDBRANCH  13  17
ENDBRANCH   7  10
BRANCH   8  26
ATOM     26  C   UNL     1       4.734   4.952  19.478  0.00  0.00    +0.000 C 
ATOM     27  C   UNL     1       5.894   5.369  19.052  0.00  0.00    +0.000 C 
BRANCH  27  28
ATOM     28  C   UNL     1       7.246   5.854  18.555  0.00  0.00    +0.000 C 
BRANCH  28  29
ATOM     29  C   UNL     1       7.562   5.087  17.238  0.00  0.00    +0.000 C 
BRANCH  29  30
ATOM     30  N   UNL     1       7.029   5.614  15.981  0.00  0.00    +0.000 NA
ATOM     31  C   UNL     1       5.564   5.824  16.026  0.00  0.00    +0.000 C 
ATOM     32  C   UNL     1       4.706   4.695  15.427  0.00  0.00    +0.000 C 
ATOM     33  O   UNL     1       5.149   4.352  14.111  0.00  0.00    +0.000 OA
ATOM     34  C   UNL     1       6.502   3.893  14.166  0.00  0.00    +0.000 C 
ATOM     35  C   UNL     1       7.443   4.970  14.729  0.00  0.00    +0.000 C 
ENDBRANCH  29  30
ENDBRANCH  28  29
ENDBRANCH  27  28
ENDBRANCH   8  26
TORSDOF 8
ENDMDL
