MODEL 1
REMARK VINA RESULT:      -6.5      0.000      0.000
REMARK  Name = 
REMARK  6 active torsions:
REMARK  status: ('A' for Active; 'I' for Inactive)
REMARK    1  A    between atoms: C_1  and  C_2
REMARK    2  A    between atoms: C_2  and  O_3
REMARK    3  A    between atoms: O_3  and  C_4
REMARK    4  A    between atoms: C_4  and  C_6
REMARK    5  A    between atoms: C_6  and  C_7
REMARK    6  A    between atoms: N_12  and  C_13
REMARK                            x       y       z     vdW  Elec       q    Type
REMARK                         _______ _______ _______ _____ _____    ______ ____
ROOT
ATOM      1  C   UNL     1       4.284   4.362  17.950  0.00  0.00    +0.000 C 
ATOM      2  C   UNL     1       3.779   5.541  18.381  0.00  0.00    +0.000 C 
ATOM      3  C   UNL     1       3.835   6.760  17.560  0.00  0.00    +0.000 C 
ATOM      4  C   UNL     1       3.080   7.818  17.884  0.00  0.00    +0.000 C 
ATOM      5  N   UNL     1       2.281   7.810  19.015  0.00  0.00    +0.000 N 
ATOM      6  C   UNL     1       2.451   6.721  19.851  0.00  0.00    +0.000 C 
ATOM      7  N   UNL     1       3.172   5.664  19.623  0.00  0.00    +0.000 NA
ENDROOT
BRANCH   5   8
ATOM      8  C   UNL     1       1.302   8.823  19.254  0.00  0.00    +0.000 A 
ATOM      9  C   UNL     1       0.811   9.050  20.556  0.00  0.00    +0.000 A 
ATOM     10  C   UNL     1      -0.145  10.033  20.816  0.00  0.00    +0.000 A 
ATOM     11  C   UNL     1      -0.630  10.819  19.779  0.00  0.00    +0.000 A 
ATOM     12  C   UNL     1      -0.153  10.626  18.484  0.00  0.00    +0.000 A 
ATOM     13  C   UNL     1       0.806   9.640  18.225  0.00  0.00    +0.000 A 
ENDBRANCH   5   8
BRANCH   1  14
ATOM     14  C   UNL     1       4.212   3.156  18.814  0.00  0.00    +0.000 C 
ATOM     15  O   UNL     1       4.949   2.875  19.746  0.00  0.00    +0.000 OA
BRANCH  14  16
ATOM     16  O   UNL     1       3.211   2.352  18.357  0.00  0.00    +0.000 OA
BRANCH  16  18
ATOM     17  C   UNL     1       0.906   2.728  18.782  0.00  0.00    +0.000 C 
ATOM     18  C   UNL     1       2.170   2.067  19.300  0.00  0.00    +0.000 C 
ENDBRANCH  16  18
ENDBRANCH  14  16
ENDBRANCH   1  14
BRANCH   1  19
ATOM     19  C   UNL     1       4.909   4.227  16.677  0.00  0.00    +0.000 C 
ATOM     20  N   UNL     1       5.389   4.084  15.631  0.00  0.00    +0.000 NA
ENDBRANCH   1  19
TORSDOF 5
ENDMDL
MODEL 2
REMARK VINA RESULT:      -6.4      0.235      1.100
REMARK  Name = 
REMARK  6 active torsions:
REMARK  status: ('A' for Active; 'I' for Inactive)
REMARK    1  A    between atoms: C_1  and  C_2
REMARK    2  A    between atoms: C_2  and  O_3
REMARK    3  A    between atoms: O_3  and  C_4
REMARK    4  A    between atoms: C_4  and  C_6
REMARK    5  A    between atoms: C_6  and  C_7
REMARK    6  A    between atoms: N_12  and  C_13
REMARK                            x       y       z     vdW  Elec       q    Type
REMARK                         _______ _______ _______ _____ _____    ______ ____
ROOT
ATOM      1  C   UNL     1       4.249   4.595  17.861  0.00  0.00    +0.000 C 
ATOM      2  C   UNL     1       3.720   5.751  18.324  0.00  0.00    +0.000 C 
ATOM      3  C   UNL     1       3.759   6.996  17.542  0.00  0.00    +0.000 C 
ATOM      4  C   UNL     1       2.984   8.029  17.894  0.00  0.00    +0.000 C 
ATOM      5  N   UNL     1       2.178   7.972  19.019  0.00  0.00    +0.000 N 
ATOM      6  C   UNL     1       2.364   6.862  19.822  0.00  0.00    +0.000 C 
ATOM      7  N   UNL     1       3.105   5.824  19.566  0.00  0.00    +0.000 NA
ENDROOT
BRANCH   5   8
ATOM      8  C   UNL     1       1.181   8.961  19.284  0.00  0.00    +0.000 A 
ATOM      9  C   UNL     1       0.609   9.701  18.230  0.00  0.00    +0.000 A 
ATOM     10  C   UNL     1      -0.365  10.673  18.462  0.00  0.00    +0.000 A 
ATOM     11  C   UNL     1      -0.797  10.924  19.758  0.00  0.00    +0.000 A 
ATOM     12  C   UNL     1      -0.260  10.198  20.819  0.00  0.00    +0.000 A 
ATOM     13  C   UNL     1       0.718   9.224  20.583  0.00  0.00    +0.000 A 
ENDBRANCH   5   8
BRANCH   1  14
ATOM     14  C   UNL     1       4.193   3.362  18.686  0.00  0.00    +0.000 C 
ATOM     15  O   UNL     1       4.942   3.056  19.601  0.00  0.00    +0.000 OA
BRANCH  14  16
ATOM     16  O   UNL     1       3.191   2.566  18.216  0.00  0.00    +0.000 OA
BRANCH  16  18
ATOM     17  C   UNL     1       0.998   2.835  19.082  0.00  0.00    +0.000 C 
ATOM     18  C   UNL     1       2.293   2.055  19.208  0.00  0.00    +0.000 C 
ENDBRANCH  16  18
ENDBRANCH  14  16
ENDBRANCH   1  14
BRANCH   1  19
ATOM     19  C   UNL     1       4.883   4.510  16.588  0.00  0.00    +0.000 C 
ATOM     20  N   UNL     1       5.360   4.432  15.534  0.00  0.00    +0.000 NA
ENDBRANCH   1  19
TORSDOF 5
ENDMDL
MODEL 3
REMARK VINA RESULT:      -6.4      2.011      3.246
REMARK  Name = 
REMARK  6 active torsions:
REMARK  status: ('A' for Active; 'I' for Inactive)
REMARK    1  A    between atoms: C_1  and  C_2
REMARK    2  A    between atoms: C_2  and  O_3
REMARK    3  A    between atoms: O_3  and  C_4
REMARK    4  A    between atoms: C_4  and  C_6
REMARK    5  A    between atoms: C_6  and  C_7
REMARK    6  A    between atoms: N_12  and  C_13
REMARK                            x       y       z     vdW  Elec       q    Type
REMARK                         _______ _______ _______ _____ _____    ______ ____
ROOT
ATOM      1  C   UNL     1       4.543   4.168  18.883  0.00  0.00    +0.000 C 
ATOM      2  C   UNL     1       3.582   5.098  19.087  0.00  0.00    +0.000 C 
ATOM      3  C   UNL     1       2.573   4.958  20.148  0.00  0.00    +0.000 C 
ATOM      4  C   UNL     1       1.833   6.014  20.508  0.00  0.00    +0.000 C 
ATOM      5  N   UNL     1       1.958   7.233  19.863  0.00  0.00    +0.000 N 
ATOM      6  C   UNL     1       2.761   7.224  18.736  0.00  0.00    +0.000 C 
ATOM      7  N   UNL     1       3.499   6.243  18.308  0.00  0.00    +0.000 NA
ENDROOT
BRANCH   5   8
ATOM      8  C   UNL     1       1.354   8.423  20.373  0.00  0.00    +0.000 A 
ATOM      9  C   UNL     1       1.010   8.523  21.736  0.00  0.00    +0.000 A 
ATOM     10  C   UNL     1       0.417   9.674  22.258  0.00  0.00    +0.000 A 
ATOM     11  C   UNL     1       0.159  10.757  21.429  0.00  0.00    +0.000 A 
ATOM     12  C   UNL     1       0.501  10.691  20.080  0.00  0.00    +0.000 A 
ATOM     13  C   UNL     1       1.095   9.537  19.558  0.00  0.00    +0.000 A 
ENDBRANCH   5   8
BRANCH   1  14
ATOM     14  C   UNL     1       5.539   4.346  17.795  0.00  0.00    +0.000 C 
ATOM     15  O   UNL     1       5.321   4.357  16.595  0.00  0.00    +0.000 OA
BRANCH  14  16
ATOM     16  O   UNL     1       6.781   4.432  18.351  0.00  0.00    +0.000 OA
BRANCH  16  18
ATOM     17  C   UNL     1       7.478   6.666  17.958  0.00  0.00    +0.000 C 
ATOM     18  C   UNL     1       7.071   5.664  19.022  0.00  0.00    +0.000 C 
ENDBRANCH  16  18
ENDBRANCH  14  16
ENDBRANCH   1  14
BRANCH   1  19
ATOM     19  C   UNL     1       4.635   2.989  19.677  0.00  0.00    +0.000 C 
ATOM     20  N   UNL     1       4.740   2.013  20.295  0.00  0.00    +0.000 NA
ENDBRANCH   1  19
TORSDOF 5
ENDMDL
MODEL 4
REMARK VINA RESULT:      -6.3      1.960      3.449
REMARK  Name = 
REMARK  6 active torsions:
REMARK  status: ('A' for Active; 'I' for Inactive)
REMARK    1  A    between atoms: C_1  and  C_2
REMARK    2  A    between atoms: C_2  and  O_3
REMARK    3  A    between atoms: O_3  and  C_4
REMARK    4  A    between atoms: C_4  and  C_6
REMARK    5  A    between atoms: C_6  and  C_7
REMARK    6  A    between atoms: N_12  and  C_13
REMARK                            x       y       z     vdW  Elec       q    Type
REMARK                         _______ _______ _______ _____ _____    ______ ____
ROOT
ATOM      1  C   UNL     1       4.435   4.032  18.893  0.00  0.00    +0.000 C 
ATOM      2  C   UNL     1       3.493   4.975  19.123  0.00  0.00    +0.000 C 
ATOM      3  C   UNL     1       2.551   4.879  20.249  0.00  0.00    +0.000 C 
ATOM      4  C   UNL     1       1.839   5.951  20.617  0.00  0.00    +0.000 C 
ATOM      5  N   UNL     1       1.929   7.146  19.921  0.00  0.00    +0.000 N 
ATOM      6  C   UNL     1       2.660   7.092  18.748  0.00  0.00    +0.000 C 
ATOM      7  N   UNL     1       3.366   6.092  18.310  0.00  0.00    +0.000 NA
ENDROOT
BRANCH   5   8
ATOM      8  C   UNL     1       1.362   8.357  20.425  0.00  0.00    +0.000 A 
ATOM      9  C   UNL     1       1.101   9.438  19.560  0.00  0.00    +0.000 A 
ATOM     10  C   UNL     1       0.549  10.632  20.028  0.00  0.00    +0.000 A 
ATOM     11  C   UNL     1       0.240  10.771  21.374  0.00  0.00    +0.000 A 
ATOM     12  C   UNL     1       0.475   9.714  22.250  0.00  0.00    +0.000 A 
ATOM     13  C   UNL     1       1.029   8.518  21.780  0.00  0.00    +0.000 A 
ENDBRANCH   5   8
BRANCH   1  14
ATOM     14  C   UNL     1       5.362   4.165  17.740  0.00  0.00    +0.000 C 
ATOM     15  O   UNL     1       5.090   4.021  16.559  0.00  0.00    +0.000 OA
BRANCH  14  16
ATOM     16  O   UNL     1       6.615   4.415  18.215  0.00  0.00    +0.000 OA
BRANCH  16  18
ATOM     17  C   UNL     1       7.414   6.630  17.916  0.00  0.00    +0.000 C 
ATOM     18  C   UNL     1       7.446   5.216  17.366  0.00  0.00    +0.000 C 
ENDBRANCH  16  18
ENDBRANCH  14  16
ENDBRANCH   1  14
BRANCH   1  19
ATOM     19  C   UNL     1       4.572   2.881  19.722  0.00  0.00    +0.000 C 
ATOM     20  N   UNL     1       4.720   1.933  20.373  0.00  0.00    +0.000 NA
ENDBRANCH   1  19
TORSDOF 5
ENDMDL
MODEL 5
REMARK VINA RESULT:      -6.1      3.114      7.140
REMARK  Name = 
REMARK  6 active torsions:
REMARK  status: ('A' for Active; 'I' for Inactive)
REMARK    1  A    between atoms: C_1  and  C_2
REMARK    2  A    between atoms: C_2  and  O_3
REMARK    3  A    between atoms: O_3  and  C_4
REMARK    4  A    between atoms: C_4  and  C_6
REMARK    5  A    between atoms: C_6  and  C_7
REMARK    6  A    between atoms: N_12  and  C_13
REMARK                            x       y       z     vdW  Elec       q    Type
REMARK                         _______ _______ _______ _____ _____    ______ ____
ROOT
ATOM      1  C   UNL     1       2.633   5.649  18.633  0.00  0.00    +0.000 C 
ATOM      2  C   UNL     1       3.649   5.362  17.785  0.00  0.00    +0.000 C 
ATOM      3  C   UNL     1       3.995   3.980  17.422  0.00  0.00    +0.000 C 
ATOM      4  C   UNL     1       4.797   3.746  16.376  0.00  0.00    +0.000 C 
ATOM      5  N   UNL     1       5.356   4.787  15.653  0.00  0.00    +0.000 N 
ATOM      6  C   UNL     1       5.165   6.047  16.190  0.00  0.00    +0.000 C 
ATOM      7  N   UNL     1       4.419   6.361  17.207  0.00  0.00    +0.000 NA
ENDROOT
BRANCH   5   8
ATOM      8  C   UNL     1       6.021   4.569  14.407  0.00  0.00    +0.000 A 
ATOM      9  C   UNL     1       5.491   3.668  13.462  0.00  0.00    +0.000 A 
ATOM     10  C   UNL     1       6.122   3.436  12.238  0.00  0.00    +0.000 A 
ATOM     11  C   UNL     1       7.297   4.107  11.928  0.00  0.00    +0.000 A 
ATOM     12  C   UNL     1       7.837   5.014  12.837  0.00  0.00    +0.000 A 
ATOM     13  C   UNL     1       7.203   5.245  14.064  0.00  0.00    +0.000 A 
ENDBRANCH   5   8
BRANCH   1  14
ATOM     14  C   UNL     1       2.321   7.059  18.978  0.00  0.00    +0.000 C 
ATOM     15  O   UNL     1       2.317   7.560  20.091  0.00  0.00    +0.000 OA
BRANCH  14  16
ATOM     16  O   UNL     1       1.965   7.718  17.839  0.00  0.00    +0.000 OA
BRANCH  16  18
ATOM     17  C   UNL     1       0.685   9.706  18.054  0.00  0.00    +0.000 C 
ATOM     18  C   UNL     1       2.086   9.145  17.889  0.00  0.00    +0.000 C 
ENDBRANCH  16  18
ENDBRANCH  14  16
ENDBRANCH   1  14
BRANCH   1  19
ATOM     19  C   UNL     1       1.838   4.630  19.232  0.00  0.00    +0.000 C 
ATOM     20  N   UNL     1       1.179   3.787  19.679  0.00  0.00    +0.000 NA
ENDBRANCH   1  19
TORSDOF 5
ENDMDL
MODEL 6
REMARK VINA RESULT:      -6.1      2.411      3.621
REMARK  Name = 
REMARK  6 active torsions:
REMARK  status: ('A' for Active; 'I' for Inactive)
REMARK    1  A    between atoms: C_1  and  C_2
REMARK    2  A    between atoms: C_2  and  O_3
REMARK    3  A    between atoms: O_3  and  C_4
REMARK    4  A    between atoms: C_4  and  C_6
REMARK    5  A    between atoms: C_6  and  C_7
REMARK    6  A    between atoms: N_12  and  C_13
REMARK                            x       y       z     vdW  Elec       q    Type
REMARK                         _______ _______ _______ _____ _____    ______ ____
ROOT
ATOM      1  C   UNL     1       4.371   5.722  18.250  0.00  0.00    +0.000 C 
ATOM      2  C   UNL     1       3.315   6.418  18.731  0.00  0.00    +0.000 C 
ATOM      3  C   UNL     1       2.562   5.977  19.914  0.00  0.00    +0.000 C 
ATOM      4  C   UNL     1       1.726   6.824  20.527  0.00  0.00    +0.000 C 
ATOM      5  N   UNL     1       1.509   8.100  20.036  0.00  0.00    +0.000 N 
ATOM      6  C   UNL     1       2.077   8.362  18.802  0.00  0.00    +0.000 C 
ATOM      7  N   UNL     1       2.885   7.595  18.133  0.00  0.00    +0.000 NA
ENDROOT
BRANCH   5   8
ATOM      8  C   UNL     1       0.808   9.091  20.791  0.00  0.00    +0.000 A 
ATOM      9  C   UNL     1       0.528   8.884  22.157  0.00  0.00    +0.000 A 
ATOM     10  C   UNL     1      -0.156   9.835  22.915  0.00  0.00    +0.000 A 
ATOM     11  C   UNL     1      -0.574  11.021  22.326  0.00  0.00    +0.000 A 
ATOM     12  C   UNL     1      -0.299  11.258  20.980  0.00  0.00    +0.000 A 
ATOM     13  C   UNL     1       0.387  10.303  20.222  0.00  0.00    +0.000 A 
ENDBRANCH   5   8
BRANCH   1  14
ATOM     14  C   UNL     1       5.099   6.200  17.047  0.00  0.00    +0.000 C 
ATOM     15  O   UNL     1       4.956   5.811  15.899  0.00  0.00    +0.000 OA
BRANCH  14  16
ATOM     16  O   UNL     1       6.026   7.121  17.436  0.00  0.00    +0.000 OA
BRANCH  16  18
ATOM     17  C   UNL     1       7.898   6.392  18.699  0.00  0.00    +0.000 C 
ATOM     18  C   UNL     1       7.393   6.713  17.305  0.00  0.00    +0.000 C 
ENDBRANCH  16  18
ENDBRANCH  14  16
ENDBRANCH   1  14
BRANCH   1  19
ATOM     19  C   UNL     1       4.818   4.512  18.856  0.00  0.00    +0.000 C 
ATOM     20  N   UNL     1       5.140   3.518  19.358  0.00  0.00    +0.000 NA
ENDBRANCH   1  19
TORSDOF 5
ENDMDL
MODEL 7
REMARK VINA RESULT:      -6.1      2.434      3.287
REMARK  Name = 
REMARK  6 active torsions:
REMARK  status: ('A' for Active; 'I' for Inactive)
REMARK    1  A    between atoms: C_1  and  C_2
REMARK    2  A    between atoms: C_2  and  O_3
REMARK    3  A    between atoms: O_3  and  C_4
REMARK    4  A    between atoms: C_4  and  C_6
REMARK    5  A    between atoms: C_6  and  C_7
REMARK    6  A    between atoms: N_12  and  C_13
REMARK                            x       y       z     vdW  Elec       q    Type
REMARK                         _______ _______ _______ _____ _____    ______ ____
ROOT
ATOM      1  C   UNL     1       4.677   5.827  18.094  0.00  0.00    +0.000 C 
ATOM      2  C   UNL     1       3.580   6.475  18.550  0.00  0.00    +0.000 C 
ATOM      3  C   UNL     1       2.834   6.012  19.729  0.00  0.00    +0.000 C 
ATOM      4  C   UNL     1       1.946   6.824  20.318  0.00  0.00    +0.000 C 
ATOM      5  N   UNL     1       1.672   8.080  19.805  0.00  0.00    +0.000 N 
ATOM      6  C   UNL     1       2.243   8.354  18.575  0.00  0.00    +0.000 C 
ATOM      7  N   UNL     1       3.099   7.619  17.928  0.00  0.00    +0.000 NA
ENDROOT
BRANCH   5   8
ATOM      8  C   UNL     1       0.910   9.044  20.535  0.00  0.00    +0.000 A 
ATOM      9  C   UNL     1       0.721   8.903  21.924  0.00  0.00    +0.000 A 
ATOM     10  C   UNL     1      -0.021   9.829  22.660  0.00  0.00    +0.000 A 
ATOM     11  C   UNL     1      -0.587  10.926  22.022  0.00  0.00    +0.000 A 
ATOM     12  C   UNL     1      -0.405  11.098  20.652  0.00  0.00    +0.000 A 
ATOM     13  C   UNL     1       0.339  10.168  19.916  0.00  0.00    +0.000 A 
ENDBRANCH   5   8
BRANCH   1  14
ATOM     14  C   UNL     1       5.397   6.325  16.895  0.00  0.00    +0.000 C 
ATOM     15  O   UNL     1       6.254   7.192  16.860  0.00  0.00    +0.000 OA
BRANCH  14  16
ATOM     16  O   UNL     1       4.896   5.696  15.793  0.00  0.00    +0.000 OA
BRANCH  16  18
ATOM     17  C   UNL     1       6.132   3.736  15.280  0.00  0.00    +0.000 C 
ATOM     18  C   UNL     1       5.873   5.177  14.883  0.00  0.00    +0.000 C 
ENDBRANCH  16  18
ENDBRANCH  14  16
ENDBRANCH   1  14
BRANCH   1  19
ATOM     19  C   UNL     1       5.176   4.651  18.725  0.00  0.00    +0.000 C 
ATOM     20  N   UNL     1       5.552   3.698  19.269  0.00  0.00    +0.000 NA
ENDBRANCH   1  19
TORSDOF 5
ENDMDL
MODEL 8
REMARK VINA RESULT:      -6.1      3.089      7.111
REMARK  Name = 
REMARK  6 active torsions:
REMARK  status: ('A' for Active; 'I' for Inactive)
REMARK    1  A    between atoms: C_1  and  C_2
REMARK    2  A    between atoms: C_2  and  O_3
REMARK    3  A    between atoms: O_3  and  C_4
REMARK    4  A    between atoms: C_4  and  C_6
REMARK    5  A    between atoms: C_6  and  C_7
REMARK    6  A    between atoms: N_12  and  C_13
REMARK                            x       y       z     vdW  Elec       q    Type
REMARK                         _______ _______ _______ _____ _____    ______ ____
ROOT
ATOM      1  C   UNL     1       2.655   5.664  18.723  0.00  0.00    +0.000 C 
ATOM      2  C   UNL     1       3.655   5.378  17.857  0.00  0.00    +0.000 C 
ATOM      3  C   UNL     1       4.019   3.995  17.515  0.00  0.00    +0.000 C 
ATOM      4  C   UNL     1       4.799   3.753  16.454  0.00  0.00    +0.000 C 
ATOM      5  N   UNL     1       5.320   4.788  15.695  0.00  0.00    +0.000 N 
ATOM      6  C   UNL     1       5.118   6.056  16.209  0.00  0.00    +0.000 C 
ATOM      7  N   UNL     1       4.391   6.378  17.238  0.00  0.00    +0.000 NA
ENDROOT
BRANCH   5   8
ATOM      8  C   UNL     1       5.957   4.556  14.438  0.00  0.00    +0.000 A 
ATOM      9  C   UNL     1       7.158   5.218  14.111  0.00  0.00    +0.000 A 
ATOM     10  C   UNL     1       7.799   5.009  12.889  0.00  0.00    +0.000 A 
ATOM     11  C   UNL     1       7.257   4.126  11.964  0.00  0.00    +0.000 A 
ATOM     12  C   UNL     1       6.078   3.448  12.266  0.00  0.00    +0.000 A 
ATOM     13  C   UNL     1       5.436   3.658  13.491  0.00  0.00    +0.000 A 
ENDBRANCH   5   8
BRANCH   1  14
ATOM     14  C   UNL     1       2.324   7.075  19.046  0.00  0.00    +0.000 C 
ATOM     15  O   UNL     1       2.354   7.603  20.145  0.00  0.00    +0.000 OA
BRANCH  14  16
ATOM     16  O   UNL     1       1.907   7.696  17.906  0.00  0.00    +0.000 OA
BRANCH  16  18
ATOM     17  C   UNL     1       0.688   9.730  18.007  0.00  0.00    +0.000 C 
ATOM     18  C   UNL     1       2.072   9.119  17.885  0.00  0.00    +0.000 C 
ENDBRANCH  16  18
ENDBRANCH  14  16
ENDBRANCH   1  14
BRANCH   1  19
ATOM     19  C   UNL     1       1.895   4.643  19.364  0.00  0.00    +0.000 C 
ATOM     20  N   UNL     1       1.273   3.792  19.847  0.00  0.00    +0.000 NA
ENDBRANCH   1  19
TORSDOF 5
ENDMDL
MODEL 9
REMARK VINA RESULT:      -6.1      1.950      3.019
REMARK  Name = 
REMARK  6 active torsions:
REMARK  status: ('A' for Active; 'I' for Inactive)
REMARK    1  A    between atoms: C_1  and  C_2
REMARK    2  A    between atoms: C_2  and  O_3
REMARK    3  A    between atoms: O_3  and  C_4
REMARK    4  A    between atoms: C_4  and  C_6
REMARK    5  A    between atoms: C_6  and  C_7
REMARK    6  A    between atoms: N_12  and  C_13
REMARK                            x       y       z     vdW  Elec       q    Type
REMARK                         _______ _______ _______ _____ _____    ______ ____
ROOT
ATOM      1  C   UNL     1       4.600   4.277  18.912  0.00  0.00    +0.000 C 
ATOM      2  C   UNL     1       3.624   5.192  19.119  0.00  0.00    +0.000 C 
ATOM      3  C   UNL     1       2.572   4.995  20.127  0.00  0.00    +0.000 C 
ATOM      4  C   UNL     1       1.808   6.028  20.504  0.00  0.00    +0.000 C 
ATOM      5  N   UNL     1       1.951   7.277  19.923  0.00  0.00    +0.000 N 
ATOM      6  C   UNL     1       2.801   7.326  18.833  0.00  0.00    +0.000 C 
ATOM      7  N   UNL     1       3.565   6.371  18.391  0.00  0.00    +0.000 NA
ENDROOT
BRANCH   5   8
ATOM      8  C   UNL     1       1.315   8.438  20.461  0.00  0.00    +0.000 A 
ATOM      9  C   UNL     1       1.063   8.538  21.844  0.00  0.00    +0.000 A 
ATOM     10  C   UNL     1       0.443   9.661  22.395  0.00  0.00    +0.000 A 
ATOM     11  C   UNL     1       0.064  10.715  21.574  0.00  0.00    +0.000 A 
ATOM     12  C   UNL     1       0.312  10.648  20.205  0.00  0.00    +0.000 A 
ATOM     13  C   UNL     1       0.934   9.522  19.654  0.00  0.00    +0.000 A 
ENDBRANCH   5   8
BRANCH   1  14
ATOM     14  C   UNL     1       5.640   4.513  17.878  0.00  0.00    +0.000 C 
ATOM     15  O   UNL     1       6.735   5.027  18.042  0.00  0.00    +0.000 OA
BRANCH  14  16
ATOM     16  O   UNL     1       5.151   4.116  16.669  0.00  0.00    +0.000 OA
BRANCH  16  18
ATOM     17  C   UNL     1       5.587   4.309  14.345  0.00  0.00    +0.000 C 
ATOM     18  C   UNL     1       6.136   3.821  15.673  0.00  0.00    +0.000 C 
ENDBRANCH  16  18
ENDBRANCH  14  16
ENDBRANCH   1  14
BRANCH   1  19
ATOM     19  C   UNL     1       4.668   3.063  19.654  0.00  0.00    +0.000 C 
ATOM     20  N   UNL     1       4.745   2.056  20.223  0.00  0.00    +0.000 NA
ENDBRANCH   1  19
TORSDOF 5
ENDMDL
