MODEL 1
REMARK VINA RESULT:      -6.8      0.000      0.000
REMARK  Name = 
REMARK  10 active torsions:
REMARK  status: ('A' for Active; 'I' for Inactive)
REMARK    1  A    between atoms: C_1  and  C_2
REMARK    2  A    between atoms: C_2  and  C_3
REMARK    3  A    between atoms: C_4  and  C_5
REMARK    4  A    between atoms: C_6  and  N_7
REMARK    5  A    between atoms: N_7  and  C_8
REMARK    6  A    between atoms: C_21  and  C_23
REMARK    7  A    between atoms: C_26  and  C_27
REMARK    8  A    between atoms: C_27  and  C_28
REMARK    9  A    between atoms: C_27  and  C_29
REMARK   10  A    between atoms: C_27  and  C_30
REMARK                            x       y       z     vdW  Elec       q    Type
REMARK                         _______ _______ _______ _____ _____    ______ ____
ROOT
ATOM      1  C   UNL     1      -1.069  12.516  20.302  0.00  0.00    +0.000 C 
ATOM      2  C   UNL     1       0.033  12.335  19.211  0.00  0.00    +0.000 C 
ATOM      3  C   UNL     1       1.515  12.576  19.577  0.00  0.00    +0.000 C 
ATOM      4  C   UNL     1      -0.078  10.952  18.580  0.00  0.00    +0.000 C 
ATOM      5  C   UNL     1      -1.468  10.777  18.028  0.00  0.00    +0.000 A 
ATOM      6  C   UNL     1      -1.560   9.907  16.917  0.00  0.00    +0.000 A 
ATOM      7  C   UNL     1      -2.769   9.667  16.279  0.00  0.00    +0.000 A 
ATOM      8  C   UNL     1      -3.903  10.278  16.779  0.00  0.00    +0.000 A 
ATOM      9  C   UNL     1      -3.808  11.150  17.881  0.00  0.00    +0.000 A 
ATOM     10  C   UNL     1      -2.597  11.447  18.547  0.00  0.00    +0.000 A 
ATOM     11  N   UNL     1      -2.502  12.425  19.680  0.00  0.00    +0.000 N 
ATOM     12  C   UNL     1      -3.745  12.826  20.303  0.00  0.00    +0.000 C 
ATOM     13  O   UNL     1      -4.855  12.342  20.057  0.00  0.00    +0.000 OA
ENDROOT
BRANCH  12  14
ATOM     14  C   UNL     1      -3.899  13.945  21.286  0.00  0.00    +0.000 A 
ATOM     15  C   UNL     1      -3.967  15.265  20.885  0.00  0.00    +0.000 A 
ATOM     16  C   UNL     1      -4.002  16.310  21.814  0.00  0.00    +0.000 A 
ATOM     17  C   UNL     1      -4.251  16.073  23.168  0.00  0.00    +0.000 A 
ATOM     18  C   UNL     1      -4.445  14.730  23.541  0.00  0.00    +0.000 A 
ATOM     19  C   UNL     1      -4.238  13.683  22.622  0.00  0.00    +0.000 A 
BRANCH  17  20
ATOM     20  C   UNL     1      -4.461  17.238  24.149  0.00  0.00    +0.000 C 
ATOM     21  C   UNL     1      -4.253  18.631  23.499  0.00  0.00    +0.000 C 
ATOM     22  C   UNL     1      -5.914  17.173  24.657  0.00  0.00    +0.000 C 
ATOM     23  C   UNL     1      -3.494  17.168  25.350  0.00  0.00    +0.000 C 
ENDBRANCH  17  20
ENDBRANCH  12  14
BRANCH   1  25
ATOM     24  C   UNL     1      -0.588  13.485  22.674  0.00  0.00    +0.000 C 
ATOM     25  C   UNL     1      -0.677  13.743  21.160  0.00  0.00    +0.000 C 
ENDBRANCH   1  25
BRANCH   4  26
ATOM     26  N   UNL     1       0.214   9.878  19.524  0.00  0.00    +0.000 N 
ATOM     27  H   UNL     1      -0.357   9.836  20.362  0.00  0.00    +0.000 HD
BRANCH  26  28
ATOM     28  C   UNL     1       1.151   8.875  19.352  0.00  0.00    +0.000 A 
ATOM     29  C   UNL     1       1.780   8.743  18.104  0.00  0.00    +0.000 A 
ATOM     30  C   UNL     1       2.679   7.701  17.839  0.00  0.00    +0.000 A 
ATOM     31  C   UNL     1       2.966   6.763  18.823  0.00  0.00    +0.000 A 
ATOM     32  C   UNL     1       2.344   6.862  20.062  0.00  0.00    +0.000 A 
ATOM     33  C   UNL     1       1.440   7.901  20.315  0.00  0.00    +0.000 A 
ENDBRANCH  26  28
ENDBRANCH   4  26
TORSDOF 5
ENDMDL
MODEL 2
REMARK VINA RESULT:      -6.6      1.150      1.893
REMARK  Name = 
REMARK  10 active torsions:
REMARK  status: ('A' for Active; 'I' for Inactive)
REMARK    1  A    between atoms: C_1  and  C_2
REMARK    2  A    between atoms: C_2  and  C_3
REMARK    3  A    between atoms: C_4  and  C_5
REMARK    4  A    between atoms: C_6  and  N_7
REMARK    5  A    between atoms: N_7  and  C_8
REMARK    6  A    between atoms: C_21  and  C_23
REMARK    7  A    between atoms: C_26  and  C_27
REMARK    8  A    between atoms: C_27  and  C_28
REMARK    9  A    between atoms: C_27  and  C_29
REMARK   10  A    between atoms: C_27  and  C_30
REMARK                            x       y       z     vdW  Elec       q    Type
REMARK                         _______ _______ _______ _____ _____    ______ ____
ROOT
ATOM      1  C   UNL     1      -0.324  12.582  20.425  0.00  0.00    +0.000 C 
ATOM      2  C   UNL     1       0.528  12.354  19.136  0.00  0.00    +0.000 C 
ATOM      3  C   UNL     1       2.064  12.516  19.200  0.00  0.00    +0.000 C 
ATOM      4  C   UNL     1       0.222  10.984  18.543  0.00  0.00    +0.000 C 
ATOM      5  C   UNL     1      -1.257  10.885  18.279  0.00  0.00    +0.000 A 
ATOM      6  C   UNL     1      -1.613  10.030  17.210  0.00  0.00    +0.000 A 
ATOM      7  C   UNL     1      -2.936   9.858  16.826  0.00  0.00    +0.000 A 
ATOM      8  C   UNL     1      -3.914  10.522  17.541  0.00  0.00    +0.000 A 
ATOM      9  C   UNL     1      -3.556  11.379  18.600  0.00  0.00    +0.000 A 
ATOM     10  C   UNL     1      -2.224  11.608  19.011  0.00  0.00    +0.000 A 
ATOM     11  N   UNL     1      -1.854  12.570  20.101  0.00  0.00    +0.000 N 
ATOM     12  C   UNL     1      -2.926  13.028  20.958  0.00  0.00    +0.000 C 
ATOM     13  O   UNL     1      -4.087  12.604  20.938  0.00  0.00    +0.000 OA
ENDROOT
BRANCH  12  14
ATOM     14  C   UNL     1      -2.824  14.146  21.950  0.00  0.00    +0.000 A 
ATOM     15  C   UNL     1      -2.389  13.935  23.244  0.00  0.00    +0.000 A 
ATOM     16  C   UNL     1      -2.399  14.962  24.193  0.00  0.00    +0.000 A 
ATOM     17  C   UNL     1      -2.576  16.297  23.822  0.00  0.00    +0.000 A 
ATOM     18  C   UNL     1      -2.762  16.542  22.449  0.00  0.00    +0.000 A 
ATOM     19  C   UNL     1      -2.917  15.482  21.535  0.00  0.00    +0.000 A 
BRANCH  17  20
ATOM     20  C   UNL     1      -2.412  17.431  24.847  0.00  0.00    +0.000 C 
ATOM     21  C   UNL     1      -3.763  17.993  25.361  0.00  0.00    +0.000 C 
ATOM     22  C   UNL     1      -1.651  16.865  26.061  0.00  0.00    +0.000 C 
ATOM     23  C   UNL     1      -1.633  18.631  24.266  0.00  0.00    +0.000 C 
ENDBRANCH  17  20
ENDBRANCH  12  14
BRANCH   1  25
ATOM     24  C   UNL     1       0.350  15.100  20.397  0.00  0.00    +0.000 C 
ATOM     25  C   UNL     1       0.294  13.781  21.185  0.00  0.00    +0.000 C 
ENDBRANCH   1  25
BRANCH   4  26
ATOM     26  N   UNL     1       0.641   9.889  19.412  0.00  0.00    +0.000 N 
ATOM     27  H   UNL     1       0.261   9.879  20.353  0.00  0.00    +0.000 HD
BRANCH  26  28
ATOM     28  C   UNL     1       1.452   8.827  19.053  0.00  0.00    +0.000 A 
ATOM     29  C   UNL     1       1.683   7.806  19.988  0.00  0.00    +0.000 A 
ATOM     30  C   UNL     1       2.556   6.744  19.717  0.00  0.00    +0.000 A 
ATOM     31  C   UNL     1       3.223   6.684  18.499  0.00  0.00    +0.000 A 
ATOM     32  C   UNL     1       3.024   7.692  17.563  0.00  0.00    +0.000 A 
ATOM     33  C   UNL     1       2.157   8.754  17.845  0.00  0.00    +0.000 A 
ENDBRANCH  26  28
ENDBRANCH   4  26
TORSDOF 5
ENDMDL
MODEL 3
REMARK VINA RESULT:      -6.6      2.319      9.108
REMARK  Name = 
REMARK  10 active torsions:
REMARK  status: ('A' for Active; 'I' for Inactive)
REMARK    1  A    between atoms: C_1  and  C_2
REMARK    2  A    between atoms: C_2  and  C_3
REMARK    3  A    between atoms: C_4  and  C_5
REMARK    4  A    between atoms: C_6  and  N_7
REMARK    5  A    between atoms: N_7  and  C_8
REMARK    6  A    between atoms: C_21  and  C_23
REMARK    7  A    between atoms: C_26  and  C_27
REMARK    8  A    between atoms: C_27  and  C_28
REMARK    9  A    between atoms: C_27  and  C_29
REMARK   10  A    between atoms: C_27  and  C_30
REMARK                            x       y       z     vdW  Elec       q    Type
REMARK                         _______ _______ _______ _____ _____    ______ ____
ROOT
ATOM      1  C   UNL     1      -2.046  10.955  19.602  0.00  0.00    +0.000 C 
ATOM      2  C   UNL     1      -3.048  11.931  18.907  0.00  0.00    +0.000 C 
ATOM      3  C   UNL     1      -4.271  11.360  18.155  0.00  0.00    +0.000 C 
ATOM      4  C   UNL     1      -3.551  12.963  19.910  0.00  0.00    +0.000 C 
ATOM      5  C   UNL     1      -2.369  13.681  20.507  0.00  0.00    +0.000 A 
ATOM      6  C   UNL     1      -2.628  15.009  20.919  0.00  0.00    +0.000 A 
ATOM      7  C   UNL     1      -1.632  15.809  21.461  0.00  0.00    +0.000 A 
ATOM      8  C   UNL     1      -0.373  15.263  21.623  0.00  0.00    +0.000 A 
ATOM      9  C   UNL     1      -0.116  13.944  21.204  0.00  0.00    +0.000 A 
ATOM     10  C   UNL     1      -1.088  13.099  20.622  0.00  0.00    +0.000 A 
ATOM     11  N   UNL     1      -0.785  11.717  20.126  0.00  0.00    +0.000 N 
ATOM     12  C   UNL     1       0.468  11.131  20.551  0.00  0.00    +0.000 C 
ATOM     13  O   UNL     1       1.243  11.625  21.377  0.00  0.00    +0.000 OA
ENDROOT
BRANCH  12  14
ATOM     14  C   UNL     1       1.066   9.873  20.002  0.00  0.00    +0.000 A 
ATOM     15  C   UNL     1       1.677   9.836  18.763  0.00  0.00    +0.000 A 
ATOM     16  C   UNL     1       2.136   8.635  18.211  0.00  0.00    +0.000 A 
ATOM     17  C   UNL     1       2.257   7.477  18.983  0.00  0.00    +0.000 A 
ATOM     18  C   UNL     1       1.876   7.586  20.333  0.00  0.00    +0.000 A 
ATOM     19  C   UNL     1       1.259   8.753  20.824  0.00  0.00    +0.000 A 
BRANCH  17  20
ATOM     20  C   UNL     1       2.925   6.214  18.414  0.00  0.00    +0.000 C 
ATOM     21  C   UNL     1       1.912   5.199  17.824  0.00  0.00    +0.000 C 
ATOM     22  C   UNL     1       3.866   6.649  17.275  0.00  0.00    +0.000 C 
ATOM     23  C   UNL     1       3.733   5.452  19.485  0.00  0.00    +0.000 C 
ENDBRANCH  17  20
ENDBRANCH  12  14
BRANCH   1  25
ATOM     24  C   UNL     1      -1.478  10.048  17.225  0.00  0.00    +0.000 C 
ATOM     25  C   UNL     1      -1.876   9.726  18.676  0.00  0.00    +0.000 C 
ENDBRANCH   1  25
BRANCH   4  26
ATOM     26  N   UNL     1      -4.354  12.370  20.973  0.00  0.00    +0.000 N 
ATOM     27  H   UNL     1      -4.000  11.517  21.394  0.00  0.00    +0.000 HD
BRANCH  26  28
ATOM     28  C   UNL     1      -5.518  12.896  21.506  0.00  0.00    +0.000 A 
ATOM     29  C   UNL     1      -5.590  13.111  22.891  0.00  0.00    +0.000 A 
ATOM     30  C   UNL     1      -6.764  13.566  23.505  0.00  0.00    +0.000 A 
ATOM     31  C   UNL     1      -7.899  13.813  22.741  0.00  0.00    +0.000 A 
ATOM     32  C   UNL     1      -7.858  13.592  21.370  0.00  0.00    +0.000 A 
ATOM     33  C   UNL     1      -6.683  13.128  20.766  0.00  0.00    +0.000 A 
ENDBRANCH  26  28
ENDBRANCH   4  26
TORSDOF 5
ENDMDL
MODEL 4
REMARK VINA RESULT:      -6.5      2.260      9.078
REMARK  Name = 
REMARK  10 active torsions:
REMARK  status: ('A' for Active; 'I' for Inactive)
REMARK    1  A    between atoms: C_1  and  C_2
REMARK    2  A    between atoms: C_2  and  C_3
REMARK    3  A    between atoms: C_4  and  C_5
REMARK    4  A    between atoms: C_6  and  N_7
REMARK    5  A    between atoms: N_7  and  C_8
REMARK    6  A    between atoms: C_21  and  C_23
REMARK    7  A    between atoms: C_26  and  C_27
REMARK    8  A    between atoms: C_27  and  C_28
REMARK    9  A    between atoms: C_27  and  C_29
REMARK   10  A    between atoms: C_27  and  C_30
REMARK                            x       y       z     vdW  Elec       q    Type
REMARK                         _______ _______ _______ _____ _____    ______ ____
ROOT
ATOM      1  C   UNL     1      -2.099  10.945  19.562  0.00  0.00    +0.000 C 
ATOM      2  C   UNL     1      -3.103  11.922  18.870  0.00  0.00    +0.000 C 
ATOM      3  C   UNL     1      -4.304  11.350  18.084  0.00  0.00    +0.000 C 
ATOM      4  C   UNL     1      -3.638  12.925  19.885  0.00  0.00    +0.000 C 
ATOM      5  C   UNL     1      -2.478  13.647  20.517  0.00  0.00    +0.000 A 
ATOM      6  C   UNL     1      -2.763  14.962  20.953  0.00  0.00    +0.000 A 
ATOM      7  C   UNL     1      -1.789  15.764  21.530  0.00  0.00    +0.000 A 
ATOM      8  C   UNL     1      -0.525  15.233  21.702  0.00  0.00    +0.000 A 
ATOM      9  C   UNL     1      -0.241  13.927  21.261  0.00  0.00    +0.000 A 
ATOM     10  C   UNL     1      -1.191  13.081  20.644  0.00  0.00    +0.000 A 
ATOM     11  N   UNL     1      -0.858  11.714  20.124  0.00  0.00    +0.000 N 
ATOM     12  C   UNL     1       0.395  11.137  20.559  0.00  0.00    +0.000 C 
ATOM     13  O   UNL     1       1.149  11.625  21.409  0.00  0.00    +0.000 OA
ENDROOT
BRANCH  12  14
ATOM     14  C   UNL     1       1.021   9.900  19.994  0.00  0.00    +0.000 A 
ATOM     15  C   UNL     1       1.657   9.899  18.768  0.00  0.00    +0.000 A 
ATOM     16  C   UNL     1       2.144   8.717  18.198  0.00  0.00    +0.000 A 
ATOM     17  C   UNL     1       2.265   7.544  18.947  0.00  0.00    +0.000 A 
ATOM     18  C   UNL     1       1.854   7.616  20.291  0.00  0.00    +0.000 A 
ATOM     19  C   UNL     1       1.212   8.764  20.794  0.00  0.00    +0.000 A 
BRANCH  17  20
ATOM     20  C   UNL     1       2.961   6.303  18.364  0.00  0.00    +0.000 C 
ATOM     21  C   UNL     1       3.815   5.534  19.405  0.00  0.00    +0.000 C 
ATOM     22  C   UNL     1       1.868   5.342  17.857  0.00  0.00    +0.000 C 
ATOM     23  C   UNL     1       3.909   6.661  17.200  0.00  0.00    +0.000 C 
ENDBRANCH  17  20
ENDBRANCH  12  14
BRANCH   1  25
ATOM     24  C   UNL     1      -1.501  10.099  17.170  0.00  0.00    +0.000 C 
ATOM     25  C   UNL     1      -1.895   9.740  18.613  0.00  0.00    +0.000 C 
ENDBRANCH   1  25
BRANCH   4  26
ATOM     26  N   UNL     1      -4.451  12.298  20.921  0.00  0.00    +0.000 N 
ATOM     27  H   UNL     1      -4.127  11.406  21.281  0.00  0.00    +0.000 HD
BRANCH  26  28
ATOM     28  C   UNL     1      -5.585  12.835  21.505  0.00  0.00    +0.000 A 
ATOM     29  C   UNL     1      -6.734  13.009  20.717  0.00  0.00    +0.000 A 
ATOM     30  C   UNL     1      -7.888  13.619  21.224  0.00  0.00    +0.000 A 
ATOM     31  C   UNL     1      -7.916  14.073  22.538  0.00  0.00    +0.000 A 
ATOM     32  C   UNL     1      -6.787  13.927  23.333  0.00  0.00    +0.000 A 
ATOM     33  C   UNL     1      -5.634  13.324  22.815  0.00  0.00    +0.000 A 
ENDBRANCH  26  28
ENDBRANCH   4  26
TORSDOF 5
ENDMDL
MODEL 5
REMARK VINA RESULT:      -6.5      2.320      9.111
REMARK  Name = 
REMARK  10 active torsions:
REMARK  status: ('A' for Active; 'I' for Inactive)
REMARK    1  A    between atoms: C_1  and  C_2
REMARK    2  A    between atoms: C_2  and  C_3
REMARK    3  A    between atoms: C_4  and  C_5
REMARK    4  A    between atoms: C_6  and  N_7
REMARK    5  A    between atoms: N_7  and  C_8
REMARK    6  A    between atoms: C_21  and  C_23
REMARK    7  A    between atoms: C_26  and  C_27
REMARK    8  A    between atoms: C_27  and  C_28
REMARK    9  A    between atoms: C_27  and  C_29
REMARK   10  A    between atoms: C_27  and  C_30
REMARK                            x       y       z     vdW  Elec       q    Type
REMARK                         _______ _______ _______ _____ _____    ______ ____
ROOT
ATOM      1  C   UNL     1      -1.942  10.995  19.647  0.00  0.00    +0.000 C 
ATOM      2  C   UNL     1      -2.989  11.930  18.963  0.00  0.00    +0.000 C 
ATOM      3  C   UNL     1      -4.217  11.311  18.258  0.00  0.00    +0.000 C 
ATOM      4  C   UNL     1      -3.492  12.969  19.959  0.00  0.00    +0.000 C 
ATOM      5  C   UNL     1      -2.313  13.730  20.506  0.00  0.00    +0.000 A 
ATOM      6  C   UNL     1      -2.596  15.059  20.900  0.00  0.00    +0.000 A 
ATOM      7  C   UNL     1      -1.607  15.896  21.397  0.00  0.00    +0.000 A 
ATOM      8  C   UNL     1      -0.330  15.388  21.532  0.00  0.00    +0.000 A 
ATOM      9  C   UNL     1      -0.049  14.067  21.132  0.00  0.00    +0.000 A 
ATOM     10  C   UNL     1      -1.014  13.185  20.596  0.00  0.00    +0.000 A 
ATOM     11  N   UNL     1      -0.687  11.801  20.118  0.00  0.00    +0.000 N 
ATOM     12  C   UNL     1       0.593  11.259  20.518  0.00  0.00    +0.000 C 
ATOM     13  O   UNL     1       1.378  11.790  21.311  0.00  0.00    +0.000 OA
ENDROOT
BRANCH  12  14
ATOM     14  C   UNL     1       1.209  10.006  19.976  0.00  0.00    +0.000 A 
ATOM     15  C   UNL     1       1.171   8.813  20.672  0.00  0.00    +0.000 A 
ATOM     16  C   UNL     1       1.841   7.676  20.209  0.00  0.00    +0.000 A 
ATOM     17  C   UNL     1       2.340   7.604  18.907  0.00  0.00    +0.000 A 
ATOM     18  C   UNL     1       2.145   8.740  18.100  0.00  0.00    +0.000 A 
ATOM     19  C   UNL     1       1.621   9.932  18.637  0.00  0.00    +0.000 A 
BRANCH  17  20
ATOM     20  C   UNL     1       2.918   6.291  18.353  0.00  0.00    +0.000 C 
ATOM     21  C   UNL     1       3.955   6.507  17.220  0.00  0.00    +0.000 C 
ATOM     22  C   UNL     1       3.636   5.566  19.509  0.00  0.00    +0.000 C 
ATOM     23  C   UNL     1       1.823   5.372  17.773  0.00  0.00    +0.000 C 
ENDBRANCH  17  20
ENDBRANCH  12  14
BRANCH   1  25
ATOM     24  C   UNL     1      -1.499  10.056  17.256  0.00  0.00    +0.000 C 
ATOM     25  C   UNL     1      -1.765   9.753  18.740  0.00  0.00    +0.000 C 
ENDBRANCH   1  25
BRANCH   4  26
ATOM     26  N   UNL     1      -4.247  12.376  21.057  0.00  0.00    +0.000 N 
ATOM     27  H   UNL     1      -3.818  11.592  21.538  0.00  0.00    +0.000 HD
BRANCH  26  28
ATOM     28  C   UNL     1      -5.462  12.824  21.547  0.00  0.00    +0.000 A 
ATOM     29  C   UNL     1      -5.523  13.306  22.864  0.00  0.00    +0.000 A 
ATOM     30  C   UNL     1      -6.735  13.700  23.447  0.00  0.00    +0.000 A 
ATOM     31  C   UNL     1      -7.917  13.617  22.720  0.00  0.00    +0.000 A 
ATOM     32  C   UNL     1      -7.884  13.128  21.420  0.00  0.00    +0.000 A 
ATOM     33  C   UNL     1      -6.671  12.727  20.848  0.00  0.00    +0.000 A 
ENDBRANCH  26  28
ENDBRANCH   4  26
TORSDOF 5
ENDMDL
MODEL 6
REMARK VINA RESULT:      -6.4      1.560      2.055
REMARK  Name = 
REMARK  10 active torsions:
REMARK  status: ('A' for Active; 'I' for Inactive)
REMARK    1  A    between atoms: C_1  and  C_2
REMARK    2  A    between atoms: C_2  and  C_3
REMARK    3  A    between atoms: C_4  and  C_5
REMARK    4  A    between atoms: C_6  and  N_7
REMARK    5  A    between atoms: N_7  and  C_8
REMARK    6  A    between atoms: C_21  and  C_23
REMARK    7  A    between atoms: C_26  and  C_27
REMARK    8  A    between atoms: C_27  and  C_28
REMARK    9  A    between atoms: C_27  and  C_29
REMARK   10  A    between atoms: C_27  and  C_30
REMARK                            x       y       z     vdW  Elec       q    Type
REMARK                         _______ _______ _______ _____ _____    ______ ____
ROOT
ATOM      1  C   UNL     1       0.079  12.621  20.310  0.00  0.00    +0.000 C 
ATOM      2  C   UNL     1       0.770  12.296  18.947  0.00  0.00    +0.000 C 
ATOM      3  C   UNL     1       2.310  12.354  18.841  0.00  0.00    +0.000 C 
ATOM      4  C   UNL     1       0.313  10.931  18.444  0.00  0.00    +0.000 C 
ATOM      5  C   UNL     1      -1.190  10.926  18.342  0.00  0.00    +0.000 A 
ATOM      6  C   UNL     1      -1.714  10.065  17.350  0.00  0.00    +0.000 A 
ATOM      7  C   UNL     1      -3.079   9.972  17.116  0.00  0.00    +0.000 A 
ATOM      8  C   UNL     1      -3.928  10.723  17.905  0.00  0.00    +0.000 A 
ATOM      9  C   UNL     1      -3.403  11.586  18.886  0.00  0.00    +0.000 A 
ATOM     10  C   UNL     1      -2.022  11.736  19.144  0.00  0.00    +0.000 A 
ATOM     11  N   UNL     1      -1.475  12.704  20.151  0.00  0.00    +0.000 N 
ATOM     12  C   UNL     1      -2.415  13.261  21.099  0.00  0.00    +0.000 C 
ATOM     13  O   UNL     1      -3.596  12.917  21.220  0.00  0.00    +0.000 OA
ENDROOT
BRANCH  12  14
ATOM     14  C   UNL     1      -2.133  14.399  22.031  0.00  0.00    +0.000 A 
ATOM     15  C   UNL     1      -2.422  15.707  21.694  0.00  0.00    +0.000 A 
ATOM     16  C   UNL     1      -2.057  16.772  22.523  0.00  0.00    +0.000 A 
ATOM     17  C   UNL     1      -1.644  16.562  23.841  0.00  0.00    +0.000 A 
ATOM     18  C   UNL     1      -1.600  15.223  24.274  0.00  0.00    +0.000 A 
ATOM     19  C   UNL     1      -1.807  14.160  23.374  0.00  0.00    +0.000 A 
BRANCH  17  20
ATOM     20  C   UNL     1      -1.413  17.744  24.796  0.00  0.00    +0.000 C 
ATOM     21  C   UNL     1      -0.206  18.631  24.394  0.00  0.00    +0.000 C 
ATOM     22  C   UNL     1      -2.673  18.631  24.764  0.00  0.00    +0.000 C 
ATOM     23  C   UNL     1      -1.149  17.280  26.244  0.00  0.00    +0.000 C 
ENDBRANCH  17  20
ENDBRANCH  12  14
BRANCH   1  25
ATOM     24  C   UNL     1       0.830  15.113  20.157  0.00  0.00    +0.000 C 
ATOM     25  C   UNL     1       0.853  13.798  20.954  0.00  0.00    +0.000 C 
ENDBRANCH   1  25
BRANCH   4  26
ATOM     26  N   UNL     1       0.752   9.838  19.304  0.00  0.00    +0.000 N 
ATOM     27  H   UNL     1       0.375   9.817  20.246  0.00  0.00    +0.000 HD
BRANCH  26  28
ATOM     28  C   UNL     1       1.579   8.792  18.935  0.00  0.00    +0.000 A 
ATOM     29  C   UNL     1       1.798   7.749  19.849  0.00  0.00    +0.000 A 
ATOM     30  C   UNL     1       2.685   6.701  19.571  0.00  0.00    +0.000 A 
ATOM     31  C   UNL     1       3.376   6.676  18.365  0.00  0.00    +0.000 A 
ATOM     32  C   UNL     1       3.189   7.705  17.450  0.00  0.00    +0.000 A 
ATOM     33  C   UNL     1       2.308   8.754  17.741  0.00  0.00    +0.000 A 
ENDBRANCH  26  28
ENDBRANCH   4  26
TORSDOF 5
ENDMDL
MODEL 7
REMARK VINA RESULT:      -6.4      2.767      9.524
REMARK  Name = 
REMARK  10 active torsions:
REMARK  status: ('A' for Active; 'I' for Inactive)
REMARK    1  A    between atoms: C_1  and  C_2
REMARK    2  A    between atoms: C_2  and  C_3
REMARK    3  A    between atoms: C_4  and  C_5
REMARK    4  A    between atoms: C_6  and  N_7
REMARK    5  A    between atoms: N_7  and  C_8
REMARK    6  A    between atoms: C_21  and  C_23
REMARK    7  A    between atoms: C_26  and  C_27
REMARK    8  A    between atoms: C_27  and  C_28
REMARK    9  A    between atoms: C_27  and  C_29
REMARK   10  A    between atoms: C_27  and  C_30
REMARK                            x       y       z     vdW  Elec       q    Type
REMARK                         _______ _______ _______ _____ _____    ______ ____
ROOT
ATOM      1  C   UNL     1       0.960   9.406  20.713  0.00  0.00    +0.000 C 
ATOM      2  C   UNL     1      -0.217   9.647  21.710  0.00  0.00    +0.000 C 
ATOM      3  C   UNL     1       0.033   9.518  23.230  0.00  0.00    +0.000 C 
ATOM      4  C   UNL     1      -0.851  11.008  21.450  0.00  0.00    +0.000 C 
ATOM      5  C   UNL     1      -1.293  11.075  20.012  0.00  0.00    +0.000 A 
ATOM      6  C   UNL     1      -2.403  11.918  19.771  0.00  0.00    +0.000 A 
ATOM      7  C   UNL     1      -2.945  12.061  18.501  0.00  0.00    +0.000 A 
ATOM      8  C   UNL     1      -2.350  11.379  17.458  0.00  0.00    +0.000 A 
ATOM      9  C   UNL     1      -1.250  10.534  17.702  0.00  0.00    +0.000 A 
ATOM     10  C   UNL     1      -0.679  10.334  18.979  0.00  0.00    +0.000 A 
ATOM     11  N   UNL     1       0.453   9.384  19.233  0.00  0.00    +0.000 N 
ATOM     12  C   UNL     1       1.177   8.907  18.075  0.00  0.00    +0.000 C 
ATOM     13  O   UNL     1       1.015   9.306  16.917  0.00  0.00    +0.000 OA
ENDROOT
BRANCH  12  14
ATOM     14  C   UNL     1       2.181   7.796  18.079  0.00  0.00    +0.000 A 
ATOM     15  C   UNL     1       1.804   6.472  18.188  0.00  0.00    +0.000 A 
ATOM     16  C   UNL     1       2.751   5.449  18.301  0.00  0.00    +0.000 A 
ATOM     17  C   UNL     1       4.103   5.675  18.030  0.00  0.00    +0.000 A 
ATOM     18  C   UNL     1       4.454   6.986  17.658  0.00  0.00    +0.000 A 
ATOM     19  C   UNL     1       3.515   8.035  17.717  0.00  0.00    +0.000 A 
BRANCH  17  20
ATOM     20  C   UNL     1       5.106   4.511  17.986  0.00  0.00    +0.000 C 
ATOM     21  C   UNL     1       6.560   4.941  18.314  0.00  0.00    +0.000 C 
ATOM     22  C   UNL     1       4.676   3.476  19.044  0.00  0.00    +0.000 C 
ATOM     23  C   UNL     1       5.154   3.837  16.598  0.00  0.00    +0.000 C 
ENDBRANCH  17  20
ENDBRANCH  12  14
BRANCH   1  25
ATOM     24  C   UNL     1       1.081   6.863  21.273  0.00  0.00    +0.000 C 
ATOM     25  C   UNL     1       1.798   8.223  21.259  0.00  0.00    +0.000 C 
ENDBRANCH   1  25
BRANCH   4  26
ATOM     26  N   UNL     1       0.055  12.115  21.738  0.00  0.00    +0.000 N 
ATOM     27  H   UNL     1       1.017  12.011  21.432  0.00  0.00    +0.000 HD
BRANCH  26  28
ATOM     28  C   UNL     1      -0.289  13.318  22.328  0.00  0.00    +0.000 A 
ATOM     29  C   UNL     1       0.466  14.461  22.023  0.00  0.00    +0.000 A 
ATOM     30  C   UNL     1       0.222  15.693  22.645  0.00  0.00    +0.000 A 
ATOM     31  C   UNL     1      -0.789  15.805  23.593  0.00  0.00    +0.000 A 
ATOM     32  C   UNL     1      -1.540  14.684  23.924  0.00  0.00    +0.000 A 
ATOM     33  C   UNL     1      -1.283  13.455  23.305  0.00  0.00    +0.000 A 
ENDBRANCH  26  28
ENDBRANCH   4  26
TORSDOF 5
ENDMDL
MODEL 8
REMARK VINA RESULT:      -6.3      2.433      9.146
REMARK  Name = 
REMARK  10 active torsions:
REMARK  status: ('A' for Active; 'I' for Inactive)
REMARK    1  A    between atoms: C_1  and  C_2
REMARK    2  A    between atoms: C_2  and  C_3
REMARK    3  A    between atoms: C_4  and  C_5
REMARK    4  A    between atoms: C_6  and  N_7
REMARK    5  A    between atoms: N_7  and  C_8
REMARK    6  A    between atoms: C_21  and  C_23
REMARK    7  A    between atoms: C_26  and  C_27
REMARK    8  A    between atoms: C_27  and  C_28
REMARK    9  A    between atoms: C_27  and  C_29
REMARK   10  A    between atoms: C_27  and  C_30
REMARK                            x       y       z     vdW  Elec       q    Type
REMARK                         _______ _______ _______ _____ _____    ______ ____
ROOT
ATOM      1  C   UNL     1      -1.699  10.926  19.556  0.00  0.00    +0.000 C 
ATOM      2  C   UNL     1      -2.650  11.925  18.822  0.00  0.00    +0.000 C 
ATOM      3  C   UNL     1      -3.895  11.387  18.081  0.00  0.00    +0.000 C 
ATOM      4  C   UNL     1      -3.108  13.013  19.786  0.00  0.00    +0.000 C 
ATOM      5  C   UNL     1      -1.897  13.694  20.365  0.00  0.00    +0.000 A 
ATOM      6  C   UNL     1      -2.094  15.046  20.731  0.00  0.00    +0.000 A 
ATOM      7  C   UNL     1      -1.064  15.816  21.252  0.00  0.00    +0.000 A 
ATOM      8  C   UNL     1       0.167  15.218  21.440  0.00  0.00    +0.000 A 
ATOM      9  C   UNL     1       0.363  13.874  21.068  0.00  0.00    +0.000 A 
ATOM     10  C   UNL     1      -0.646  13.057  20.509  0.00  0.00    +0.000 A 
ATOM     11  N   UNL     1      -0.405  11.645  20.061  0.00  0.00    +0.000 N 
ATOM     12  C   UNL     1       0.816  11.016  20.515  0.00  0.00    +0.000 C 
ATOM     13  O   UNL     1       1.610  11.501  21.328  0.00  0.00    +0.000 OA
ENDROOT
BRANCH  12  14
ATOM     14  C   UNL     1       1.356   9.713  20.012  0.00  0.00    +0.000 A 
ATOM     15  C   UNL     1       1.278   8.554  20.759  0.00  0.00    +0.000 A 
ATOM     16  C   UNL     1       1.880   7.366  20.329  0.00  0.00    +0.000 A 
ATOM     17  C   UNL     1       2.341   7.215  19.019  0.00  0.00    +0.000 A 
ATOM     18  C   UNL     1       2.181   8.326  18.170  0.00  0.00    +0.000 A 
ATOM     19  C   UNL     1       1.729   9.563  18.668  0.00  0.00    +0.000 A 
BRANCH  17  20
ATOM     20  C   UNL     1       2.840   5.853  18.509  0.00  0.00    +0.000 C 
ATOM     21  C   UNL     1       1.715   4.977  17.900  0.00  0.00    +0.000 C 
ATOM     22  C   UNL     1       3.877   6.115  17.400  0.00  0.00    +0.000 C 
ATOM     23  C   UNL     1       3.488   5.014  19.630  0.00  0.00    +0.000 C 
ENDBRANCH  17  20
ENDBRANCH  12  14
BRANCH   1  25
ATOM     24  C   UNL     1      -1.352   9.923  17.175  0.00  0.00    +0.000 C 
ATOM     25  C   UNL     1      -1.583   9.660  18.673  0.00  0.00    +0.000 C 
ENDBRANCH   1  25
BRANCH   4  26
ATOM     26  N   UNL     1      -3.944  12.495  20.863  0.00  0.00    +0.000 N 
ATOM     27  H   UNL     1      -3.528  11.797  21.471  0.00  0.00    +0.000 HD
BRANCH  26  28
ATOM     28  C   UNL     1      -5.226  12.915  21.175  0.00  0.00    +0.000 A 
ATOM     29  C   UNL     1      -6.284  12.001  21.054  0.00  0.00    +0.000 A 
ATOM     30  C   UNL     1      -7.614  12.381  21.277  0.00  0.00    +0.000 A 
ATOM     31  C   UNL     1      -7.913  13.693  21.626  0.00  0.00    +0.000 A 
ATOM     32  C   UNL     1      -6.884  14.621  21.737  0.00  0.00    +0.000 A 
ATOM     33  C   UNL     1      -5.559  14.234  21.503  0.00  0.00    +0.000 A 
ENDBRANCH  26  28
ENDBRANCH   4  26
TORSDOF 5
ENDMDL
MODEL 9
REMARK VINA RESULT:      -6.3      2.704      9.535
REMARK  Name = 
REMARK  10 active torsions:
REMARK  status: ('A' for Active; 'I' for Inactive)
REMARK    1  A    between atoms: C_1  and  C_2
REMARK    2  A    between atoms: C_2  and  C_3
REMARK    3  A    between atoms: C_4  and  C_5
REMARK    4  A    between atoms: C_6  and  N_7
REMARK    5  A    between atoms: N_7  and  C_8
REMARK    6  A    between atoms: C_21  and  C_23
REMARK    7  A    between atoms: C_26  and  C_27
REMARK    8  A    between atoms: C_27  and  C_28
REMARK    9  A    between atoms: C_27  and  C_29
REMARK   10  A    between atoms: C_27  and  C_30
REMARK                            x       y       z     vdW  Elec       q    Type
REMARK                         _______ _______ _______ _____ _____    ______ ____
ROOT
ATOM      1  C   UNL     1       0.929   9.464  20.707  0.00  0.00    +0.000 C 
ATOM      2  C   UNL     1      -0.245   9.718  21.706  0.00  0.00    +0.000 C 
ATOM      3  C   UNL     1       0.011   9.613  23.226  0.00  0.00    +0.000 C 
ATOM      4  C   UNL     1      -0.884  11.074  21.427  0.00  0.00    +0.000 C 
ATOM      5  C   UNL     1      -1.332  11.116  19.990  0.00  0.00    +0.000 A 
ATOM      6  C   UNL     1      -2.445  11.953  19.740  0.00  0.00    +0.000 A 
ATOM      7  C   UNL     1      -2.992  12.074  18.470  0.00  0.00    +0.000 A 
ATOM      8  C   UNL     1      -2.400  11.377  17.435  0.00  0.00    +0.000 A 
ATOM      9  C   UNL     1      -1.297  10.539  17.688  0.00  0.00    +0.000 A 
ATOM     10  C   UNL     1      -0.720  10.361  18.966  0.00  0.00    +0.000 A 
ATOM     11  N   UNL     1       0.416   9.418  19.230  0.00  0.00    +0.000 N 
ATOM     12  C   UNL     1       1.136   8.924  18.077  0.00  0.00    +0.000 C 
ATOM     13  O   UNL     1       0.968   9.305  16.913  0.00  0.00    +0.000 OA
ENDROOT
BRANCH  12  14
ATOM     14  C   UNL     1       2.143   7.816  18.095  0.00  0.00    +0.000 A 
ATOM     15  C   UNL     1       1.768   6.490  18.191  0.00  0.00    +0.000 A 
ATOM     16  C   UNL     1       2.716   5.469  18.316  0.00  0.00    +0.000 A 
ATOM     17  C   UNL     1       4.072   5.701  18.071  0.00  0.00    +0.000 A 
ATOM     18  C   UNL     1       4.425   7.014  17.711  0.00  0.00    +0.000 A 
ATOM     19  C   UNL     1       3.482   8.060  17.757  0.00  0.00    +0.000 A 
BRANCH  17  20
ATOM     20  C   UNL     1       5.079   4.539  18.040  0.00  0.00    +0.000 C 
ATOM     21  C   UNL     1       5.340   3.992  16.612  0.00  0.00    +0.000 C 
ATOM     22  C   UNL     1       6.420   5.061  18.592  0.00  0.00    +0.000 C 
ATOM     23  C   UNL     1       4.607   3.338  18.887  0.00  0.00    +0.000 C 
ENDBRANCH  17  20
ENDBRANCH  12  14
BRANCH   1  25
ATOM     24  C   UNL     1       1.055   6.932  21.316  0.00  0.00    +0.000 C 
ATOM     25  C   UNL     1       1.772   8.293  21.268  0.00  0.00    +0.000 C 
ENDBRANCH   1  25
BRANCH   4  26
ATOM     26  N   UNL     1       0.021  12.187  21.693  0.00  0.00    +0.000 N 
ATOM     27  H   UNL     1       0.952  12.127  21.293  0.00  0.00    +0.000 HD
BRANCH  26  28
ATOM     28  C   UNL     1      -0.293  13.345  22.382  0.00  0.00    +0.000 A 
ATOM     29  C   UNL     1      -1.367  13.325  23.286  0.00  0.00    +0.000 A 
ATOM     30  C   UNL     1      -1.787  14.481  23.956  0.00  0.00    +0.000 A 
ATOM     31  C   UNL     1      -1.138  15.690  23.732  0.00  0.00    +0.000 A 
ATOM     32  C   UNL     1      -0.082  15.740  22.830  0.00  0.00    +0.000 A 
ATOM     33  C   UNL     1       0.325  14.581  22.158  0.00  0.00    +0.000 A 
ENDBRANCH  26  28
ENDBRANCH   4  26
TORSDOF 5
ENDMDL
