MODEL 1
REMARK VINA RESULT:      -6.9      0.000      0.000
REMARK  Name = 
REMARK  11 active torsions:
REMARK  status: ('A' for Active; 'I' for Inactive)
REMARK    1  A    between atoms: C_1  and  O_2
REMARK    2  A    between atoms: O_2  and  C_3
REMARK    3  A    between atoms: C_3  and  C_5
REMARK    4  A    between atoms: C_5  and  C_6
REMARK    5  A    between atoms: C_5  and  N_14
REMARK    6  A    between atoms: C_6  and  C_7
REMARK    7  A    between atoms: C_15  and  O_17
REMARK    8  A    between atoms: O_17  and  C_18
REMARK    9  A    between atoms: C_18  and  C_19
REMARK   10  A    between atoms: C_18  and  C_20
REMARK   11  A    between atoms: C_18  and  C_21
REMARK                            x       y       z     vdW  Elec       q    Type
REMARK                         _______ _______ _______ _____ _____    ______ ____
ROOT
ATOM      1  C   UNL     1       6.098   4.670  17.096  0.00  0.00    +0.000 C 
ENDROOT
BRANCH   1   2
ATOM      2  N   UNL     1       6.178   3.750  15.958  0.00  0.00    +0.000 N 
ATOM      3  C   UNL     1       6.382   4.215  14.700  0.00  0.00    +0.000 C 
ATOM      4  O   UNL     1       6.496   5.404  14.442  0.00  0.00    +0.000 OA
ATOM      5  H   UNL     1       6.088   2.758  16.114  0.00  0.00    +0.000 HD
BRANCH   3   6
ATOM      6  O   UNL     1       6.434   3.201  13.805  0.00  0.00    +0.000 OA
BRANCH   6   7
ATOM      7  C   UNL     1       6.273   3.515  12.395  0.00  0.00    +0.000 C 
ATOM      8  C   UNL     1       7.209   4.657  11.973  0.00  0.00    +0.000 C 
ATOM      9  C   UNL     1       6.683   2.252  11.620  0.00  0.00    +0.000 C 
ATOM     10  C   UNL     1       4.804   3.812  12.058  0.00  0.00    +0.000 C 
ENDBRANCH   6   7
ENDBRANCH   3   6
ENDBRANCH   1   2
BRANCH   1  11
ATOM     11  C   UNL     1       7.442   4.928  17.781  0.00  0.00    +0.000 C 
ATOM     12  O   UNL     1       8.362   4.120  17.795  0.00  0.00    +0.000 OA
BRANCH  11  14
ATOM     13  C   UNL     1       7.407   7.254  17.534  0.00  0.00    +0.000 C 
ATOM     14  O   UNL     1       7.456   6.137  18.417  0.00  0.00    +0.000 OA
ENDBRANCH  11  14
ENDBRANCH   1  11
BRANCH   1  15
ATOM     15  C   UNL     1       5.022   4.250  18.107  0.00  0.00    +0.000 C 
BRANCH  15  16
ATOM     16  C   UNL     1       4.019   5.312  18.404  0.00  0.00    +0.000 A 
ATOM     17  N   UNL     1       3.911   6.435  17.604  0.00  0.00    +0.000 NA
ATOM     18  C   UNL     1       2.953   7.142  18.146  0.00  0.00    +0.000 A 
ATOM     19 CL   UNL     1       2.368   8.646  17.638  0.00  0.00    +0.000 Cl
ATOM     20  N   UNL     1       2.418   6.559  19.251  0.00  0.00    +0.000 N 
ATOM     21  C   UNL     1       3.096   5.390  19.419  0.00  0.00    +0.000 A 
ATOM     22 CL   UNL     1       2.693   4.396  20.725  0.00  0.00    +0.000 Cl
ATOM     23  H   UNL     1       1.678   6.927  19.827  0.00  0.00    +0.000 HD
ENDBRANCH  15  16
ENDBRANCH   1  15
TORSDOF 7
ENDMDL
MODEL 2
REMARK VINA RESULT:      -6.8      3.592      6.008
REMARK  Name = 
REMARK  11 active torsions:
REMARK  status: ('A' for Active; 'I' for Inactive)
REMARK    1  A    between atoms: C_1  and  O_2
REMARK    2  A    between atoms: O_2  and  C_3
REMARK    3  A    between atoms: C_3  and  C_5
REMARK    4  A    between atoms: C_5  and  C_6
REMARK    5  A    between atoms: C_5  and  N_14
REMARK    6  A    between atoms: C_6  and  C_7
REMARK    7  A    between atoms: C_15  and  O_17
REMARK    8  A    between atoms: O_17  and  C_18
REMARK    9  A    between atoms: C_18  and  C_19
REMARK   10  A    between atoms: C_18  and  C_20
REMARK   11  A    between atoms: C_18  and  C_21
REMARK                            x       y       z     vdW  Elec       q    Type
REMARK                         _______ _______ _______ _____ _____    ______ ____
ROOT
ATOM      1  C   UNL     1       6.645   4.399  16.494  0.00  0.00    +0.000 C 
ENDROOT
BRANCH   1   2
ATOM      2  N   UNL     1       5.394   3.659  16.686  0.00  0.00    +0.000 N 
ATOM      3  C   UNL     1       4.237   4.310  16.964  0.00  0.00    +0.000 C 
ATOM      4  O   UNL     1       4.169   5.525  17.080  0.00  0.00    +0.000 OA
ATOM      5  H   UNL     1       5.394   2.654  16.605  0.00  0.00    +0.000 HD
BRANCH   3   6
ATOM      6  O   UNL     1       3.205   3.443  17.094  0.00  0.00    +0.000 OA
BRANCH   6   7
ATOM      7  C   UNL     1       2.935   2.882  18.406  0.00  0.00    +0.000 C 
ATOM      8  C   UNL     1       3.452   3.807  19.519  0.00  0.00    +0.000 C 
ATOM      9  C   UNL     1       1.405   2.795  18.533  0.00  0.00    +0.000 C 
ATOM     10  C   UNL     1       3.495   1.457  18.527  0.00  0.00    +0.000 C 
ENDBRANCH   6   7
ENDBRANCH   3   6
ENDBRANCH   1   2
BRANCH   1  11
ATOM     11  C   UNL     1       7.150   5.102  17.756  0.00  0.00    +0.000 C 
ATOM     12  O   UNL     1       7.262   4.548  18.842  0.00  0.00    +0.000 OA
BRANCH  11  14
ATOM     13  C   UNL     1       8.102   7.073  18.583  0.00  0.00    +0.000 C 
ATOM     14  O   UNL     1       7.396   6.426  17.527  0.00  0.00    +0.000 OA
ENDBRANCH  11  14
ENDBRANCH   1  11
BRANCH   1  15
ATOM     15  C   UNL     1       6.571   5.365  15.303  0.00  0.00    +0.000 C 
BRANCH  15  16
ATOM     16  C   UNL     1       6.659   4.697  13.973  0.00  0.00    +0.000 A 
ATOM     17  N   UNL     1       5.801   3.667  13.633  0.00  0.00    +0.000 NA
ATOM     18  C   UNL     1       6.155   3.321  12.422  0.00  0.00    +0.000 A 
ATOM     19 CL   UNL     1       5.494   2.091  11.466  0.00  0.00    +0.000 Cl
ATOM     20  N   UNL     1       7.191   4.056  11.938  0.00  0.00    +0.000 N 
ATOM     21  C   UNL     1       7.515   4.936  12.924  0.00  0.00    +0.000 A 
ATOM     22 CL   UNL     1       8.789   6.017  12.666  0.00  0.00    +0.000 Cl
ATOM     23  H   UNL     1       7.628   3.959  11.035  0.00  0.00    +0.000 HD
ENDBRANCH  15  16
ENDBRANCH   1  15
TORSDOF 7
ENDMDL
MODEL 3
REMARK VINA RESULT:      -6.7      3.519      6.324
REMARK  Name = 
REMARK  11 active torsions:
REMARK  status: ('A' for Active; 'I' for Inactive)
REMARK    1  A    between atoms: C_1  and  O_2
REMARK    2  A    between atoms: O_2  and  C_3
REMARK    3  A    between atoms: C_3  and  C_5
REMARK    4  A    between atoms: C_5  and  C_6
REMARK    5  A    between atoms: C_5  and  N_14
REMARK    6  A    between atoms: C_6  and  C_7
REMARK    7  A    between atoms: C_15  and  O_17
REMARK    8  A    between atoms: O_17  and  C_18
REMARK    9  A    between atoms: C_18  and  C_19
REMARK   10  A    between atoms: C_18  and  C_20
REMARK   11  A    between atoms: C_18  and  C_21
REMARK                            x       y       z     vdW  Elec       q    Type
REMARK                         _______ _______ _______ _____ _____    ______ ____
ROOT
ATOM      1  C   UNL     1       3.727   7.130  17.958  0.00  0.00    +0.000 C 
ENDROOT
BRANCH   1   2
ATOM      2  N   UNL     1       3.347   5.715  18.004  0.00  0.00    +0.000 N 
ATOM      3  C   UNL     1       3.794   4.907  18.998  0.00  0.00    +0.000 C 
ATOM      4  O   UNL     1       4.534   5.296  19.888  0.00  0.00    +0.000 OA
ATOM      5  H   UNL     1       2.740   5.340  17.291  0.00  0.00    +0.000 HD
BRANCH   3   6
ATOM      6  O   UNL     1       3.318   3.647  18.857  0.00  0.00    +0.000 OA
BRANCH   6   7
ATOM      7  C   UNL     1       2.276   3.196  19.763  0.00  0.00    +0.000 C 
ATOM      8  C   UNL     1       1.291   4.331  20.082  0.00  0.00    +0.000 C 
ATOM      9  C   UNL     1       1.505   2.092  19.022  0.00  0.00    +0.000 C 
ATOM     10  C   UNL     1       2.878   2.574  21.032  0.00  0.00    +0.000 C 
ENDBRANCH   6   7
ENDBRANCH   3   6
ENDBRANCH   1   2
BRANCH   1  11
ATOM     11  C   UNL     1       2.560   8.093  18.189  0.00  0.00    +0.000 C 
ATOM     12  O   UNL     1       2.227   8.958  17.389  0.00  0.00    +0.000 OA
BRANCH  11  14
ATOM     13  C   UNL     1       1.265   9.032  19.896  0.00  0.00    +0.000 C 
ATOM     14  O   UNL     1       1.987   7.902  19.414  0.00  0.00    +0.000 OA
ENDBRANCH  11  14
ENDBRANCH   1  11
BRANCH   1  15
ATOM     15  C   UNL     1       4.502   7.481  16.681  0.00  0.00    +0.000 C 
BRANCH  15  16
ATOM     16  C   UNL     1       5.460   6.426  16.242  0.00  0.00    +0.000 A 
ATOM     17  N   UNL     1       5.183   5.620  15.152  0.00  0.00    +0.000 NA
ATOM     18  C   UNL     1       6.215   4.822  15.056  0.00  0.00    +0.000 A 
ATOM     19 CL   UNL     1       6.458   3.583  13.928  0.00  0.00    +0.000 Cl
ATOM     20  N   UNL     1       7.157   5.048  16.009  0.00  0.00    +0.000 N 
ATOM     21  C   UNL     1       6.679   6.072  16.767  0.00  0.00    +0.000 A 
ATOM     22 CL   UNL     1       7.603   6.619  18.073  0.00  0.00    +0.000 Cl
ATOM     23  H   UNL     1       8.025   4.551  16.127  0.00  0.00    +0.000 HD
ENDBRANCH  15  16
ENDBRANCH   1  15
TORSDOF 7
ENDMDL
MODEL 4
REMARK VINA RESULT:      -6.7      3.353      6.350
REMARK  Name = 
REMARK  11 active torsions:
REMARK  status: ('A' for Active; 'I' for Inactive)
REMARK    1  A    between atoms: C_1  and  O_2
REMARK    2  A    between atoms: O_2  and  C_3
REMARK    3  A    between atoms: C_3  and  C_5
REMARK    4  A    between atoms: C_5  and  C_6
REMARK    5  A    between atoms: C_5  and  N_14
REMARK    6  A    between atoms: C_6  and  C_7
REMARK    7  A    between atoms: C_15  and  O_17
REMARK    8  A    between atoms: O_17  and  C_18
REMARK    9  A    between atoms: C_18  and  C_19
REMARK   10  A    between atoms: C_18  and  C_20
REMARK   11  A    between atoms: C_18  and  C_21
REMARK                            x       y       z     vdW  Elec       q    Type
REMARK                         _______ _______ _______ _____ _____    ______ ____
ROOT
ATOM      1  C   UNL     1       5.843   4.903  16.433  0.00  0.00    +0.000 C 
ENDROOT
BRANCH   1   2
ATOM      2  N   UNL     1       4.899   5.280  17.489  0.00  0.00    +0.000 N 
ATOM      3  C   UNL     1       4.767   4.523  18.607  0.00  0.00    +0.000 C 
ATOM      4  O   UNL     1       5.403   3.496  18.792  0.00  0.00    +0.000 OA
ATOM      5  H   UNL     1       4.346   6.117  17.386  0.00  0.00    +0.000 HD
BRANCH   3   6
ATOM      6  O   UNL     1       3.853   5.053  19.454  0.00  0.00    +0.000 OA
BRANCH   6   7
ATOM      7  C   UNL     1       2.597   4.348  19.644  0.00  0.00    +0.000 C 
ATOM      8  C   UNL     1       1.643   5.152  20.540  0.00  0.00    +0.000 C 
ATOM      9  C   UNL     1       1.954   4.226  18.253  0.00  0.00    +0.000 C 
ATOM     10  C   UNL     1       2.835   2.927  20.175  0.00  0.00    +0.000 C 
ENDBRANCH   6   7
ENDBRANCH   3   6
ENDBRANCH   1   2
BRANCH   1  11
ATOM     11  C   UNL     1       7.305   5.203  16.772  0.00  0.00    +0.000 C 
ATOM     12  O   UNL     1       8.076   4.375  17.241  0.00  0.00    +0.000 OA
BRANCH  11  14
ATOM     13  C   UNL     1       7.685   7.305  17.726  0.00  0.00    +0.000 C 
ATOM     14  O   UNL     1       7.614   6.514  16.543  0.00  0.00    +0.000 OA
ENDBRANCH  11  14
ENDBRANCH   1  11
BRANCH   1  15
ATOM     15  C   UNL     1       5.450   5.486  15.069  0.00  0.00    +0.000 C 
BRANCH  15  16
ATOM     16  C   UNL     1       5.927   4.684  13.905  0.00  0.00    +0.000 A 
ATOM     17  N   UNL     1       5.169   3.647  13.395  0.00  0.00    +0.000 NA
ATOM     18  C   UNL     1       5.877   3.171  12.403  0.00  0.00    +0.000 A 
ATOM     19 CL   UNL     1       5.492   1.867  11.395  0.00  0.00    +0.000 Cl
ATOM     20  N   UNL     1       7.053   3.828  12.222  0.00  0.00    +0.000 N 
ATOM     21  C   UNL     1       7.089   4.795  13.179  0.00  0.00    +0.000 A 
ATOM     22 CL   UNL     1       8.436   5.813  13.258  0.00  0.00    +0.000 Cl
ATOM     23  H   UNL     1       7.752   3.628  11.526  0.00  0.00    +0.000 HD
ENDBRANCH  15  16
ENDBRANCH   1  15
TORSDOF 7
ENDMDL
MODEL 5
REMARK VINA RESULT:      -6.6      3.502      6.107
REMARK  Name = 
REMARK  11 active torsions:
REMARK  status: ('A' for Active; 'I' for Inactive)
REMARK    1  A    between atoms: C_1  and  O_2
REMARK    2  A    between atoms: O_2  and  C_3
REMARK    3  A    between atoms: C_3  and  C_5
REMARK    4  A    between atoms: C_5  and  C_6
REMARK    5  A    between atoms: C_5  and  N_14
REMARK    6  A    between atoms: C_6  and  C_7
REMARK    7  A    between atoms: C_15  and  O_17
REMARK    8  A    between atoms: O_17  and  C_18
REMARK    9  A    between atoms: C_18  and  C_19
REMARK   10  A    between atoms: C_18  and  C_20
REMARK   11  A    between atoms: C_18  and  C_21
REMARK                            x       y       z     vdW  Elec       q    Type
REMARK                         _______ _______ _______ _____ _____    ______ ____
ROOT
ATOM      1  C   UNL     1       5.816   4.270  17.018  0.00  0.00    +0.000 C 
ENDROOT
BRANCH   1   2
ATOM      2  N   UNL     1       4.779   4.303  18.054  0.00  0.00    +0.000 N 
ATOM      3  C   UNL     1       3.967   3.236  18.259  0.00  0.00    +0.000 C 
ATOM      4  O   UNL     1       4.039   2.210  17.601  0.00  0.00    +0.000 OA
ATOM      5  H   UNL     1       4.673   5.128  18.624  0.00  0.00    +0.000 HD
BRANCH   3   6
ATOM      6  O   UNL     1       3.091   3.473  19.264  0.00  0.00    +0.000 OA
BRANCH   6   7
ATOM      7  C   UNL     1       1.686   3.635  18.932  0.00  0.00    +0.000 C 
ATOM      8  C   UNL     1       0.994   2.272  18.775  0.00  0.00    +0.000 C 
ATOM      9  C   UNL     1       1.040   4.362  20.124  0.00  0.00    +0.000 C 
ATOM     10  C   UNL     1       1.508   4.524  17.692  0.00  0.00    +0.000 C 
ENDBRANCH   6   7
ENDBRANCH   3   6
ENDBRANCH   1   2
BRANCH   1  11
ATOM     11  C   UNL     1       7.231   4.511  17.550  0.00  0.00    +0.000 C 
ATOM     12  O   UNL     1       8.246   4.196  16.943  0.00  0.00    +0.000 OA
BRANCH  11  14
ATOM     13  C   UNL     1       7.893   6.308  18.895  0.00  0.00    +0.000 C 
ATOM     14  O   UNL     1       7.209   5.061  18.800  0.00  0.00    +0.000 OA
ENDBRANCH  11  14
ENDBRANCH   1  11
BRANCH   1  15
ATOM     15  C   UNL     1       5.491   5.199  15.841  0.00  0.00    +0.000 C 
BRANCH  15  16
ATOM     16  C   UNL     1       5.839   4.633  14.506  0.00  0.00    +0.000 A 
ATOM     17  N   UNL     1       4.981   3.768  13.853  0.00  0.00    +0.000 NA
ATOM     18  C   UNL     1       5.592   3.472  12.734  0.00  0.00    +0.000 A 
ATOM     19 CL   UNL     1       5.058   2.429  11.512  0.00  0.00    +0.000 Cl
ATOM     20  N   UNL     1       6.797   4.087  12.604  0.00  0.00    +0.000 N 
ATOM     21  C   UNL     1       6.958   4.829  13.733  0.00  0.00    +0.000 A 
ATOM     22 CL   UNL     1       8.375   5.734  13.918  0.00  0.00    +0.000 Cl
ATOM     23  H   UNL     1       7.437   3.999  11.831  0.00  0.00    +0.000 HD
ENDBRANCH  15  16
ENDBRANCH   1  15
TORSDOF 7
ENDMDL
MODEL 6
REMARK VINA RESULT:      -6.6      2.954      5.426
REMARK  Name = 
REMARK  11 active torsions:
REMARK  status: ('A' for Active; 'I' for Inactive)
REMARK    1  A    between atoms: C_1  and  O_2
REMARK    2  A    between atoms: O_2  and  C_3
REMARK    3  A    between atoms: C_3  and  C_5
REMARK    4  A    between atoms: C_5  and  C_6
REMARK    5  A    between atoms: C_5  and  N_14
REMARK    6  A    between atoms: C_6  and  C_7
REMARK    7  A    between atoms: C_15  and  O_17
REMARK    8  A    between atoms: O_17  and  C_18
REMARK    9  A    between atoms: C_18  and  C_19
REMARK   10  A    between atoms: C_18  and  C_20
REMARK   11  A    between atoms: C_18  and  C_21
REMARK                            x       y       z     vdW  Elec       q    Type
REMARK                         _______ _______ _______ _____ _____    ______ ____
ROOT
ATOM      1  C   UNL     1       5.817   5.023  15.991  0.00  0.00    +0.000 C 
ENDROOT
BRANCH   1   2
ATOM      2  N   UNL     1       4.648   4.269  16.450  0.00  0.00    +0.000 N 
ATOM      3  C   UNL     1       3.733   4.837  17.274  0.00  0.00    +0.000 C 
ATOM      4  O   UNL     1       3.831   5.984  17.685  0.00  0.00    +0.000 OA
ATOM      5  H   UNL     1       4.520   3.316  16.144  0.00  0.00    +0.000 HD
BRANCH   3   6
ATOM      6  O   UNL     1       2.732   3.973  17.567  0.00  0.00    +0.000 OA
BRANCH   6   7
ATOM      7  C   UNL     1       2.548   3.573  18.951  0.00  0.00    +0.000 C 
ATOM      8  C   UNL     1       1.844   4.676  19.757  0.00  0.00    +0.000 C 
ATOM      9  C   UNL     1       1.628   2.341  18.928  0.00  0.00    +0.000 C 
ATOM     10  C   UNL     1       3.880   3.149  19.587  0.00  0.00    +0.000 C 
ENDBRANCH   6   7
ENDBRANCH   3   6
ENDBRANCH   1   2
BRANCH   1  11
ATOM     11  C   UNL     1       6.165   4.791  14.518  0.00  0.00    +0.000 C 
ATOM     12  O   UNL     1       5.528   4.051  13.780  0.00  0.00    +0.000 OA
BRANCH  11  14
ATOM     13  C   UNL     1       7.777   5.134  12.857  0.00  0.00    +0.000 C 
ATOM     14  O   UNL     1       7.300   5.462  14.160  0.00  0.00    +0.000 OA
ENDBRANCH  11  14
ENDBRANCH   1  11
BRANCH   1  15
ATOM     15  C   UNL     1       7.038   4.811  16.897  0.00  0.00    +0.000 C 
BRANCH  15  16
ATOM     16  C   UNL     1       7.512   6.051  17.577  0.00  0.00    +0.000 A 
ATOM     17  N   UNL     1       7.450   7.279  16.945  0.00  0.00    +0.000 NA
ATOM     18  C   UNL     1       7.942   8.127  17.812  0.00  0.00    +0.000 A 
ATOM     19 CL   UNL     1       8.158   9.794  17.614  0.00  0.00    +0.000 Cl
ATOM     20  N   UNL     1       8.322   7.540  18.977  0.00  0.00    +0.000 N 
ATOM     21  C   UNL     1       8.049   6.215  18.831  0.00  0.00    +0.000 A 
ATOM     22 CL   UNL     1       8.410   5.164  20.105  0.00  0.00    +0.000 Cl
ATOM     23  H   UNL     1       8.730   7.998  19.776  0.00  0.00    +0.000 HD
ENDBRANCH  15  16
ENDBRANCH   1  15
TORSDOF 7
ENDMDL
MODEL 7
REMARK VINA RESULT:      -6.6      1.567      2.212
REMARK  Name = 
REMARK  11 active torsions:
REMARK  status: ('A' for Active; 'I' for Inactive)
REMARK    1  A    between atoms: C_1  and  O_2
REMARK    2  A    between atoms: O_2  and  C_3
REMARK    3  A    between atoms: C_3  and  C_5
REMARK    4  A    between atoms: C_5  and  C_6
REMARK    5  A    between atoms: C_5  and  N_14
REMARK    6  A    between atoms: C_6  and  C_7
REMARK    7  A    between atoms: C_15  and  O_17
REMARK    8  A    between atoms: O_17  and  C_18
REMARK    9  A    between atoms: C_18  and  C_19
REMARK   10  A    between atoms: C_18  and  C_20
REMARK   11  A    between atoms: C_18  and  C_21
REMARK                            x       y       z     vdW  Elec       q    Type
REMARK                         _______ _______ _______ _____ _____    ______ ____
ROOT
ATOM      1  C   UNL     1       6.072   4.530  17.013  0.00  0.00    +0.000 C 
ENDROOT
BRANCH   1   2
ATOM      2  N   UNL     1       6.128   3.590  15.890  0.00  0.00    +0.000 N 
ATOM      3  C   UNL     1       5.860   4.001  14.626  0.00  0.00    +0.000 C 
ATOM      4  O   UNL     1       5.549   5.151  14.353  0.00  0.00    +0.000 OA
ATOM      5  H   UNL     1       6.375   2.628  16.060  0.00  0.00    +0.000 HD
BRANCH   3   6
ATOM      6  O   UNL     1       5.977   2.981  13.743  0.00  0.00    +0.000 OA
BRANCH   6   7
ATOM      7  C   UNL     1       6.025   3.295  12.326  0.00  0.00    +0.000 C 
ATOM      8  C   UNL     1       7.074   4.379  12.034  0.00  0.00    +0.000 C 
ATOM      9  C   UNL     1       6.462   2.006  11.610  0.00  0.00    +0.000 C 
ATOM     10  C   UNL     1       4.634   3.675  11.796  0.00  0.00    +0.000 C 
ENDBRANCH   6   7
ENDBRANCH   3   6
ENDBRANCH   1   2
BRANCH   1  11
ATOM     11  C   UNL     1       7.419   5.175  17.350  0.00  0.00    +0.000 C 
ATOM     12  O   UNL     1       8.216   4.702  18.150  0.00  0.00    +0.000 OA
BRANCH  11  14
ATOM     13  C   UNL     1       7.561   7.502  17.550  0.00  0.00    +0.000 C 
ATOM     14  O   UNL     1       7.585   6.362  16.694  0.00  0.00    +0.000 OA
ENDBRANCH  11  14
ENDBRANCH   1  11
BRANCH   1  15
ATOM     15  C   UNL     1       5.419   3.911  18.257  0.00  0.00    +0.000 C 
BRANCH  15  16
ATOM     16  C   UNL     1       3.931   4.009  18.273  0.00  0.00    +0.000 A 
ATOM     17  N   UNL     1       3.146   2.902  18.541  0.00  0.00    +0.000 NA
ATOM     18  C   UNL     1       1.915   3.340  18.472  0.00  0.00    +0.000 A 
ATOM     19 CL   UNL     1       0.492   2.449  18.679  0.00  0.00    +0.000 Cl
ATOM     20  N   UNL     1       1.835   4.664  18.178  0.00  0.00    +0.000 N 
ATOM     21  C   UNL     1       3.119   5.095  18.051  0.00  0.00    +0.000 A 
ATOM     22 CL   UNL     1       3.400   6.719  17.672  0.00  0.00    +0.000 Cl
ATOM     23  H   UNL     1       0.993   5.207  18.071  0.00  0.00    +0.000 HD
ENDBRANCH  15  16
ENDBRANCH   1  15
TORSDOF 7
ENDMDL
MODEL 8
REMARK VINA RESULT:      -6.6      3.543      6.363
REMARK  Name = 
REMARK  11 active torsions:
REMARK  status: ('A' for Active; 'I' for Inactive)
REMARK    1  A    between atoms: C_1  and  O_2
REMARK    2  A    between atoms: O_2  and  C_3
REMARK    3  A    between atoms: C_3  and  C_5
REMARK    4  A    between atoms: C_5  and  C_6
REMARK    5  A    between atoms: C_5  and  N_14
REMARK    6  A    between atoms: C_6  and  C_7
REMARK    7  A    between atoms: C_15  and  O_17
REMARK    8  A    between atoms: O_17  and  C_18
REMARK    9  A    between atoms: C_18  and  C_19
REMARK   10  A    between atoms: C_18  and  C_20
REMARK   11  A    between atoms: C_18  and  C_21
REMARK                            x       y       z     vdW  Elec       q    Type
REMARK                         _______ _______ _______ _____ _____    ______ ____
ROOT
ATOM      1  C   UNL     1       5.655   4.689  16.378  0.00  0.00    +0.000 C 
ENDROOT
BRANCH   1   2
ATOM      2  N   UNL     1       4.338   4.839  17.004  0.00  0.00    +0.000 N 
ATOM      3  C   UNL     1       3.630   3.754  17.403  0.00  0.00    +0.000 C 
ATOM      4  O   UNL     1       4.031   2.609  17.257  0.00  0.00    +0.000 OA
ATOM      5  H   UNL     1       3.958   5.763  17.145  0.00  0.00    +0.000 HD
BRANCH   3   6
ATOM      6  O   UNL     1       2.451   4.116  17.962  0.00  0.00    +0.000 OA
BRANCH   6   7
ATOM      7  C   UNL     1       2.341   4.104  19.411  0.00  0.00    +0.000 C 
ATOM      8  C   UNL     1       3.467   3.273  20.044  0.00  0.00    +0.000 C 
ATOM      9  C   UNL     1       2.511   5.562  19.870  0.00  0.00    +0.000 C 
ATOM     10  C   UNL     1       0.949   3.634  19.857  0.00  0.00    +0.000 C 
ENDBRANCH   6   7
ENDBRANCH   3   6
ENDBRANCH   1   2
BRANCH   1  11
ATOM     11  C   UNL     1       6.827   4.940  17.330  0.00  0.00    +0.000 C 
ATOM     12  O   UNL     1       7.015   4.300  18.357  0.00  0.00    +0.000 OA
BRANCH  11  14
ATOM     13  C   UNL     1       7.651   7.063  17.864  0.00  0.00    +0.000 C 
ATOM     14  O   UNL     1       7.588   5.997  16.920  0.00  0.00    +0.000 OA
ENDBRANCH  11  14
ENDBRANCH   1  11
BRANCH   1  15
ATOM     15  C   UNL     1       5.786   5.520  15.094  0.00  0.00    +0.000 C 
BRANCH  15  16
ATOM     16  C   UNL     1       6.153   4.722  13.889  0.00  0.00    +0.000 A 
ATOM     17  N   UNL     1       5.354   3.681  13.452  0.00  0.00    +0.000 NA
ATOM     18  C   UNL     1       5.966   3.211  12.395  0.00  0.00    +0.000 A 
ATOM     19 CL   UNL     1       5.493   1.905  11.427  0.00  0.00    +0.000 Cl
ATOM     20  N   UNL     1       7.115   3.874  12.104  0.00  0.00    +0.000 N 
ATOM     21  C   UNL     1       7.238   4.840  13.054  0.00  0.00    +0.000 A 
ATOM     22 CL   UNL     1       8.581   5.865  13.005  0.00  0.00    +0.000 Cl
ATOM     23  H   UNL     1       7.746   3.679  11.342  0.00  0.00    +0.000 HD
ENDBRANCH  15  16
ENDBRANCH   1  15
TORSDOF 7
ENDMDL
MODEL 9
REMARK VINA RESULT:      -6.6      3.379      6.067
REMARK  Name = 
REMARK  11 active torsions:
REMARK  status: ('A' for Active; 'I' for Inactive)
REMARK    1  A    between atoms: C_1  and  O_2
REMARK    2  A    between atoms: O_2  and  C_3
REMARK    3  A    between atoms: C_3  and  C_5
REMARK    4  A    between atoms: C_5  and  C_6
REMARK    5  A    between atoms: C_5  and  N_14
REMARK    6  A    between atoms: C_6  and  C_7
REMARK    7  A    between atoms: C_15  and  O_17
REMARK    8  A    between atoms: O_17  and  C_18
REMARK    9  A    between atoms: C_18  and  C_19
REMARK   10  A    between atoms: C_18  and  C_20
REMARK   11  A    between atoms: C_18  and  C_21
REMARK                            x       y       z     vdW  Elec       q    Type
REMARK                         _______ _______ _______ _____ _____    ______ ____
ROOT
ATOM      1  C   UNL     1       6.299   5.123  16.857  0.00  0.00    +0.000 C 
ENDROOT
BRANCH   1   2
ATOM      2  N   UNL     1       5.043   4.402  17.080  0.00  0.00    +0.000 N 
ATOM      3  C   UNL     1       4.776   3.824  18.278  0.00  0.00    +0.000 C 
ATOM      4  O   UNL     1       5.555   3.856  19.219  0.00  0.00    +0.000 OA
ATOM      5  H   UNL     1       4.366   4.341  16.335  0.00  0.00    +0.000 HD
BRANCH   3   6
ATOM      6  O   UNL     1       3.564   3.220  18.272  0.00  0.00    +0.000 OA
BRANCH   6   7
ATOM      7  C   UNL     1       2.436   3.931  18.849  0.00  0.00    +0.000 C 
ATOM      8  C   UNL     1       2.887   5.247  19.502  0.00  0.00    +0.000 C 
ATOM      9  C   UNL     1       1.498   4.278  17.681  0.00  0.00    +0.000 C 
ATOM     10  C   UNL     1       1.656   3.035  19.823  0.00  0.00    +0.000 C 
ENDBRANCH   6   7
ENDBRANCH   3   6
ENDBRANCH   1   2
BRANCH   1  11
ATOM     11  C   UNL     1       6.110   6.562  16.369  0.00  0.00    +0.000 C 
ATOM     12  O   UNL     1       5.121   6.944  15.755  0.00  0.00    +0.000 OA
BRANCH  11  14
ATOM     13  C   UNL     1       7.657   7.220  17.996  0.00  0.00    +0.000 C 
ATOM     14  O   UNL     1       7.200   7.335  16.651  0.00  0.00    +0.000 OA
ENDBRANCH  11  14
ENDBRANCH   1  11
BRANCH   1  15
ATOM     15  C   UNL     1       7.263   4.345  15.952  0.00  0.00    +0.000 C 
BRANCH  15  16
ATOM     16  C   UNL     1       6.844   4.292  14.522  0.00  0.00    +0.000 A 
ATOM     17  N   UNL     1       5.715   3.594  14.134  0.00  0.00    +0.000 NA
ATOM     18  C   UNL     1       5.651   3.755  12.837  0.00  0.00    +0.000 A 
ATOM     19 CL   UNL     1       4.498   3.116  11.776  0.00  0.00    +0.000 Cl
ATOM     20  N   UNL     1       6.663   4.515  12.342  0.00  0.00    +0.000 N 
ATOM     21  C   UNL     1       7.427   4.860  13.414  0.00  0.00    +0.000 A 
ATOM     22 CL   UNL     1       8.801   5.812  13.162  0.00  0.00    +0.000 Cl
ATOM     23  H   UNL     1       6.814   4.760  11.377  0.00  0.00    +0.000 HD
ENDBRANCH  15  16
ENDBRANCH   1  15
TORSDOF 7
ENDMDL
