MODEL 1
REMARK VINA RESULT:      -8.3      0.000      0.000
REMARK  Name = 
REMARK  8 active torsions:
REMARK  status: ('A' for Active; 'I' for Inactive)
REMARK    1  A    between atoms: C_2  and  O_3
REMARK    2  A    between atoms: C_2  and  C_4
REMARK    3  A    between atoms: C_4  and  N_5
REMARK    4  A    between atoms: C_7  and  C_8
REMARK    5  A    between atoms: C_8  and  C_9
REMARK    6  A    between atoms: C_15  and  O_16
REMARK    7  A    between atoms: O_16  and  C_17
REMARK    8  A    between atoms: C_17  and  C_18
REMARK                            x       y       z     vdW  Elec       q    Type
REMARK                         _______ _______ _______ _____ _____    ______ ____
ROOT
ATOM      1  C   UNL     1       2.782   7.379  17.400  0.00  0.00    +0.000 C 
ENDROOT
BRANCH   1   4
ATOM      2  N   UNL     1       3.308   4.167  19.223  0.00  0.00    +0.000 N 
ATOM      3  N   UNL     1       2.703   5.277  18.678  0.00  0.00    +0.000 NA
ATOM      4  C   UNL     1       3.427   6.165  18.057  0.00  0.00    +0.000 A 
ATOM      5  C   UNL     1       4.907   6.049  17.954  0.00  0.00    +0.000 A 
ATOM      6  C   UNL     1       5.714   7.034  17.362  0.00  0.00    +0.000 A 
ATOM      7  C   UNL     1       7.098   6.863  17.298  0.00  0.00    +0.000 A 
ATOM      8  C   UNL     1       7.687   5.712  17.814  0.00  0.00    +0.000 A 
ATOM      9  C   UNL     1       6.886   4.730  18.414  0.00  0.00    +0.000 A 
ATOM     10  C   UNL     1       5.502   4.910  18.483  0.00  0.00    +0.000 A 
ATOM     11  C   UNL     1       4.667   3.891  19.151  0.00  0.00    +0.000 A 
ATOM     12  O   UNL     1       5.188   2.889  19.635  0.00  0.00    +0.000 OA
BRANCH   2  13
ATOM     13  C   UNL     1       2.432   3.194  19.889  0.00  0.00    +0.000 C 
BRANCH  13  15
ATOM     14  O   UNL     1       1.720   2.766  22.164  0.00  0.00    +0.000 OA
ATOM     15  C   UNL     1       2.145   3.564  21.338  0.00  0.00    +0.000 C 
BRANCH  15  16
ATOM     16  O   UNL     1       2.339   4.871  21.634  0.00  0.00    +0.000 OA
ATOM     17  H   UNL     1       2.957   4.957  22.389  0.00  0.00    +0.000 HD
ENDBRANCH  15  16
ENDBRANCH  13  15
ENDBRANCH   2  13
ENDBRANCH   1   4
BRANCH   1  18
ATOM     18  C   UNL     1       2.075   8.322  18.310  0.00  0.00    +0.000 A 
ATOM     19  N   UNL     1       1.565   9.470  17.919  0.00  0.00    +0.000 NA
ATOM     20  C   UNL     1       1.074  10.063  19.047  0.00  0.00    +0.000 A 
ATOM     21  C   UNL     1       0.622  11.371  19.213  0.00  0.00    +0.000 A 
ATOM     22  C   UNL     1       0.273  11.777  20.501  0.00  0.00    +0.000 A 
ATOM     23 CL   UNL     1       0.024  13.473  20.754  0.00  0.00    +0.000 Cl
ATOM     24  C   UNL     1       0.217  10.869  21.578  0.00  0.00    +0.000 A 
ATOM     25  C   UNL     1       0.619   9.534  21.402  0.00  0.00    +0.000 A 
ATOM     26  C   UNL     1       1.127   9.200  20.135  0.00  0.00    +0.000 A 
ATOM     27  N   UNL     1       1.822   8.112  19.649  0.00  0.00    +0.000 N 
ATOM     28  H   UNL     1       2.219   7.368  20.208  0.00  0.00    +0.000 HD
BRANCH  24  29
ATOM     29  O   UNL     1      -0.244  11.400  22.751  0.00  0.00    +0.000 OA
BRANCH  29  30
ATOM     30  C   UNL     1      -1.549  11.066  23.212  0.00  0.00    +0.000 C 
BRANCH  30  31
ATOM     31  C   UNL     1      -2.362  12.353  23.287  0.00  0.00    +0.000 C 
ATOM     32  F   UNL     1      -1.554  13.394  23.617  0.00  0.00    +0.000 F 
ATOM     33  F   UNL     1      -2.876  12.642  22.064  0.00  0.00    +0.000 F 
ENDBRANCH  30  31
ENDBRANCH  29  30
ENDBRANCH  24  29
ENDBRANCH   1  18
TORSDOF 8
ENDMDL
MODEL 2
REMARK VINA RESULT:      -8.2      1.014      1.218
REMARK  Name = 
REMARK  8 active torsions:
REMARK  status: ('A' for Active; 'I' for Inactive)
REMARK    1  A    between atoms: C_2  and  O_3
REMARK    2  A    between atoms: C_2  and  C_4
REMARK    3  A    between atoms: C_4  and  N_5
REMARK    4  A    between atoms: C_7  and  C_8
REMARK    5  A    between atoms: C_8  and  C_9
REMARK    6  A    between atoms: C_15  and  O_16
REMARK    7  A    between atoms: O_16  and  C_17
REMARK    8  A    between atoms: C_17  and  C_18
REMARK                            x       y       z     vdW  Elec       q    Type
REMARK                         _______ _______ _______ _____ _____    ______ ____
ROOT
ATOM      1  C   UNL     1       2.769   7.342  17.396  0.00  0.00    +0.000 C 
ENDROOT
BRANCH   1   4
ATOM      2  N   UNL     1       3.246   4.120  19.215  0.00  0.00    +0.000 N 
ATOM      3  N   UNL     1       2.655   5.232  18.657  0.00  0.00    +0.000 NA
ATOM      4  C   UNL     1       3.396   6.126  18.066  0.00  0.00    +0.000 A 
ATOM      5  C   UNL     1       4.879   6.016  18.010  0.00  0.00    +0.000 A 
ATOM      6  C   UNL     1       5.701   7.007  17.451  0.00  0.00    +0.000 A 
ATOM      7  C   UNL     1       7.087   6.841  17.431  0.00  0.00    +0.000 A 
ATOM      8  C   UNL     1       7.663   5.689  17.959  0.00  0.00    +0.000 A 
ATOM      9  C   UNL     1       6.847   4.700  18.526  0.00  0.00    +0.000 A 
ATOM     10  C   UNL     1       5.460   4.875  18.551  0.00  0.00    +0.000 A 
ATOM     11  C   UNL     1       4.607   3.849  19.185  0.00  0.00    +0.000 A 
ATOM     12  O   UNL     1       5.116   2.846  19.679  0.00  0.00    +0.000 OA
BRANCH   2  13
ATOM     13  C   UNL     1       2.352   3.140  19.846  0.00  0.00    +0.000 C 
BRANCH  13  15
ATOM     14  O   UNL     1       0.319   2.288  18.842  0.00  0.00    +0.000 OA
ATOM     15  C   UNL     1       1.542   2.351  18.826  0.00  0.00    +0.000 C 
BRANCH  15  16
ATOM     16  O   UNL     1       2.285   1.664  17.926  0.00  0.00    +0.000 OA
ATOM     17  H   UNL     1       2.873   2.277  17.438  0.00  0.00    +0.000 HD
ENDBRANCH  15  16
ENDBRANCH  13  15
ENDBRANCH   2  13
ENDBRANCH   1   4
BRANCH   1  18
ATOM     18  C   UNL     1       2.062   8.297  18.294  0.00  0.00    +0.000 A 
ATOM     19  N   UNL     1       1.537   9.432  17.885  0.00  0.00    +0.000 NA
ATOM     20  C   UNL     1       1.051  10.043  19.005  0.00  0.00    +0.000 A 
ATOM     21  C   UNL     1       0.588  11.349  19.149  0.00  0.00    +0.000 A 
ATOM     22  C   UNL     1       0.249  11.779  20.432  0.00  0.00    +0.000 A 
ATOM     23 CL   UNL     1      -0.014  13.478  20.653  0.00  0.00    +0.000 Cl
ATOM     24  C   UNL     1       0.213  10.893  21.528  0.00  0.00    +0.000 A 
ATOM     25  C   UNL     1       0.626   9.559  21.376  0.00  0.00    +0.000 A 
ATOM     26  C   UNL     1       1.124   9.203  20.110  0.00  0.00    +0.000 A 
ATOM     27  N   UNL     1       1.824   8.112  19.640  0.00  0.00    +0.000 N 
ATOM     28  H   UNL     1       2.235   7.384  20.209  0.00  0.00    +0.000 HD
BRANCH  24  29
ATOM     29  O   UNL     1      -0.241  11.443  22.695  0.00  0.00    +0.000 OA
BRANCH  29  30
ATOM     30  C   UNL     1      -1.471  10.994  23.255  0.00  0.00    +0.000 C 
BRANCH  30  31
ATOM     31  C   UNL     1      -2.476  12.135  23.151  0.00  0.00    +0.000 C 
ATOM     32  F   UNL     1      -1.877  13.313  23.466  0.00  0.00    +0.000 F 
ATOM     33  F   UNL     1      -2.901  12.255  21.867  0.00  0.00    +0.000 F 
ENDBRANCH  30  31
ENDBRANCH  29  30
ENDBRANCH  24  29
ENDBRANCH   1  18
TORSDOF 8
ENDMDL
MODEL 3
REMARK VINA RESULT:      -8.0      4.026      7.958
REMARK  Name = 
REMARK  8 active torsions:
REMARK  status: ('A' for Active; 'I' for Inactive)
REMARK    1  A    between atoms: C_2  and  O_3
REMARK    2  A    between atoms: C_2  and  C_4
REMARK    3  A    between atoms: C_4  and  N_5
REMARK    4  A    between atoms: C_7  and  C_8
REMARK    5  A    between atoms: C_8  and  C_9
REMARK    6  A    between atoms: C_15  and  O_16
REMARK    7  A    between atoms: O_16  and  C_17
REMARK    8  A    between atoms: C_17  and  C_18
REMARK                            x       y       z     vdW  Elec       q    Type
REMARK                         _______ _______ _______ _____ _____    ______ ____
ROOT
ATOM      1  C   UNL     1       1.386  10.359  17.982  0.00  0.00    +0.000 C 
ENDROOT
BRANCH   1   4
ATOM      2  N   UNL     1       0.075  11.628  21.235  0.00  0.00    +0.000 N 
ATOM      3  N   UNL     1       0.318  10.814  20.152  0.00  0.00    +0.000 NA
ATOM      4  C   UNL     1       1.058  11.251  19.172  0.00  0.00    +0.000 A 
ATOM      5  C   UNL     1       1.619  12.629  19.156  0.00  0.00    +0.000 A 
ATOM      6  C   UNL     1       2.349  13.148  18.074  0.00  0.00    +0.000 A 
ATOM      7  C   UNL     1       2.849  14.450  18.124  0.00  0.00    +0.000 A 
ATOM      8  C   UNL     1       2.632  15.243  19.247  0.00  0.00    +0.000 A 
ATOM      9  C   UNL     1       1.896  14.732  20.326  0.00  0.00    +0.000 A 
ATOM     10  C   UNL     1       1.391  13.430  20.268  0.00  0.00    +0.000 A 
ATOM     11  C   UNL     1       0.583  12.911  21.391  0.00  0.00    +0.000 A 
ATOM     12  O   UNL     1       0.364  13.619  22.371  0.00  0.00    +0.000 OA
BRANCH   2  13
ATOM     13  C   UNL     1      -0.747  11.066  22.315  0.00  0.00    +0.000 C 
BRANCH  13  15
ATOM     14  O   UNL     1       0.377   9.632  23.911  0.00  0.00    +0.000 OA
ATOM     15  C   UNL     1      -0.200   9.744  22.836  0.00  0.00    +0.000 C 
BRANCH  15  16
ATOM     16  O   UNL     1      -0.344   8.701  21.985  0.00  0.00    +0.000 OA
ATOM     17  H   UNL     1      -0.913   8.014  22.388  0.00  0.00    +0.000 HD
ENDBRANCH  15  16
ENDBRANCH  13  15
ENDBRANCH   2  13
ENDBRANCH   1   4
BRANCH   1  18
ATOM     18  C   UNL     1       1.930   9.009  18.301  0.00  0.00    +0.000 A 
ATOM     19  N   UNL     1       2.714   8.328  17.494  0.00  0.00    +0.000 NA
ATOM     20  C   UNL     1       2.932   7.129  18.111  0.00  0.00    +0.000 A 
ATOM     21  C   UNL     1       3.519   5.979  17.588  0.00  0.00    +0.000 A 
ATOM     22  C   UNL     1       3.525   4.834  18.385  0.00  0.00    +0.000 A 
ATOM     23 CL   UNL     1       3.958   3.340  17.620  0.00  0.00    +0.000 Cl
ATOM     24  C   UNL     1       3.105   4.863  19.730  0.00  0.00    +0.000 A 
ATOM     25  C   UNL     1       2.563   6.037  20.280  0.00  0.00    +0.000 A 
ATOM     26  C   UNL     1       2.413   7.123  19.401  0.00  0.00    +0.000 A 
ATOM     27  N   UNL     1       1.730   8.319  19.478  0.00  0.00    +0.000 N 
ATOM     28  H   UNL     1       1.067   8.573  20.198  0.00  0.00    +0.000 HD
BRANCH  24  29
ATOM     29  O   UNL     1       3.270   3.686  20.407  0.00  0.00    +0.000 OA
BRANCH  29  30
ATOM     30  C   UNL     1       2.314   3.295  21.388  0.00  0.00    +0.000 C 
BRANCH  30  31
ATOM     31  C   UNL     1       1.149   2.630  20.666  0.00  0.00    +0.000 C 
ATOM     32  F   UNL     1       0.339   3.575  20.120  0.00  0.00    +0.000 F 
ATOM     33  F   UNL     1       1.617   1.885  19.631  0.00  0.00    +0.000 F 
ENDBRANCH  30  31
ENDBRANCH  29  30
ENDBRANCH  24  29
ENDBRANCH   1  18
TORSDOF 8
ENDMDL
MODEL 4
REMARK VINA RESULT:      -8.0      1.835      3.545
REMARK  Name = 
REMARK  8 active torsions:
REMARK  status: ('A' for Active; 'I' for Inactive)
REMARK    1  A    between atoms: C_2  and  O_3
REMARK    2  A    between atoms: C_2  and  C_4
REMARK    3  A    between atoms: C_4  and  N_5
REMARK    4  A    between atoms: C_7  and  C_8
REMARK    5  A    between atoms: C_8  and  C_9
REMARK    6  A    between atoms: C_15  and  O_16
REMARK    7  A    between atoms: O_16  and  C_17
REMARK    8  A    between atoms: C_17  and  C_18
REMARK                            x       y       z     vdW  Elec       q    Type
REMARK                         _______ _______ _______ _____ _____    ______ ____
ROOT
ATOM      1  C   UNL     1       2.852   7.458  17.148  0.00  0.00    +0.000 C 
ENDROOT
BRANCH   1   4
ATOM      2  N   UNL     1       5.690   5.512  18.588  0.00  0.00    +0.000 N 
ATOM      3  N   UNL     1       4.964   6.520  17.996  0.00  0.00    +0.000 NA
ATOM      4  C   UNL     1       3.695   6.345  17.757  0.00  0.00    +0.000 A 
ATOM      5  C   UNL     1       3.000   5.064  18.062  0.00  0.00    +0.000 A 
ATOM      6  C   UNL     1       1.655   4.825  17.739  0.00  0.00    +0.000 A 
ATOM      7  C   UNL     1       1.064   3.600  18.053  0.00  0.00    +0.000 A 
ATOM      8  C   UNL     1       1.802   2.609  18.693  0.00  0.00    +0.000 A 
ATOM      9  C   UNL     1       3.148   2.840  19.011  0.00  0.00    +0.000 A 
ATOM     10  C   UNL     1       3.737   4.065  18.686  0.00  0.00    +0.000 A 
ATOM     11  C   UNL     1       5.166   4.289  18.987  0.00  0.00    +0.000 A 
ATOM     12  O   UNL     1       5.828   3.405  19.525  0.00  0.00    +0.000 OA
BRANCH   2  13
ATOM     13  C   UNL     1       7.110   5.783  18.850  0.00  0.00    +0.000 C 
BRANCH  13  15
ATOM     14  O   UNL     1       8.172   7.884  18.283  0.00  0.00    +0.000 OA
ATOM     15  C   UNL     1       7.687   6.826  17.902  0.00  0.00    +0.000 C 
BRANCH  15  16
ATOM     16  O   UNL     1       7.568   6.520  16.589  0.00  0.00    +0.000 OA
ATOM     17  H   UNL     1       8.400   6.121  16.259  0.00  0.00    +0.000 HD
ENDBRANCH  15  16
ENDBRANCH  13  15
ENDBRANCH   2  13
ENDBRANCH   1   4
BRANCH   1  18
ATOM     18  C   UNL     1       2.172   8.370  18.109  0.00  0.00    +0.000 A 
ATOM     19  N   UNL     1       1.709   9.559  17.785  0.00  0.00    +0.000 NA
ATOM     20  C   UNL     1       1.228  10.099  18.943  0.00  0.00    +0.000 A 
ATOM     21  C   UNL     1       0.824  11.410  19.187  0.00  0.00    +0.000 A 
ATOM     22  C   UNL     1       0.477  11.750  20.495  0.00  0.00    +0.000 A 
ATOM     23 CL   UNL     1       0.290  13.436  20.850  0.00  0.00    +0.000 Cl
ATOM     24  C   UNL     1       0.377  10.780  21.513  0.00  0.00    +0.000 A 
ATOM     25  C   UNL     1       0.730   9.444  21.258  0.00  0.00    +0.000 A 
ATOM     26  C   UNL     1       1.238   9.169  19.977  0.00  0.00    +0.000 A 
ATOM     27  N   UNL     1       1.897   8.087  19.430  0.00  0.00    +0.000 N 
ATOM     28  H   UNL     1       2.261   7.297  19.945  0.00  0.00    +0.000 HD
BRANCH  24  29
ATOM     29  O   UNL     1      -0.076  11.255  22.713  0.00  0.00    +0.000 OA
BRANCH  29  30
ATOM     30  C   UNL     1      -1.352  10.847  23.197  0.00  0.00    +0.000 C 
BRANCH  30  31
ATOM     31  C   UNL     1      -2.283  12.052  23.131  0.00  0.00    +0.000 C 
ATOM     32  F   UNL     1      -2.853  12.133  21.900  0.00  0.00    +0.000 F 
ATOM     33  F   UNL     1      -3.302  11.892  24.014  0.00  0.00    +0.000 F 
ENDBRANCH  30  31
ENDBRANCH  29  30
ENDBRANCH  24  29
ENDBRANCH   1  18
TORSDOF 8
ENDMDL
MODEL 5
REMARK VINA RESULT:      -7.9      1.484      1.610
REMARK  Name = 
REMARK  8 active torsions:
REMARK  status: ('A' for Active; 'I' for Inactive)
REMARK    1  A    between atoms: C_2  and  O_3
REMARK    2  A    between atoms: C_2  and  C_4
REMARK    3  A    between atoms: C_4  and  N_5
REMARK    4  A    between atoms: C_7  and  C_8
REMARK    5  A    between atoms: C_8  and  C_9
REMARK    6  A    between atoms: C_15  and  O_16
REMARK    7  A    between atoms: O_16  and  C_17
REMARK    8  A    between atoms: C_17  and  C_18
REMARK                            x       y       z     vdW  Elec       q    Type
REMARK                         _______ _______ _______ _____ _____    ______ ____
ROOT
ATOM      1  C   UNL     1       3.185   7.863  17.659  0.00  0.00    +0.000 C 
ENDROOT
BRANCH   1   4
ATOM      2  N   UNL     1       2.442   4.389  18.798  0.00  0.00    +0.000 N 
ATOM      3  N   UNL     1       2.422   5.761  18.688  0.00  0.00    +0.000 NA
ATOM      4  C   UNL     1       3.217   6.350  17.840  0.00  0.00    +0.000 A 
ATOM      5  C   UNL     1       4.191   5.593  17.007  0.00  0.00    +0.000 A 
ATOM      6  C   UNL     1       5.112   6.214  16.148  0.00  0.00    +0.000 A 
ATOM      7  C   UNL     1       5.999   5.443  15.395  0.00  0.00    +0.000 A 
ATOM      8  C   UNL     1       5.974   4.055  15.485  0.00  0.00    +0.000 A 
ATOM      9  C   UNL     1       5.061   3.431  16.348  0.00  0.00    +0.000 A 
ATOM     10  C   UNL     1       4.181   4.207  17.106  0.00  0.00    +0.000 A 
ATOM     11  C   UNL     1       3.249   3.547  18.043  0.00  0.00    +0.000 A 
ATOM     12  O   UNL     1       3.245   2.323  18.147  0.00  0.00    +0.000 OA
BRANCH   2  13
ATOM     13  C   UNL     1       1.506   3.787  19.755  0.00  0.00    +0.000 C 
BRANCH  13  15
ATOM     14  O   UNL     1       1.874   3.041  22.030  0.00  0.00    +0.000 OA
ATOM     15  C   UNL     1       1.974   3.934  21.197  0.00  0.00    +0.000 C 
BRANCH  15  16
ATOM     16  O   UNL     1       2.456   5.159  21.511  0.00  0.00    +0.000 OA
ATOM     17  H   UNL     1       3.381   5.086  21.827  0.00  0.00    +0.000 HD
ENDBRANCH  15  16
ENDBRANCH  13  15
ENDBRANCH   2  13
ENDBRANCH   1   4
BRANCH   1  18
ATOM     18  C   UNL     1       2.095   8.588  18.370  0.00  0.00    +0.000 A 
ATOM     19  N   UNL     1       1.134   9.245  17.757  0.00  0.00    +0.000 NA
ATOM     20  C   UNL     1       0.388   9.821  18.745  0.00  0.00    +0.000 A 
ATOM     21  C   UNL     1      -0.614  10.783  18.627  0.00  0.00    +0.000 A 
ATOM     22  C   UNL     1      -1.154  11.303  19.803  0.00  0.00    +0.000 A 
ATOM     23 CL   UNL     1      -2.154  12.712  19.658  0.00  0.00    +0.000 Cl
ATOM     24  C   UNL     1      -0.830  10.774  21.068  0.00  0.00    +0.000 A 
ATOM     25  C   UNL     1       0.139   9.763  21.188  0.00  0.00    +0.000 A 
ATOM     26  C   UNL     1       0.788   9.381  20.002  0.00  0.00    +0.000 A 
ATOM     27  N   UNL     1       1.917   8.634  19.737  0.00  0.00    +0.000 N 
ATOM     28  H   UNL     1       2.589   8.317  20.423  0.00  0.00    +0.000 HD
BRANCH  24  29
ATOM     29  O   UNL     1      -1.523  11.321  22.113  0.00  0.00    +0.000 OA
BRANCH  29  30
ATOM     30  C   UNL     1      -0.925  12.352  22.893  0.00  0.00    +0.000 C 
BRANCH  30  31
ATOM     31  C   UNL     1      -2.006  13.375  23.221  0.00  0.00    +0.000 C 
ATOM     32  F   UNL     1      -3.158  12.741  23.563  0.00  0.00    +0.000 F 
ATOM     33  F   UNL     1      -1.635  14.102  24.306  0.00  0.00    +0.000 F 
ENDBRANCH  30  31
ENDBRANCH  29  30
ENDBRANCH  24  29
ENDBRANCH   1  18
TORSDOF 8
ENDMDL
MODEL 6
REMARK VINA RESULT:      -7.9      1.636      2.233
REMARK  Name = 
REMARK  8 active torsions:
REMARK  status: ('A' for Active; 'I' for Inactive)
REMARK    1  A    between atoms: C_2  and  O_3
REMARK    2  A    between atoms: C_2  and  C_4
REMARK    3  A    between atoms: C_4  and  N_5
REMARK    4  A    between atoms: C_7  and  C_8
REMARK    5  A    between atoms: C_8  and  C_9
REMARK    6  A    between atoms: C_15  and  O_16
REMARK    7  A    between atoms: O_16  and  C_17
REMARK    8  A    between atoms: C_17  and  C_18
REMARK                            x       y       z     vdW  Elec       q    Type
REMARK                         _______ _______ _______ _____ _____    ______ ____
ROOT
ATOM      1  C   UNL     1       2.608   7.445  17.516  0.00  0.00    +0.000 C 
ENDROOT
BRANCH   1   4
ATOM      2  N   UNL     1       3.104   4.192  19.273  0.00  0.00    +0.000 N 
ATOM      3  N   UNL     1       2.511   5.323  18.758  0.00  0.00    +0.000 NA
ATOM      4  C   UNL     1       3.241   6.208  18.139  0.00  0.00    +0.000 A 
ATOM      5  C   UNL     1       4.716   6.065  18.005  0.00  0.00    +0.000 A 
ATOM      6  C   UNL     1       5.531   7.045  17.416  0.00  0.00    +0.000 A 
ATOM      7  C   UNL     1       6.910   6.848  17.322  0.00  0.00    +0.000 A 
ATOM      8  C   UNL     1       7.486   5.677  17.807  0.00  0.00    +0.000 A 
ATOM      9  C   UNL     1       6.677   4.700  18.405  0.00  0.00    +0.000 A 
ATOM     10  C   UNL     1       5.299   4.906  18.504  0.00  0.00    +0.000 A 
ATOM     11  C   UNL     1       4.456   3.892  19.170  0.00  0.00    +0.000 A 
ATOM     12  O   UNL     1       4.966   2.871  19.626  0.00  0.00    +0.000 OA
BRANCH   2  13
ATOM     13  C   UNL     1       2.222   3.225  19.938  0.00  0.00    +0.000 C 
BRANCH  13  15
ATOM     14  O   UNL     1       0.335   2.256  18.769  0.00  0.00    +0.000 OA
ATOM     15  C   UNL     1       1.546   2.281  18.952  0.00  0.00    +0.000 C 
BRANCH  15  16
ATOM     16  O   UNL     1       2.385   1.419  18.332  0.00  0.00    +0.000 OA
ATOM     17  H   UNL     1       3.079   1.913  17.849  0.00  0.00    +0.000 HD
ENDBRANCH  15  16
ENDBRANCH  13  15
ENDBRANCH   2  13
ENDBRANCH   1   4
BRANCH   1  18
ATOM     18  C   UNL     1       1.916   8.374  18.452  0.00  0.00    +0.000 A 
ATOM     19  N   UNL     1       1.915   8.226  19.760  0.00  0.00    +0.000 NA
ATOM     20  C   UNL     1       1.123   9.226  20.247  0.00  0.00    +0.000 A 
ATOM     21  C   UNL     1       0.630   9.391  21.540  0.00  0.00    +0.000 A 
ATOM     22  C   UNL     1      -0.261  10.440  21.765  0.00  0.00    +0.000 A 
ATOM     23 CL   UNL     1      -1.110  10.445  23.276  0.00  0.00    +0.000 Cl
ATOM     24  C   UNL     1      -0.538  11.405  20.777  0.00  0.00    +0.000 A 
ATOM     25  C   UNL     1       0.002  11.275  19.486  0.00  0.00    +0.000 A 
ATOM     26  C   UNL     1       0.757  10.115  19.242  0.00  0.00    +0.000 A 
ATOM     27  N   UNL     1       1.233   9.517  18.094  0.00  0.00    +0.000 N 
ATOM     28  H   UNL     1       0.986   9.777  17.148  0.00  0.00    +0.000 HD
BRANCH  24  29
ATOM     29  O   UNL     1      -1.348  12.429  21.186  0.00  0.00    +0.000 OA
BRANCH  29  30
ATOM     30  C   UNL     1      -1.991  13.251  20.217  0.00  0.00    +0.000 C 
BRANCH  30  31
ATOM     31  C   UNL     1      -3.446  12.807  20.119  0.00  0.00    +0.000 C 
ATOM     32  F   UNL     1      -3.562  11.789  19.225  0.00  0.00    +0.000 F 
ATOM     33  F   UNL     1      -3.856  12.313  21.315  0.00  0.00    +0.000 F 
ENDBRANCH  30  31
ENDBRANCH  29  30
ENDBRANCH  24  29
ENDBRANCH   1  18
TORSDOF 8
ENDMDL
MODEL 7
REMARK VINA RESULT:      -7.8      1.812      3.769
REMARK  Name = 
REMARK  8 active torsions:
REMARK  status: ('A' for Active; 'I' for Inactive)
REMARK    1  A    between atoms: C_2  and  O_3
REMARK    2  A    between atoms: C_2  and  C_4
REMARK    3  A    between atoms: C_4  and  N_5
REMARK    4  A    between atoms: C_7  and  C_8
REMARK    5  A    between atoms: C_8  and  C_9
REMARK    6  A    between atoms: C_15  and  O_16
REMARK    7  A    between atoms: O_16  and  C_17
REMARK    8  A    between atoms: C_17  and  C_18
REMARK                            x       y       z     vdW  Elec       q    Type
REMARK                         _______ _______ _______ _____ _____    ______ ____
ROOT
ATOM      1  C   UNL     1       2.600   7.131  17.494  0.00  0.00    +0.000 C 
ENDROOT
BRANCH   1   4
ATOM      2  N   UNL     1       5.362   5.043  18.883  0.00  0.00    +0.000 N 
ATOM      3  N   UNL     1       4.674   6.093  18.317  0.00  0.00    +0.000 NA
ATOM      4  C   UNL     1       3.400   5.971  18.073  0.00  0.00    +0.000 A 
ATOM      5  C   UNL     1       2.658   4.709  18.343  0.00  0.00    +0.000 A 
ATOM      6  C   UNL     1       1.305   4.529  18.012  0.00  0.00    +0.000 A 
ATOM      7  C   UNL     1       0.669   3.319  18.292  0.00  0.00    +0.000 A 
ATOM      8  C   UNL     1       1.369   2.284  18.907  0.00  0.00    +0.000 A 
ATOM      9  C   UNL     1       2.722   2.457  19.231  0.00  0.00    +0.000 A 
ATOM     10  C   UNL     1       3.357   3.667  18.940  0.00  0.00    +0.000 A 
ATOM     11  C   UNL     1       4.792   3.830  19.248  0.00  0.00    +0.000 A 
ATOM     12  O   UNL     1       5.420   2.907  19.762  0.00  0.00    +0.000 OA
BRANCH   2  13
ATOM     13  C   UNL     1       6.790   5.254  19.153  0.00  0.00    +0.000 C 
BRANCH  13  15
ATOM     14  O   UNL     1       8.446   4.087  17.825  0.00  0.00    +0.000 OA
ATOM     15  C   UNL     1       7.655   5.018  17.922  0.00  0.00    +0.000 C 
BRANCH  15  16
ATOM     16  O   UNL     1       7.530   5.958  16.956  0.00  0.00    +0.000 OA
ATOM     17  H   UNL     1       7.901   6.810  17.266  0.00  0.00    +0.000 HD
ENDBRANCH  15  16
ENDBRANCH  13  15
ENDBRANCH   2  13
ENDBRANCH   1   4
BRANCH   1  18
ATOM     18  C   UNL     1       2.019   8.087  18.477  0.00  0.00    +0.000 A 
ATOM     19  N   UNL     1       1.929   7.843  19.767  0.00  0.00    +0.000 NA
ATOM     20  C   UNL     1       1.283   8.919  20.305  0.00  0.00    +0.000 A 
ATOM     21  C   UNL     1       0.758   9.063  21.588  0.00  0.00    +0.000 A 
ATOM     22  C   UNL     1       0.036  10.224  21.866  0.00  0.00    +0.000 A 
ATOM     23 CL   UNL     1      -0.877  10.253  23.339  0.00  0.00    +0.000 Cl
ATOM     24  C   UNL     1      -0.033  11.293  20.951  0.00  0.00    +0.000 A 
ATOM     25  C   UNL     1       0.543  11.175  19.675  0.00  0.00    +0.000 A 
ATOM     26  C   UNL     1       1.115   9.929  19.365  0.00  0.00    +0.000 A 
ATOM     27  N   UNL     1       1.546   9.350  18.190  0.00  0.00    +0.000 N 
ATOM     28  H   UNL     1       1.392   9.717  17.260  0.00  0.00    +0.000 HD
BRANCH  24  29
ATOM     29  O   UNL     1      -0.689  12.401  21.413  0.00  0.00    +0.000 OA
BRANCH  29  30
ATOM     30  C   UNL     1      -2.032  12.648  21.005  0.00  0.00    +0.000 C 
BRANCH  30  31
ATOM     31  C   UNL     1      -2.812  13.119  22.226  0.00  0.00    +0.000 C 
ATOM     32  F   UNL     1      -3.756  12.200  22.558  0.00  0.00    +0.000 F 
ATOM     33  F   UNL     1      -1.979  13.212  23.294  0.00  0.00    +0.000 F 
ENDBRANCH  30  31
ENDBRANCH  29  30
ENDBRANCH  24  29
ENDBRANCH   1  18
TORSDOF 8
ENDMDL
MODEL 8
REMARK VINA RESULT:      -7.8      1.955      3.878
REMARK  Name = 
REMARK  8 active torsions:
REMARK  status: ('A' for Active; 'I' for Inactive)
REMARK    1  A    between atoms: C_2  and  O_3
REMARK    2  A    between atoms: C_2  and  C_4
REMARK    3  A    between atoms: C_4  and  N_5
REMARK    4  A    between atoms: C_7  and  C_8
REMARK    5  A    between atoms: C_8  and  C_9
REMARK    6  A    between atoms: C_15  and  O_16
REMARK    7  A    between atoms: O_16  and  C_17
REMARK    8  A    between atoms: C_17  and  C_18
REMARK                            x       y       z     vdW  Elec       q    Type
REMARK                         _______ _______ _______ _____ _____    ______ ____
ROOT
ATOM      1  C   UNL     1       2.596   7.119  17.434  0.00  0.00    +0.000 C 
ENDROOT
BRANCH   1   4
ATOM      2  N   UNL     1       5.359   5.056  18.857  0.00  0.00    +0.000 N 
ATOM      3  N   UNL     1       4.671   6.094  18.269  0.00  0.00    +0.000 NA
ATOM      4  C   UNL     1       3.395   5.971  18.038  0.00  0.00    +0.000 A 
ATOM      5  C   UNL     1       2.649   4.720  18.347  0.00  0.00    +0.000 A 
ATOM      6  C   UNL     1       1.294   4.537  18.031  0.00  0.00    +0.000 A 
ATOM      7  C   UNL     1       0.654   3.338  18.349  0.00  0.00    +0.000 A 
ATOM      8  C   UNL     1       1.354   2.317  18.985  0.00  0.00    +0.000 A 
ATOM      9  C   UNL     1       2.710   2.492  19.294  0.00  0.00    +0.000 A 
ATOM     10  C   UNL     1       3.348   3.691  18.967  0.00  0.00    +0.000 A 
ATOM     11  C   UNL     1       4.787   3.856  19.259  0.00  0.00    +0.000 A 
ATOM     12  O   UNL     1       5.414   2.944  19.793  0.00  0.00    +0.000 OA
BRANCH   2  13
ATOM     13  C   UNL     1       6.790   5.267  19.110  0.00  0.00    +0.000 C 
BRANCH  13  15
ATOM     14  O   UNL     1       8.450   4.099  17.790  0.00  0.00    +0.000 OA
ATOM     15  C   UNL     1       7.643   5.016  17.874  0.00  0.00    +0.000 C 
BRANCH  15  16
ATOM     16  O   UNL     1       7.486   5.929  16.887  0.00  0.00    +0.000 OA
ATOM     17  H   UNL     1       7.274   5.480  16.043  0.00  0.00    +0.000 HD
ENDBRANCH  15  16
ENDBRANCH  13  15
ENDBRANCH   2  13
ENDBRANCH   1   4
BRANCH   1  18
ATOM     18  C   UNL     1       1.970   8.065  18.399  0.00  0.00    +0.000 A 
ATOM     19  N   UNL     1       1.981   7.892  19.703  0.00  0.00    +0.000 NA
ATOM     20  C   UNL     1       1.253   8.925  20.222  0.00  0.00    +0.000 A 
ATOM     21  C   UNL     1       0.790   9.090  21.525  0.00  0.00    +0.000 A 
ATOM     22  C   UNL     1      -0.039  10.183  21.785  0.00  0.00    +0.000 A 
ATOM     23 CL   UNL     1      -0.864  10.205  23.309  0.00  0.00    +0.000 Cl
ATOM     24  C   UNL     1      -0.277  11.181  20.819  0.00  0.00    +0.000 A 
ATOM     25  C   UNL     1       0.235  11.047  19.517  0.00  0.00    +0.000 A 
ATOM     26  C   UNL     1       0.922   9.852  19.240  0.00  0.00    +0.000 A 
ATOM     27  N   UNL     1       1.346   9.252  18.073  0.00  0.00    +0.000 N 
ATOM     28  H   UNL     1       1.100   9.543  17.137  0.00  0.00    +0.000 HD
BRANCH  24  29
ATOM     29  O   UNL     1      -1.023  12.239  21.261  0.00  0.00    +0.000 OA
BRANCH  29  30
ATOM     30  C   UNL     1      -0.703  13.558  20.829  0.00  0.00    +0.000 C 
BRANCH  30  31
ATOM     31  C   UNL     1      -0.134  14.316  22.022  0.00  0.00    +0.000 C 
ATOM     32  F   UNL     1      -0.587  13.767  23.180  0.00  0.00    +0.000 F 
ATOM     33  F   UNL     1       1.217  14.190  22.043  0.00  0.00    +0.000 F 
ENDBRANCH  30  31
ENDBRANCH  29  30
ENDBRANCH  24  29
ENDBRANCH   1  18
TORSDOF 8
ENDMDL
MODEL 9
REMARK VINA RESULT:      -7.7      1.270      1.817
REMARK  Name = 
REMARK  8 active torsions:
REMARK  status: ('A' for Active; 'I' for Inactive)
REMARK    1  A    between atoms: C_2  and  O_3
REMARK    2  A    between atoms: C_2  and  C_4
REMARK    3  A    between atoms: C_4  and  N_5
REMARK    4  A    between atoms: C_7  and  C_8
REMARK    5  A    between atoms: C_8  and  C_9
REMARK    6  A    between atoms: C_15  and  O_16
REMARK    7  A    between atoms: O_16  and  C_17
REMARK    8  A    between atoms: C_17  and  C_18
REMARK                            x       y       z     vdW  Elec       q    Type
REMARK                         _______ _______ _______ _____ _____    ______ ____
ROOT
ATOM      1  C   UNL     1       2.618   7.289  17.509  0.00  0.00    +0.000 C 
ENDROOT
BRANCH   1   4
ATOM      2  N   UNL     1       3.292   4.069  19.266  0.00  0.00    +0.000 N 
ATOM      3  N   UNL     1       2.639   5.167  18.754  0.00  0.00    +0.000 NA
ATOM      4  C   UNL     1       3.318   6.086  18.129  0.00  0.00    +0.000 A 
ATOM      5  C   UNL     1       4.797   6.019  17.984  0.00  0.00    +0.000 A 
ATOM      6  C   UNL     1       5.557   7.037  17.387  0.00  0.00    +0.000 A 
ATOM      7  C   UNL     1       6.943   6.910  17.283  0.00  0.00    +0.000 A 
ATOM      8  C   UNL     1       7.582   5.771  17.765  0.00  0.00    +0.000 A 
ATOM      9  C   UNL     1       6.828   4.755  18.370  0.00  0.00    +0.000 A 
ATOM     10  C   UNL     1       5.441   4.891  18.479  0.00  0.00    +0.000 A 
ATOM     11  C   UNL     1       4.657   3.836  19.153  0.00  0.00    +0.000 A 
ATOM     12  O   UNL     1       5.221   2.844  19.607  0.00  0.00    +0.000 OA
BRANCH   2  13
ATOM     13  C   UNL     1       2.465   3.059  19.939  0.00  0.00    +0.000 C 
BRANCH  13  15
ATOM     14  O   UNL     1       1.634   2.666  22.180  0.00  0.00    +0.000 OA
ATOM     15  C   UNL     1       2.129   3.444  21.374  0.00  0.00    +0.000 C 
BRANCH  15  16
ATOM     16  O   UNL     1       2.362   4.742  21.678  0.00  0.00    +0.000 OA
ATOM     17  H   UNL     1       3.281   4.853  21.999  0.00  0.00    +0.000 HD
ENDBRANCH  15  16
ENDBRANCH  13  15
ENDBRANCH   2  13
ENDBRANCH   1   4
BRANCH   1  18
ATOM     18  C   UNL     1       1.970   8.236  18.458  0.00  0.00    +0.000 A 
ATOM     19  N   UNL     1       1.909   8.040  19.758  0.00  0.00    +0.000 NA
ATOM     20  C   UNL     1       1.184   9.084  20.258  0.00  0.00    +0.000 A 
ATOM     21  C   UNL     1       0.659   9.240  21.539  0.00  0.00    +0.000 A 
ATOM     22  C   UNL     1      -0.151  10.350  21.777  0.00  0.00    +0.000 A 
ATOM     23 CL   UNL     1      -1.052  10.369  23.257  0.00  0.00    +0.000 Cl
ATOM     24  C   UNL     1      -0.312  11.372  20.820  0.00  0.00    +0.000 A 
ATOM     25  C   UNL     1       0.263  11.246  19.543  0.00  0.00    +0.000 A 
ATOM     26  C   UNL     1       0.929  10.037  19.279  0.00  0.00    +0.000 A 
ATOM     27  N   UNL     1       1.397   9.445  18.124  0.00  0.00    +0.000 N 
ATOM     28  H   UNL     1       1.207   9.760  17.182  0.00  0.00    +0.000 HD
BRANCH  24  29
ATOM     29  O   UNL     1      -1.050  12.443  21.243  0.00  0.00    +0.000 OA
BRANCH  29  30
ATOM     30  C   UNL     1      -0.679  13.758  20.842  0.00  0.00    +0.000 C 
BRANCH  30  31
ATOM     31  C   UNL     1      -0.086  14.465  22.054  0.00  0.00    +0.000 C 
ATOM     32  F   UNL     1      -0.601  13.941  23.197  0.00  0.00    +0.000 F 
ATOM     33  F   UNL     1       1.253  14.245  22.103  0.00  0.00    +0.000 F 
ENDBRANCH  30  31
ENDBRANCH  29  30
ENDBRANCH  24  29
ENDBRANCH   1  18
TORSDOF 8
ENDMDL
