MODEL 1
REMARK VINA RESULT:      -6.9      0.000      0.000
REMARK  Name = 
REMARK  4 active torsions:
REMARK  status: ('A' for Active; 'I' for Inactive)
REMARK    1  A    between atoms: C_1  and  N_2
REMARK    2  A    between atoms: C_6  and  C_7
REMARK    3  A    between atoms: C_13  and  C_14
REMARK    4  A    between atoms: C_14  and  O_15
REMARK                            x       y       z     vdW  Elec       q    Type
REMARK                         _______ _______ _______ _____ _____    ______ ____
ROOT
ATOM      1  C   UNL     1       3.849   4.627  18.284  0.00  0.00    +0.000 C 
ATOM      2  C   UNL     1       5.253   4.721  18.888  0.00  0.00    +0.000 C 
ATOM      3  O   UNL     1       6.113   5.532  18.079  0.00  0.00    +0.000 OA
ATOM      4  C   UNL     1       6.096   5.087  16.788  0.00  0.00    +0.000 A 
ATOM      5  C   UNL     1       7.224   5.345  16.010  0.00  0.00    +0.000 A 
ATOM      6  C   UNL     1       7.282   4.880  14.696  0.00  0.00    +0.000 A 
ATOM      7  C   UNL     1       6.215   4.162  14.141  0.00  0.00    +0.000 A 
ATOM      8  C   UNL     1       5.075   3.935  14.925  0.00  0.00    +0.000 A 
ATOM      9  C   UNL     1       5.013   4.405  16.238  0.00  0.00    +0.000 A 
ATOM     10  O   UNL     1       3.860   4.143  16.924  0.00  0.00    +0.000 OA
ENDROOT
BRANCH   1  16
ATOM     11  C   UNL     1       1.894   5.201  20.778  0.00  0.00    +0.000 C 
ATOM     12  N   UNL     1       1.662   4.350  19.612  0.00  0.00    +0.000 NA
ATOM     13  C   UNL     1       0.765   3.245  19.952  0.00  0.00    +0.000 C 
ATOM     14  C   UNL     1       0.916   2.319  18.762  0.00  0.00    +0.000 C 
ATOM     15  C   UNL     1       2.351   2.519  18.286  0.00  0.00    +0.000 C 
ATOM     16  C   UNL     1       2.897   3.710  19.095  0.00  0.00    +0.000 C 
ENDBRANCH   1  16
BRANCH   7  17
ATOM     17  C   UNL     1       6.306   3.633  12.733  0.00  0.00    +0.000 C 
BRANCH  17  18
ATOM     18  O   UNL     1       5.007   3.433  12.190  0.00  0.00    +0.000 OA
ATOM     19  H   UNL     1       4.916   2.478  12.030  0.00  0.00    +0.000 HD
ENDBRANCH  17  18
ENDBRANCH   7  17
TORSDOF 3
ENDMDL
MODEL 2
REMARK VINA RESULT:      -6.9      0.983      1.628
REMARK  Name = 
REMARK  4 active torsions:
REMARK  status: ('A' for Active; 'I' for Inactive)
REMARK    1  A    between atoms: C_1  and  N_2
REMARK    2  A    between atoms: C_6  and  C_7
REMARK    3  A    between atoms: C_13  and  C_14
REMARK    4  A    between atoms: C_14  and  O_15
REMARK                            x       y       z     vdW  Elec       q    Type
REMARK                         _______ _______ _______ _____ _____    ______ ____
ROOT
ATOM      1  C   UNL     1       3.510   4.959  18.439  0.00  0.00    +0.000 C 
ATOM      2  C   UNL     1       4.810   4.882  19.246  0.00  0.00    +0.000 C 
ATOM      3  O   UNL     1       5.844   5.667  18.641  0.00  0.00    +0.000 OA
ATOM      4  C   UNL     1       5.987   5.319  17.328  0.00  0.00    +0.000 A 
ATOM      5  C   UNL     1       7.237   5.528  16.746  0.00  0.00    +0.000 A 
ATOM      6  C   UNL     1       7.456   5.155  15.419  0.00  0.00    +0.000 A 
ATOM      7  C   UNL     1       6.431   4.580  14.657  0.00  0.00    +0.000 A 
ATOM      8  C   UNL     1       5.171   4.402  15.247  0.00  0.00    +0.000 A 
ATOM      9  C   UNL     1       4.949   4.780  16.572  0.00  0.00    +0.000 A 
ATOM     10  O   UNL     1       3.688   4.575  17.060  0.00  0.00    +0.000 OA
ENDROOT
BRANCH   1  16
ATOM     11  C   UNL     1       3.037   1.774  18.461  0.00  0.00    +0.000 C 
ATOM     12  N   UNL     1       2.785   2.743  19.527  0.00  0.00    +0.000 NA
ATOM     13  C   UNL     1       1.682   2.295  20.379  0.00  0.00    +0.000 C 
ATOM     14  C   UNL     1       1.356   3.540  21.179  0.00  0.00    +0.000 C 
ATOM     15  C   UNL     1       1.677   4.703  20.245  0.00  0.00    +0.000 C 
ATOM     16  C   UNL     1       2.376   4.077  19.024  0.00  0.00    +0.000 C 
ENDBRANCH   1  16
BRANCH   7  17
ATOM     17  C   UNL     1       6.691   4.147  13.238  0.00  0.00    +0.000 C 
BRANCH  17  18
ATOM     18  O   UNL     1       6.042   2.911  12.965  0.00  0.00    +0.000 OA
ATOM     19  H   UNL     1       6.550   2.222  13.427  0.00  0.00    +0.000 HD
ENDBRANCH  17  18
ENDBRANCH   7  17
TORSDOF 3
ENDMDL
MODEL 3
REMARK VINA RESULT:      -6.8      1.931      2.445
REMARK  Name = 
REMARK  4 active torsions:
REMARK  status: ('A' for Active; 'I' for Inactive)
REMARK    1  A    between atoms: C_1  and  N_2
REMARK    2  A    between atoms: C_6  and  C_7
REMARK    3  A    between atoms: C_13  and  C_14
REMARK    4  A    between atoms: C_14  and  O_15
REMARK                            x       y       z     vdW  Elec       q    Type
REMARK                         _______ _______ _______ _____ _____    ______ ____
ROOT
ATOM      1  C   UNL     1       2.445   4.260  18.537  0.00  0.00    +0.000 C 
ATOM      2  C   UNL     1       2.990   5.535  19.188  0.00  0.00    +0.000 C 
ATOM      3  O   UNL     1       3.268   6.542  18.207  0.00  0.00    +0.000 OA
ATOM      4  C   UNL     1       4.075   6.031  17.230  0.00  0.00    +0.000 A 
ATOM      5  C   UNL     1       4.885   6.931  16.538  0.00  0.00    +0.000 A 
ATOM      6  C   UNL     1       5.761   6.464  15.557  0.00  0.00    +0.000 A 
ATOM      7  C   UNL     1       5.831   5.100  15.249  0.00  0.00    +0.000 A 
ATOM      8  C   UNL     1       4.990   4.209  15.932  0.00  0.00    +0.000 A 
ATOM      9  C   UNL     1       4.110   4.676  16.910  0.00  0.00    +0.000 A 
ATOM     10  O   UNL     1       3.323   3.737  17.518  0.00  0.00    +0.000 OA
ENDROOT
BRANCH   1  16
ATOM     11  C   UNL     1       4.423   2.237  20.077  0.00  0.00    +0.000 C 
ATOM     12  N   UNL     1       3.232   2.917  20.586  0.00  0.00    +0.000 NA
ATOM     13  C   UNL     1       2.594   2.121  21.636  0.00  0.00    +0.000 C 
ATOM     14  C   UNL     1       1.245   2.794  21.787  0.00  0.00    +0.000 C 
ATOM     15  C   UNL     1       0.912   3.326  20.397  0.00  0.00    +0.000 C 
ATOM     16  C   UNL     1       2.184   3.120  19.555  0.00  0.00    +0.000 C 
ENDBRANCH   1  16
BRANCH   7  17
ATOM     17  C   UNL     1       6.807   4.604  14.214  0.00  0.00    +0.000 C 
BRANCH  17  18
ATOM     18  O   UNL     1       7.900   5.505  14.085  0.00  0.00    +0.000 OA
ATOM     19  H   UNL     1       7.766   6.203  14.749  0.00  0.00    +0.000 HD
ENDBRANCH  17  18
ENDBRANCH   7  17
TORSDOF 3
ENDMDL
MODEL 4
REMARK VINA RESULT:      -6.8      1.774      2.498
REMARK  Name = 
REMARK  4 active torsions:
REMARK  status: ('A' for Active; 'I' for Inactive)
REMARK    1  A    between atoms: C_1  and  N_2
REMARK    2  A    between atoms: C_6  and  C_7
REMARK    3  A    between atoms: C_13  and  C_14
REMARK    4  A    between atoms: C_14  and  O_15
REMARK                            x       y       z     vdW  Elec       q    Type
REMARK                         _______ _______ _______ _____ _____    ______ ____
ROOT
ATOM      1  C   UNL     1       5.510   5.722  16.816  0.00  0.00    +0.000 C 
ATOM      2  C   UNL     1       7.040   5.648  16.798  0.00  0.00    +0.000 C 
ATOM      3  O   UNL     1       7.560   5.948  15.498  0.00  0.00    +0.000 OA
ATOM      4  C   UNL     1       6.957   5.158  14.560  0.00  0.00    +0.000 A 
ATOM      5  C   UNL     1       7.675   4.891  13.395  0.00  0.00    +0.000 A 
ATOM      6  C   UNL     1       7.129   4.058  12.418  0.00  0.00    +0.000 A 
ATOM      7  C   UNL     1       5.860   3.490  12.588  0.00  0.00    +0.000 A 
ATOM      8  C   UNL     1       5.137   3.789  13.752  0.00  0.00    +0.000 A 
ATOM      9  C   UNL     1       5.680   4.627  14.727  0.00  0.00    +0.000 A 
ATOM     10  O   UNL     1       4.901   4.869  15.824  0.00  0.00    +0.000 OA
ENDROOT
BRANCH   1  16
ATOM     11  C   UNL     1       2.971   6.861  18.438  0.00  0.00    +0.000 C 
ATOM     12  N   UNL     1       3.424   5.477  18.302  0.00  0.00    +0.000 NA
ATOM     13  C   UNL     1       3.054   4.696  19.484  0.00  0.00    +0.000 C 
ATOM     14  C   UNL     1       3.876   3.434  19.316  0.00  0.00    +0.000 C 
ATOM     15  C   UNL     1       5.143   3.882  18.595  0.00  0.00    +0.000 C 
ATOM     16  C   UNL     1       4.897   5.347  18.190  0.00  0.00    +0.000 C 
ENDBRANCH   1  16
BRANCH   7  17
ATOM     17  C   UNL     1       5.297   2.561  11.543  0.00  0.00    +0.000 C 
BRANCH  17  18
ATOM     18  O   UNL     1       6.004   1.328  11.537  0.00  0.00    +0.000 OA
ATOM     19  H   UNL     1       5.355   0.635  11.325  0.00  0.00    +0.000 HD
ENDBRANCH  17  18
ENDBRANCH   7  17
TORSDOF 3
ENDMDL
MODEL 5
REMARK VINA RESULT:      -6.6      1.192      1.737
REMARK  Name = 
REMARK  4 active torsions:
REMARK  status: ('A' for Active; 'I' for Inactive)
REMARK    1  A    between atoms: C_1  and  N_2
REMARK    2  A    between atoms: C_6  and  C_7
REMARK    3  A    between atoms: C_13  and  C_14
REMARK    4  A    between atoms: C_14  and  O_15
REMARK                            x       y       z     vdW  Elec       q    Type
REMARK                         _______ _______ _______ _____ _____    ______ ____
ROOT
ATOM      1  C   UNL     1       3.806   5.213  19.186  0.00  0.00    +0.000 C 
ATOM      2  C   UNL     1       4.933   4.403  19.836  0.00  0.00    +0.000 C 
ATOM      3  O   UNL     1       6.217   4.821  19.355  0.00  0.00    +0.000 OA
ATOM      4  C   UNL     1       6.234   4.796  17.990  0.00  0.00    +0.000 A 
ATOM      5  C   UNL     1       7.471   4.615  17.372  0.00  0.00    +0.000 A 
ATOM      6  C   UNL     1       7.548   4.541  15.980  0.00  0.00    +0.000 A 
ATOM      7  C   UNL     1       6.396   4.655  15.191  0.00  0.00    +0.000 A 
ATOM      8  C   UNL     1       5.162   4.865  15.825  0.00  0.00    +0.000 A 
ATOM      9  C   UNL     1       5.086   4.946  17.216  0.00  0.00    +0.000 A 
ATOM     10  O   UNL     1       3.843   5.159  17.745  0.00  0.00    +0.000 OA
ENDROOT
BRANCH   1  16
ATOM     11  C   UNL     1       1.378   3.817  17.596  0.00  0.00    +0.000 C 
ATOM     12  N   UNL     1       1.854   3.553  18.953  0.00  0.00    +0.000 NA
ATOM     13  C   UNL     1       0.756   3.088  19.802  0.00  0.00    +0.000 C 
ATOM     14  C   UNL     1       1.345   3.196  21.194  0.00  0.00    +0.000 C 
ATOM     15  C   UNL     1       2.311   4.374  21.122  0.00  0.00    +0.000 C 
ATOM     16  C   UNL     1       2.393   4.757  19.633  0.00  0.00    +0.000 C 
ENDBRANCH   1  16
BRANCH   7  17
ATOM     17  C   UNL     1       6.487   4.535  13.692  0.00  0.00    +0.000 C 
BRANCH  17  18
ATOM     18  O   UNL     1       6.266   3.191  13.284  0.00  0.00    +0.000 OA
ATOM     19  H   UNL     1       5.390   3.168  12.862  0.00  0.00    +0.000 HD
ENDBRANCH  17  18
ENDBRANCH   7  17
TORSDOF 3
ENDMDL
MODEL 6
REMARK VINA RESULT:      -6.5      2.607      6.297
REMARK  Name = 
REMARK  4 active torsions:
REMARK  status: ('A' for Active; 'I' for Inactive)
REMARK    1  A    between atoms: C_1  and  N_2
REMARK    2  A    between atoms: C_6  and  C_7
REMARK    3  A    between atoms: C_13  and  C_14
REMARK    4  A    between atoms: C_14  and  O_15
REMARK                            x       y       z     vdW  Elec       q    Type
REMARK                         _______ _______ _______ _____ _____    ______ ____
ROOT
ATOM      1  C   UNL     1       5.165   6.404  17.789  0.00  0.00    +0.000 C 
ATOM      2  C   UNL     1       3.920   7.193  17.372  0.00  0.00    +0.000 C 
ATOM      3  O   UNL     1       3.129   7.555  18.511  0.00  0.00    +0.000 OA
ATOM      4  C   UNL     1       2.856   6.447  19.261  0.00  0.00    +0.000 A 
ATOM      5  C   UNL     1       1.698   6.473  20.038  0.00  0.00    +0.000 A 
ATOM      6  C   UNL     1       1.344   5.355  20.795  0.00  0.00    +0.000 A 
ATOM      7  C   UNL     1       2.144   4.206  20.793  0.00  0.00    +0.000 A 
ATOM      8  C   UNL     1       3.321   4.204  20.030  0.00  0.00    +0.000 A 
ATOM      9  C   UNL     1       3.679   5.323  19.277  0.00  0.00    +0.000 A 
ATOM     10  O   UNL     1       4.845   5.234  18.570  0.00  0.00    +0.000 OA
ENDROOT
BRANCH   1  16
ATOM     11  C   UNL     1       7.764   4.513  17.583  0.00  0.00    +0.000 C 
ATOM     12  N   UNL     1       6.608   4.580  16.689  0.00  0.00    +0.000 NA
ATOM     13  C   UNL     1       6.992   4.216  15.324  0.00  0.00    +0.000 C 
ATOM     14  C   UNL     1       5.792   4.662  14.514  0.00  0.00    +0.000 C 
ATOM     15  C   UNL     1       5.240   5.873  15.260  0.00  0.00    +0.000 C 
ATOM     16  C   UNL     1       6.023   5.939  16.584  0.00  0.00    +0.000 C 
ENDBRANCH   1  16
BRANCH   7  17
ATOM     17  C   UNL     1       1.732   2.992  21.584  0.00  0.00    +0.000 C 
BRANCH  17  18
ATOM     18  O   UNL     1       2.876   2.287  22.050  0.00  0.00    +0.000 OA
ATOM     19  H   UNL     1       3.236   1.805  21.286  0.00  0.00    +0.000 HD
ENDBRANCH  17  18
ENDBRANCH   7  17
TORSDOF 3
ENDMDL
MODEL 7
REMARK VINA RESULT:      -6.5      1.702      2.466
REMARK  Name = 
REMARK  4 active torsions:
REMARK  status: ('A' for Active; 'I' for Inactive)
REMARK    1  A    between atoms: C_1  and  N_2
REMARK    2  A    between atoms: C_6  and  C_7
REMARK    3  A    between atoms: C_13  and  C_14
REMARK    4  A    between atoms: C_14  and  O_15
REMARK                            x       y       z     vdW  Elec       q    Type
REMARK                         _______ _______ _______ _____ _____    ______ ____
ROOT
ATOM      1  C   UNL     1       2.068   5.236  18.670  0.00  0.00    +0.000 C 
ATOM      2  C   UNL     1       2.757   6.518  19.147  0.00  0.00    +0.000 C 
ATOM      3  O   UNL     1       3.310   7.251  18.047  0.00  0.00    +0.000 OA
ATOM      4  C   UNL     1       4.112   6.437  17.300  0.00  0.00    +0.000 A 
ATOM      5  C   UNL     1       5.136   7.044  16.574  0.00  0.00    +0.000 A 
ATOM      6  C   UNL     1       6.015   6.261  15.824  0.00  0.00    +0.000 A 
ATOM      7  C   UNL     1       5.875   4.868  15.781  0.00  0.00    +0.000 A 
ATOM      8  C   UNL     1       4.823   4.273  16.493  0.00  0.00    +0.000 A 
ATOM      9  C   UNL     1       3.941   5.056  17.239  0.00  0.00    +0.000 A 
ATOM     10  O   UNL     1       2.943   4.390  17.894  0.00  0.00    +0.000 OA
ENDROOT
BRANCH   1  16
ATOM     11  C   UNL     1       0.675   2.333  18.743  0.00  0.00    +0.000 C 
ATOM     12  N   UNL     1       1.638   2.909  19.680  0.00  0.00    +0.000 NA
ATOM     13  C   UNL     1       1.440   2.360  21.023  0.00  0.00    +0.000 C 
ATOM     14  C   UNL     1       2.264   3.293  21.886  0.00  0.00    +0.000 C 
ATOM     15  C   UNL     1       2.192   4.645  21.185  0.00  0.00    +0.000 C 
ATOM     16  C   UNL     1       1.505   4.378  19.833  0.00  0.00    +0.000 C 
ENDBRANCH   1  16
BRANCH   7  17
ATOM     17  C   UNL     1       6.852   4.031  14.998  0.00  0.00    +0.000 C 
BRANCH  17  18
ATOM     18  O   UNL     1       6.200   3.387  13.911  0.00  0.00    +0.000 OA
ATOM     19  H   UNL     1       5.457   2.885  14.289  0.00  0.00    +0.000 HD
ENDBRANCH  17  18
ENDBRANCH   7  17
TORSDOF 3
ENDMDL
MODEL 8
REMARK VINA RESULT:      -6.5      4.207      7.377
REMARK  Name = 
REMARK  4 active torsions:
REMARK  status: ('A' for Active; 'I' for Inactive)
REMARK    1  A    between atoms: C_1  and  N_2
REMARK    2  A    between atoms: C_6  and  C_7
REMARK    3  A    between atoms: C_13  and  C_14
REMARK    4  A    between atoms: C_14  and  O_15
REMARK                            x       y       z     vdW  Elec       q    Type
REMARK                         _______ _______ _______ _____ _____    ______ ____
ROOT
ATOM      1  C   UNL     1       2.986   7.058  18.500  0.00  0.00    +0.000 C 
ATOM      2  C   UNL     1       2.218   7.849  17.435  0.00  0.00    +0.000 C 
ATOM      3  O   UNL     1       2.032   9.212  17.834  0.00  0.00    +0.000 OA
ATOM      4  C   UNL     1       1.465   9.262  19.076  0.00  0.00    +0.000 A 
ATOM      5  C   UNL     1       0.715  10.395  19.389  0.00  0.00    +0.000 A 
ATOM      6  C   UNL     1       0.078  10.486  20.627  0.00  0.00    +0.000 A 
ATOM      7  C   UNL     1       0.190   9.455  21.568  0.00  0.00    +0.000 A 
ATOM      8  C   UNL     1       0.971   8.333  21.252  0.00  0.00    +0.000 A 
ATOM      9  C   UNL     1       1.613   8.244  20.016  0.00  0.00    +0.000 A 
ATOM     10  O   UNL     1       2.358   7.119  19.798  0.00  0.00    +0.000 OA
ENDROOT
BRANCH   1  16
ATOM     11  C   UNL     1       5.279   4.912  19.211  0.00  0.00    +0.000 C 
ATOM     12  N   UNL     1       3.831   4.719  19.160  0.00  0.00    +0.000 NA
ATOM     13  C   UNL     1       3.508   3.338  18.797  0.00  0.00    +0.000 C 
ATOM     14  C   UNL     1       2.032   3.419  18.468  0.00  0.00    +0.000 C 
ATOM     15  C   UNL     1       1.829   4.823  17.907  0.00  0.00    +0.000 C 
ATOM     16  C   UNL     1       3.161   5.560  18.138  0.00  0.00    +0.000 C 
ENDBRANCH   1  16
BRANCH   7  17
ATOM     17  C   UNL     1      -0.534   9.548  22.887  0.00  0.00    +0.000 C 
BRANCH  17  18
ATOM     18  O   UNL     1       0.394   9.644  23.960  0.00  0.00    +0.000 OA
ATOM     19  H   UNL     1       0.638   8.734  24.201  0.00  0.00    +0.000 HD
ENDBRANCH  17  18
ENDBRANCH   7  17
TORSDOF 3
ENDMDL
MODEL 9
REMARK VINA RESULT:      -6.4      4.206      7.214
REMARK  Name = 
REMARK  4 active torsions:
REMARK  status: ('A' for Active; 'I' for Inactive)
REMARK    1  A    between atoms: C_1  and  N_2
REMARK    2  A    between atoms: C_6  and  C_7
REMARK    3  A    between atoms: C_13  and  C_14
REMARK    4  A    between atoms: C_14  and  O_15
REMARK                            x       y       z     vdW  Elec       q    Type
REMARK                         _______ _______ _______ _____ _____    ______ ____
ROOT
ATOM      1  C   UNL     1       2.600   6.144  19.458  0.00  0.00    +0.000 C 
ATOM      2  C   UNL     1       2.220   6.713  18.088  0.00  0.00    +0.000 C 
ATOM      3  O   UNL     1       2.408   8.132  18.044  0.00  0.00    +0.000 OA
ATOM      4  C   UNL     1       1.755   8.722  19.088  0.00  0.00    +0.000 A 
ATOM      5  C   UNL     1       1.348  10.045  18.919  0.00  0.00    +0.000 A 
ATOM      6  C   UNL     1       0.640  10.689  19.936  0.00  0.00    +0.000 A 
ATOM      7  C   UNL     1       0.339  10.025  21.132  0.00  0.00    +0.000 A 
ATOM      8  C   UNL     1       0.779   8.704  21.300  0.00  0.00    +0.000 A 
ATOM      9  C   UNL     1       1.492   8.061  20.286  0.00  0.00    +0.000 A 
ATOM     10  O   UNL     1       1.887   6.777  20.541  0.00  0.00    +0.000 OA
ENDROOT
BRANCH   1  16
ATOM     11  C   UNL     1       4.587   3.616  19.276  0.00  0.00    +0.000 C 
ATOM     12  N   UNL     1       3.458   3.828  20.180  0.00  0.00    +0.000 NA
ATOM     13  C   UNL     1       2.855   2.548  20.557  0.00  0.00    +0.000 C 
ATOM     14  C   UNL     1       1.545   2.974  21.189  0.00  0.00    +0.000 C 
ATOM     15  C   UNL     1       1.148   4.249  20.452  0.00  0.00    +0.000 C 
ATOM     16  C   UNL     1       2.358   4.616  19.573  0.00  0.00    +0.000 C 
ENDBRANCH   1  16
BRANCH   7  17
ATOM     17  C   UNL     1      -0.458  10.719  22.206  0.00  0.00    +0.000 C 
BRANCH  17  18
ATOM     18  O   UNL     1      -0.102  10.225  23.491  0.00  0.00    +0.000 OA
ATOM     19  H   UNL     1      -0.087   9.254  23.422  0.00  0.00    +0.000 HD
ENDBRANCH  17  18
ENDBRANCH   7  17
TORSDOF 3
ENDMDL
