MODEL 1
REMARK VINA RESULT:      -8.2      0.000      0.000
REMARK  Name = 
REMARK  6 active torsions:
REMARK  status: ('A' for Active; 'I' for Inactive)
REMARK    1  A    between atoms: C_5  and  C_6
REMARK    2  A    between atoms: C_9  and  C_10
REMARK    3  A    between atoms: C_10  and  C_11
REMARK    4  A    between atoms: C_11  and  C_12
REMARK    5  A    between atoms: C_12  and  N_13
REMARK    6  A    between atoms: C_19  and  C_20
REMARK                            x       y       z     vdW  Elec       q    Type
REMARK                         _______ _______ _______ _____ _____    ______ ____
ROOT
ATOM      1  C   UNL     1       2.367   7.447  18.934  0.00  0.00    +0.000 A 
ATOM      2  N   UNL     1       3.105   8.109  17.987  0.00  0.00    +0.000 N 
ATOM      3  C   UNL     1       3.851   7.228  17.269  0.00  0.00    +0.000 A 
ATOM      4  C   UNL     1       3.506   5.941  17.628  0.00  0.00    +0.000 A 
ATOM      5  C   UNL     1       2.644   6.077  18.790  0.00  0.00    +0.000 A 
ATOM      6  H   UNL     1       3.114   9.106  17.855  0.00  0.00    +0.000 HD
ENDROOT
BRANCH   1  11
ATOM      7  F   UNL     1      -0.387  10.751  22.509  0.00  0.00    +0.000 F 
ATOM      8  C   UNL     1       0.197   9.903  21.655  0.00  0.00    +0.000 A 
ATOM      9  C   UNL     1       0.948   8.843  22.145  0.00  0.00    +0.000 A 
ATOM     10  C   UNL     1       1.581   7.977  21.252  0.00  0.00    +0.000 A 
ATOM     11  C   UNL     1       1.532   8.217  19.872  0.00  0.00    +0.000 A 
ATOM     12  C   UNL     1       0.729   9.269  19.398  0.00  0.00    +0.000 A 
ATOM     13  C   UNL     1       0.056  10.105  20.288  0.00  0.00    +0.000 A 
ENDBRANCH   1  11
BRANCH   5  14
ATOM     14  C   UNL     1       2.106   5.048  19.697  0.00  0.00    +0.000 A 
ATOM     15  C   UNL     1       1.069   4.202  19.279  0.00  0.00    +0.000 A 
ATOM     16  C   UNL     1       0.708   3.124  20.073  0.00  0.00    +0.000 A 
ATOM     17  N   UNL     1       1.229   2.892  21.290  0.00  0.00    +0.000 NA
ATOM     18  C   UNL     1       2.158   3.771  21.721  0.00  0.00    +0.000 A 
ATOM     19  C   UNL     1       2.632   4.838  20.969  0.00  0.00    +0.000 A 
ENDBRANCH   5  14
BRANCH   4  20
ATOM     20  C   UNL     1       4.006   4.680  16.960  0.00  0.00    +0.000 C 
BRANCH  20  21
ATOM     21  C   UNL     1       4.951   3.799  17.805  0.00  0.00    +0.000 C 
BRANCH  21  22
ATOM     22  C   UNL     1       5.798   4.590  18.825  0.00  0.00    +0.000 C 
BRANCH  22  23
ATOM     23  N   UNL     1       7.235   4.691  18.500  0.00  0.00    +0.000 NA
ATOM     24  C   UNL     1       7.879   5.972  18.866  0.00  0.00    +0.000 C 
ATOM     25  C   UNL     1       7.525   7.162  17.956  0.00  0.00    +0.000 C 
ATOM     26  O   UNL     1       7.787   6.871  16.579  0.00  0.00    +0.000 OA
ATOM     27  C   UNL     1       7.084   5.692  16.169  0.00  0.00    +0.000 C 
ATOM     28  C   UNL     1       7.460   4.481  17.046  0.00  0.00    +0.000 C 
ENDBRANCH  22  23
ENDBRANCH  21  22
ENDBRANCH  20  21
ENDBRANCH   4  20
TORSDOF 6
ENDMDL
MODEL 2
REMARK VINA RESULT:      -7.8      3.789      7.383
REMARK  Name = 
REMARK  6 active torsions:
REMARK  status: ('A' for Active; 'I' for Inactive)
REMARK    1  A    between atoms: C_5  and  C_6
REMARK    2  A    between atoms: C_9  and  C_10
REMARK    3  A    between atoms: C_10  and  C_11
REMARK    4  A    between atoms: C_11  and  C_12
REMARK    5  A    between atoms: C_12  and  N_13
REMARK    6  A    between atoms: C_19  and  C_20
REMARK                            x       y       z     vdW  Elec       q    Type
REMARK                         _______ _______ _______ _____ _____    ______ ____
ROOT
ATOM      1  C   UNL     1       3.118   6.720  18.337  0.00  0.00    +0.000 A 
ATOM      2  N   UNL     1       3.003   8.063  18.086  0.00  0.00    +0.000 N 
ATOM      3  C   UNL     1       2.094   8.624  18.926  0.00  0.00    +0.000 A 
ATOM      4  C   UNL     1       1.696   7.687  19.859  0.00  0.00    +0.000 A 
ATOM      5  C   UNL     1       2.254   6.424  19.406  0.00  0.00    +0.000 A 
ATOM      6  H   UNL     1       3.500   8.560  17.368  0.00  0.00    +0.000 HD
ENDROOT
BRANCH   1  11
ATOM      7  F   UNL     1       6.063   3.586  14.762  0.00  0.00    +0.000 F 
ATOM      8  C   UNL     1       5.434   4.335  15.675  0.00  0.00    +0.000 A 
ATOM      9  C   UNL     1       4.721   3.720  16.695  0.00  0.00    +0.000 A 
ATOM     10  C   UNL     1       4.041   4.502  17.628  0.00  0.00    +0.000 A 
ATOM     11  C   UNL     1       4.003   5.897  17.496  0.00  0.00    +0.000 A 
ATOM     12  C   UNL     1       4.769   6.499  16.483  0.00  0.00    +0.000 A 
ATOM     13  C   UNL     1       5.489   5.719  15.578  0.00  0.00    +0.000 A 
ENDBRANCH   1  11
BRANCH   5  14
ATOM     14  C   UNL     1       2.032   5.056  19.905  0.00  0.00    +0.000 A 
ATOM     15  C   UNL     1       2.588   4.642  21.124  0.00  0.00    +0.000 A 
ATOM     16  C   UNL     1       2.213   3.422  21.664  0.00  0.00    +0.000 A 
ATOM     17  N   UNL     1       1.411   2.546  21.033  0.00  0.00    +0.000 NA
ATOM     18  C   UNL     1       0.961   2.917  19.816  0.00  0.00    +0.000 A 
ATOM     19  C   UNL     1       1.226   4.146  19.226  0.00  0.00    +0.000 A 
ENDBRANCH   5  14
BRANCH   4  20
ATOM     20  C   UNL     1       0.804   7.958  21.049  0.00  0.00    +0.000 C 
BRANCH  20  21
ATOM     21  C   UNL     1       1.098   9.256  21.831  0.00  0.00    +0.000 C 
BRANCH  21  22
ATOM     22  C   UNL     1      -0.164   9.951  22.386  0.00  0.00    +0.000 C 
BRANCH  22  23
ATOM     23  N   UNL     1      -0.064  11.417  22.520  0.00  0.00    +0.000 NA
ATOM     24  C   UNL     1      -1.301  12.100  22.961  0.00  0.00    +0.000 C 
ATOM     25  C   UNL     1      -2.401  12.211  21.891  0.00  0.00    +0.000 C 
ATOM     26  O   UNL     1      -1.915  12.828  20.694  0.00  0.00    +0.000 OA
ATOM     27  C   UNL     1      -0.780  12.118  20.184  0.00  0.00    +0.000 C 
ATOM     28  C   UNL     1       0.348  12.035  21.232  0.00  0.00    +0.000 C 
ENDBRANCH  22  23
ENDBRANCH  21  22
ENDBRANCH  20  21
ENDBRANCH   4  20
TORSDOF 6
ENDMDL
MODEL 3
REMARK VINA RESULT:      -7.8      3.659      7.210
REMARK  Name = 
REMARK  6 active torsions:
REMARK  status: ('A' for Active; 'I' for Inactive)
REMARK    1  A    between atoms: C_5  and  C_6
REMARK    2  A    between atoms: C_9  and  C_10
REMARK    3  A    between atoms: C_10  and  C_11
REMARK    4  A    between atoms: C_11  and  C_12
REMARK    5  A    between atoms: C_12  and  N_13
REMARK    6  A    between atoms: C_19  and  C_20
REMARK                            x       y       z     vdW  Elec       q    Type
REMARK                         _______ _______ _______ _____ _____    ______ ____
ROOT
ATOM      1  C   UNL     1       2.998   6.681  18.351  0.00  0.00    +0.000 A 
ATOM      2  N   UNL     1       2.870   8.031  18.147  0.00  0.00    +0.000 N 
ATOM      3  C   UNL     1       2.027   8.569  19.066  0.00  0.00    +0.000 A 
ATOM      4  C   UNL     1       1.695   7.607  19.999  0.00  0.00    +0.000 A 
ATOM      5  C   UNL     1       2.214   6.357  19.471  0.00  0.00    +0.000 A 
ATOM      6  H   UNL     1       3.316   8.547  17.408  0.00  0.00    +0.000 HD
ENDROOT
BRANCH   1  11
ATOM      7  F   UNL     1       6.481   3.591  15.252  0.00  0.00    +0.000 F 
ATOM      8  C   UNL     1       5.589   4.332  15.919  0.00  0.00    +0.000 A 
ATOM      9  C   UNL     1       5.650   5.717  15.839  0.00  0.00    +0.000 A 
ATOM     10  C   UNL     1       4.738   6.489  16.559  0.00  0.00    +0.000 A 
ATOM     11  C   UNL     1       3.817   5.881  17.424  0.00  0.00    +0.000 A 
ATOM     12  C   UNL     1       3.745   4.478  17.455  0.00  0.00    +0.000 A 
ATOM     13  C   UNL     1       4.625   3.705  16.697  0.00  0.00    +0.000 A 
ENDBRANCH   1  11
BRANCH   5  14
ATOM     14  C   UNL     1       2.023   4.976  19.947  0.00  0.00    +0.000 A 
ATOM     15  C   UNL     1       2.647   4.533  21.122  0.00  0.00    +0.000 A 
ATOM     16  C   UNL     1       2.306   3.298  21.651  0.00  0.00    +0.000 A 
ATOM     17  N   UNL     1       1.473   2.435  21.043  0.00  0.00    +0.000 NA
ATOM     18  C   UNL     1       0.955   2.835  19.863  0.00  0.00    +0.000 A 
ATOM     19  C   UNL     1       1.183   4.079  19.290  0.00  0.00    +0.000 A 
ENDBRANCH   5  14
BRANCH   4  20
ATOM     20  C   UNL     1       0.893   7.846  21.258  0.00  0.00    +0.000 C 
BRANCH  20  21
ATOM     21  C   UNL     1       1.221   9.141  22.031  0.00  0.00    +0.000 C 
BRANCH  21  22
ATOM     22  C   UNL     1       0.006  10.072  22.234  0.00  0.00    +0.000 C 
BRANCH  22  23
ATOM     23  N   UNL     1       0.269  11.505  21.999  0.00  0.00    +0.000 NA
ATOM     24  C   UNL     1      -0.877  12.409  22.245  0.00  0.00    +0.000 C 
ATOM     25  C   UNL     1      -1.978  12.372  21.171  0.00  0.00    +0.000 C 
ATOM     26  O   UNL     1      -1.450  12.614  19.863  0.00  0.00    +0.000 OA
ATOM     27  C   UNL     1      -0.410  11.678  19.556  0.00  0.00    +0.000 C 
ATOM     28  C   UNL     1       0.722  11.733  20.602  0.00  0.00    +0.000 C 
ENDBRANCH  22  23
ENDBRANCH  21  22
ENDBRANCH  20  21
ENDBRANCH   4  20
TORSDOF 6
ENDMDL
MODEL 4
REMARK VINA RESULT:      -7.7      3.518      7.016
REMARK  Name = 
REMARK  6 active torsions:
REMARK  status: ('A' for Active; 'I' for Inactive)
REMARK    1  A    between atoms: C_5  and  C_6
REMARK    2  A    between atoms: C_9  and  C_10
REMARK    3  A    between atoms: C_10  and  C_11
REMARK    4  A    between atoms: C_11  and  C_12
REMARK    5  A    between atoms: C_12  and  N_13
REMARK    6  A    between atoms: C_19  and  C_20
REMARK                            x       y       z     vdW  Elec       q    Type
REMARK                         _______ _______ _______ _____ _____    ______ ____
ROOT
ATOM      1  C   UNL     1       3.195   6.668  18.232  0.00  0.00    +0.000 A 
ATOM      2  N   UNL     1       3.103   8.007  17.953  0.00  0.00    +0.000 N 
ATOM      3  C   UNL     1       2.201   8.601  18.779  0.00  0.00    +0.000 A 
ATOM      4  C   UNL     1       1.785   7.690  19.729  0.00  0.00    +0.000 A 
ATOM      5  C   UNL     1       2.323   6.409  19.304  0.00  0.00    +0.000 A 
ATOM      6  H   UNL     1       3.611   8.481  17.227  0.00  0.00    +0.000 HD
ENDROOT
BRANCH   1  11
ATOM      7  F   UNL     1       6.105   3.430  14.721  0.00  0.00    +0.000 F 
ATOM      8  C   UNL     1       5.482   4.200  15.621  0.00  0.00    +0.000 A 
ATOM      9  C   UNL     1       4.722   3.611  16.621  0.00  0.00    +0.000 A 
ATOM     10  C   UNL     1       4.050   4.417  17.540  0.00  0.00    +0.000 A 
ATOM     11  C   UNL     1       4.069   5.813  17.410  0.00  0.00    +0.000 A 
ATOM     12  C   UNL     1       4.881   6.387  16.417  0.00  0.00    +0.000 A 
ATOM     13  C   UNL     1       5.593   5.581  15.529  0.00  0.00    +0.000 A 
ENDBRANCH   1  11
BRANCH   5  14
ATOM     14  C   UNL     1       2.076   5.055  19.830  0.00  0.00    +0.000 A 
ATOM     15  C   UNL     1       2.624   4.656  21.057  0.00  0.00    +0.000 A 
ATOM     16  C   UNL     1       2.228   3.453  21.622  0.00  0.00    +0.000 A 
ATOM     17  N   UNL     1       1.411   2.580  21.008  0.00  0.00    +0.000 NA
ATOM     18  C   UNL     1       0.968   2.934  19.783  0.00  0.00    +0.000 A 
ATOM     19  C   UNL     1       1.254   4.146  19.169  0.00  0.00    +0.000 A 
ENDBRANCH   5  14
BRANCH   4  20
ATOM     20  C   UNL     1       0.895   8.000  20.911  0.00  0.00    +0.000 C 
BRANCH  20  21
ATOM     21  C   UNL     1       0.878   9.472  21.374  0.00  0.00    +0.000 C 
BRANCH  21  22
ATOM     22  C   UNL     1      -0.302  10.292  20.808  0.00  0.00    +0.000 C 
BRANCH  22  23
ATOM     23  N   UNL     1      -0.173  11.755  20.953  0.00  0.00    +0.000 NA
ATOM     24  C   UNL     1      -1.167  12.556  20.203  0.00  0.00    +0.000 C 
ATOM     25  C   UNL     1      -0.937  12.624  18.684  0.00  0.00    +0.000 C 
ATOM     26  O   UNL     1       0.382  13.082  18.368  0.00  0.00    +0.000 OA
ATOM     27  C   UNL     1       1.368  12.253  18.994  0.00  0.00    +0.000 C 
ATOM     28  C   UNL     1       1.175  12.209  20.524  0.00  0.00    +0.000 C 
ENDBRANCH  22  23
ENDBRANCH  21  22
ENDBRANCH  20  21
ENDBRANCH   4  20
TORSDOF 6
ENDMDL
MODEL 5
REMARK VINA RESULT:      -7.7      3.805      7.175
REMARK  Name = 
REMARK  6 active torsions:
REMARK  status: ('A' for Active; 'I' for Inactive)
REMARK    1  A    between atoms: C_5  and  C_6
REMARK    2  A    between atoms: C_9  and  C_10
REMARK    3  A    between atoms: C_10  and  C_11
REMARK    4  A    between atoms: C_11  and  C_12
REMARK    5  A    between atoms: C_12  and  N_13
REMARK    6  A    between atoms: C_19  and  C_20
REMARK                            x       y       z     vdW  Elec       q    Type
REMARK                         _______ _______ _______ _____ _____    ______ ____
ROOT
ATOM      1  C   UNL     1       3.515   6.500  17.854  0.00  0.00    +0.000 A 
ATOM      2  N   UNL     1       3.468   7.863  17.713  0.00  0.00    +0.000 N 
ATOM      3  C   UNL     1       2.545   8.394  18.558  0.00  0.00    +0.000 A 
ATOM      4  C   UNL     1       2.067   7.401  19.391  0.00  0.00    +0.000 A 
ATOM      5  C   UNL     1       2.592   6.157  18.857  0.00  0.00    +0.000 A 
ATOM      6  H   UNL     1       4.018   8.395  17.061  0.00  0.00    +0.000 HD
ENDROOT
BRANCH   1  11
ATOM      7  F   UNL     1       6.450   3.448  14.200  0.00  0.00    +0.000 F 
ATOM      8  C   UNL     1       5.827   4.185  15.127  0.00  0.00    +0.000 A 
ATOM      9  C   UNL     1       5.227   3.560  16.211  0.00  0.00    +0.000 A 
ATOM     10  C   UNL     1       4.551   4.327  17.161  0.00  0.00    +0.000 A 
ATOM     11  C   UNL     1       4.404   5.711  16.984  0.00  0.00    +0.000 A 
ATOM     12  C   UNL     1       5.058   6.326  15.903  0.00  0.00    +0.000 A 
ATOM     13  C   UNL     1       5.775   5.565  14.980  0.00  0.00    +0.000 A 
ENDBRANCH   1  11
BRANCH   5  14
ATOM     14  C   UNL     1       2.290   4.764  19.228  0.00  0.00    +0.000 A 
ATOM     15  C   UNL     1       1.405   3.996  18.459  0.00  0.00    +0.000 A 
ATOM     16  C   UNL     1       1.281   2.639  18.713  0.00  0.00    +0.000 A 
ATOM     17  N   UNL     1       1.892   2.018  19.738  0.00  0.00    +0.000 NA
ATOM     18  C   UNL     1       2.665   2.789  20.530  0.00  0.00    +0.000 A 
ATOM     19  C   UNL     1       2.904   4.140  20.312  0.00  0.00    +0.000 A 
ENDBRANCH   5  14
BRANCH   4  20
ATOM     20  C   UNL     1       1.133   7.613  20.561  0.00  0.00    +0.000 C 
BRANCH  20  21
ATOM     21  C   UNL     1       0.992   9.068  21.057  0.00  0.00    +0.000 C 
BRANCH  21  22
ATOM     22  C   UNL     1      -0.296   9.770  20.576  0.00  0.00    +0.000 C 
BRANCH  22  23
ATOM     23  N   UNL     1      -0.103  10.771  19.508  0.00  0.00    +0.000 NA
ATOM     24  C   UNL     1      -0.740  12.085  19.747  0.00  0.00    +0.000 C 
ATOM     25  C   UNL     1      -2.269  12.108  19.578  0.00  0.00    +0.000 C 
ATOM     26  O   UNL     1      -2.667  11.610  18.296  0.00  0.00    +0.000 OA
ATOM     27  C   UNL     1      -2.153  10.290  18.085  0.00  0.00    +0.000 C 
ATOM     28  C   UNL     1      -0.616  10.259  18.211  0.00  0.00    +0.000 C 
ENDBRANCH  22  23
ENDBRANCH  21  22
ENDBRANCH  20  21
ENDBRANCH   4  20
TORSDOF 6
ENDMDL
MODEL 6
REMARK VINA RESULT:      -7.7      3.735      6.098
REMARK  Name = 
REMARK  6 active torsions:
REMARK  status: ('A' for Active; 'I' for Inactive)
REMARK    1  A    between atoms: C_5  and  C_6
REMARK    2  A    between atoms: C_9  and  C_10
REMARK    3  A    between atoms: C_10  and  C_11
REMARK    4  A    between atoms: C_11  and  C_12
REMARK    5  A    between atoms: C_12  and  N_13
REMARK    6  A    between atoms: C_19  and  C_20
REMARK                            x       y       z     vdW  Elec       q    Type
REMARK                         _______ _______ _______ _____ _____    ______ ____
ROOT
ATOM      1  C   UNL     1       5.336   4.755  17.886  0.00  0.00    +0.000 A 
ATOM      2  N   UNL     1       6.594   4.421  17.455  0.00  0.00    +0.000 N 
ATOM      3  C   UNL     1       7.287   5.538  17.108  0.00  0.00    +0.000 A 
ATOM      4  C   UNL     1       6.549   6.655  17.448  0.00  0.00    +0.000 A 
ATOM      5  C   UNL     1       5.239   6.157  17.830  0.00  0.00    +0.000 A 
ATOM      6  H   UNL     1       6.948   3.484  17.382  0.00  0.00    +0.000 HD
ENDROOT
BRANCH   1  11
ATOM      7  F   UNL     1       1.369   1.119  19.409  0.00  0.00    +0.000 F 
ATOM      8  C   UNL     1       2.372   1.915  19.021  0.00  0.00    +0.000 A 
ATOM      9  C   UNL     1       3.356   2.273  19.932  0.00  0.00    +0.000 A 
ATOM     10  C   UNL     1       4.385   3.127  19.535  0.00  0.00    +0.000 A 
ATOM     11  C   UNL     1       4.387   3.690  18.250  0.00  0.00    +0.000 A 
ATOM     12  C   UNL     1       3.406   3.278  17.332  0.00  0.00    +0.000 A 
ATOM     13  C   UNL     1       2.405   2.385  17.715  0.00  0.00    +0.000 A 
ENDBRANCH   1  11
BRANCH   5  14
ATOM     14  C   UNL     1       3.997   6.889  18.129  0.00  0.00    +0.000 A 
ATOM     15  C   UNL     1       3.277   6.622  19.303  0.00  0.00    +0.000 A 
ATOM     16  C   UNL     1       2.221   7.448  19.657  0.00  0.00    +0.000 A 
ATOM     17  N   UNL     1       1.770   8.449  18.881  0.00  0.00    +0.000 NA
ATOM     18  C   UNL     1       2.411   8.633  17.708  0.00  0.00    +0.000 A 
ATOM     19  C   UNL     1       3.520   7.902  17.301  0.00  0.00    +0.000 A 
ENDBRANCH   5  14
BRANCH   4  20
ATOM     20  C   UNL     1       7.031   8.085  17.355  0.00  0.00    +0.000 C 
BRANCH  20  21
ATOM     21  C   UNL     1       8.268   8.437  18.208  0.00  0.00    +0.000 C 
BRANCH  21  22
ATOM     22  C   UNL     1       8.559   9.951  18.292  0.00  0.00    +0.000 C 
BRANCH  22  23
ATOM     23  N   UNL     1       9.725  10.319  19.119  0.00  0.00    +0.000 NA
ATOM     24  C   UNL     1       9.407  10.985  20.402  0.00  0.00    +0.000 C 
ATOM     25  C   UNL     1       8.951  12.449  20.281  0.00  0.00    +0.000 C 
ATOM     26  O   UNL     1       9.898  13.240  19.555  0.00  0.00    +0.000 OA
ATOM     27  C   UNL     1      10.141  12.675  18.261  0.00  0.00    +0.000 C 
ATOM     28  C   UNL     1      10.638  11.219  18.368  0.00  0.00    +0.000 C 
ENDBRANCH  22  23
ENDBRANCH  21  22
ENDBRANCH  20  21
ENDBRANCH   4  20
TORSDOF 6
ENDMDL
MODEL 7
REMARK VINA RESULT:      -7.6      3.678      7.211
REMARK  Name = 
REMARK  6 active torsions:
REMARK  status: ('A' for Active; 'I' for Inactive)
REMARK    1  A    between atoms: C_5  and  C_6
REMARK    2  A    between atoms: C_9  and  C_10
REMARK    3  A    between atoms: C_10  and  C_11
REMARK    4  A    between atoms: C_11  and  C_12
REMARK    5  A    between atoms: C_12  and  N_13
REMARK    6  A    between atoms: C_19  and  C_20
REMARK                            x       y       z     vdW  Elec       q    Type
REMARK                         _______ _______ _______ _____ _____    ______ ____
ROOT
ATOM      1  C   UNL     1       3.205   6.655  18.226  0.00  0.00    +0.000 A 
ATOM      2  N   UNL     1       3.103   7.999  17.975  0.00  0.00    +0.000 N 
ATOM      3  C   UNL     1       2.192   8.567  18.809  0.00  0.00    +0.000 A 
ATOM      4  C   UNL     1       1.779   7.632  19.738  0.00  0.00    +0.000 A 
ATOM      5  C   UNL     1       2.330   6.365  19.288  0.00  0.00    +0.000 A 
ATOM      6  H   UNL     1       3.611   8.492  17.262  0.00  0.00    +0.000 HD
ENDROOT
BRANCH   1  11
ATOM      7  F   UNL     1       6.141   3.476  14.683  0.00  0.00    +0.000 F 
ATOM      8  C   UNL     1       5.515   4.239  15.586  0.00  0.00    +0.000 A 
ATOM      9  C   UNL     1       4.833   3.639  16.636  0.00  0.00    +0.000 A 
ATOM     10  C   UNL     1       4.156   4.435  17.561  0.00  0.00    +0.000 A 
ATOM     11  C   UNL     1       4.090   5.825  17.391  0.00  0.00    +0.000 A 
ATOM     12  C   UNL     1       4.824   6.412  16.346  0.00  0.00    +0.000 A 
ATOM     13  C   UNL     1       5.542   5.620  15.450  0.00  0.00    +0.000 A 
ENDBRANCH   1  11
BRANCH   5  14
ATOM     14  C   UNL     1       2.091   4.999  19.784  0.00  0.00    +0.000 A 
ATOM     15  C   UNL     1       2.603   4.591  21.024  0.00  0.00    +0.000 A 
ATOM     16  C   UNL     1       2.210   3.372  21.555  0.00  0.00    +0.000 A 
ATOM     17  N   UNL     1       1.434   2.492  20.898  0.00  0.00    +0.000 NA
ATOM     18  C   UNL     1       1.029   2.857  19.664  0.00  0.00    +0.000 A 
ATOM     19  C   UNL     1       1.313   4.084  19.079  0.00  0.00    +0.000 A 
ENDBRANCH   5  14
BRANCH   4  20
ATOM     20  C   UNL     1       0.880   7.910  20.921  0.00  0.00    +0.000 C 
BRANCH  20  21
ATOM     21  C   UNL     1       1.297   9.093  21.821  0.00  0.00    +0.000 C 
BRANCH  21  22
ATOM     22  C   UNL     1       0.115   9.972  22.284  0.00  0.00    +0.000 C 
BRANCH  22  23
ATOM     23  N   UNL     1      -0.522  10.773  21.220  0.00  0.00    +0.000 NA
ATOM     24  C   UNL     1       0.410  11.477  20.311  0.00  0.00    +0.000 C 
ATOM     25  C   UNL     1       1.100  12.712  20.915  0.00  0.00    +0.000 C 
ATOM     26  O   UNL     1       0.150  13.646  21.440  0.00  0.00    +0.000 OA
ATOM     27  C   UNL     1      -0.697  13.014  22.408  0.00  0.00    +0.000 C 
ATOM     28  C   UNL     1      -1.427  11.797  21.805  0.00  0.00    +0.000 C 
ENDBRANCH  22  23
ENDBRANCH  21  22
ENDBRANCH  20  21
ENDBRANCH   4  20
TORSDOF 6
ENDMDL
MODEL 8
REMARK VINA RESULT:      -7.6      3.724      7.221
REMARK  Name = 
REMARK  6 active torsions:
REMARK  status: ('A' for Active; 'I' for Inactive)
REMARK    1  A    between atoms: C_5  and  C_6
REMARK    2  A    between atoms: C_9  and  C_10
REMARK    3  A    between atoms: C_10  and  C_11
REMARK    4  A    between atoms: C_11  and  C_12
REMARK    5  A    between atoms: C_12  and  N_13
REMARK    6  A    between atoms: C_19  and  C_20
REMARK                            x       y       z     vdW  Elec       q    Type
REMARK                         _______ _______ _______ _____ _____    ______ ____
ROOT
ATOM      1  C   UNL     1       3.255   6.662  18.197  0.00  0.00    +0.000 A 
ATOM      2  N   UNL     1       3.176   8.004  17.929  0.00  0.00    +0.000 N 
ATOM      3  C   UNL     1       2.274   8.598  18.755  0.00  0.00    +0.000 A 
ATOM      4  C   UNL     1       1.846   7.682  19.695  0.00  0.00    +0.000 A 
ATOM      5  C   UNL     1       2.375   6.401  19.261  0.00  0.00    +0.000 A 
ATOM      6  H   UNL     1       3.692   8.480  17.209  0.00  0.00    +0.000 HD
ENDROOT
BRANCH   1  11
ATOM      7  F   UNL     1       6.142   3.394  14.694  0.00  0.00    +0.000 F 
ATOM      8  C   UNL     1       5.527   4.177  15.588  0.00  0.00    +0.000 A 
ATOM      9  C   UNL     1       4.828   3.600  16.639  0.00  0.00    +0.000 A 
ATOM     10  C   UNL     1       4.163   4.417  17.554  0.00  0.00    +0.000 A 
ATOM     11  C   UNL     1       4.127   5.807  17.372  0.00  0.00    +0.000 A 
ATOM     12  C   UNL     1       4.879   6.371  16.327  0.00  0.00    +0.000 A 
ATOM     13  C   UNL     1       5.584   5.557  15.441  0.00  0.00    +0.000 A 
ENDBRANCH   1  11
BRANCH   5  14
ATOM     14  C   UNL     1       2.114   5.045  19.774  0.00  0.00    +0.000 A 
ATOM     15  C   UNL     1       2.621   4.643  21.018  0.00  0.00    +0.000 A 
ATOM     16  C   UNL     1       2.209   3.437  21.565  0.00  0.00    +0.000 A 
ATOM     17  N   UNL     1       1.416   2.563  20.920  0.00  0.00    +0.000 NA
ATOM     18  C   UNL     1       1.014   2.920  19.683  0.00  0.00    +0.000 A 
ATOM     19  C   UNL     1       1.318   4.135  19.082  0.00  0.00    +0.000 A 
ENDBRANCH   5  14
BRANCH   4  20
ATOM     20  C   UNL     1       0.951   7.990  20.874  0.00  0.00    +0.000 C 
BRANCH  20  21
ATOM     21  C   UNL     1       0.889   9.470  21.306  0.00  0.00    +0.000 C 
BRANCH  21  22
ATOM     22  C   UNL     1      -0.407  10.192  20.877  0.00  0.00    +0.000 C 
BRANCH  22  23
ATOM     23  N   UNL     1      -0.340  10.876  19.570  0.00  0.00    +0.000 NA
ATOM     24  C   UNL     1       0.584  12.030  19.505  0.00  0.00    +0.000 C 
ATOM     25  C   UNL     1       0.088  13.302  20.215  0.00  0.00    +0.000 C 
ATOM     26  O   UNL     1      -1.206  13.698  19.749  0.00  0.00    +0.000 OA
ATOM     27  C   UNL     1      -2.148  12.630  19.903  0.00  0.00    +0.000 C 
ATOM     28  C   UNL     1      -1.684  11.360  19.162  0.00  0.00    +0.000 C 
ENDBRANCH  22  23
ENDBRANCH  21  22
ENDBRANCH  20  21
ENDBRANCH   4  20
TORSDOF 6
ENDMDL
MODEL 9
REMARK VINA RESULT:      -7.5      3.624      6.998
REMARK  Name = 
REMARK  6 active torsions:
REMARK  status: ('A' for Active; 'I' for Inactive)
REMARK    1  A    between atoms: C_5  and  C_6
REMARK    2  A    between atoms: C_9  and  C_10
REMARK    3  A    between atoms: C_10  and  C_11
REMARK    4  A    between atoms: C_11  and  C_12
REMARK    5  A    between atoms: C_12  and  N_13
REMARK    6  A    between atoms: C_19  and  C_20
REMARK                            x       y       z     vdW  Elec       q    Type
REMARK                         _______ _______ _______ _____ _____    ______ ____
ROOT
ATOM      1  C   UNL     1       3.479   6.469  17.964  0.00  0.00    +0.000 A 
ATOM      2  N   UNL     1       3.395   7.834  17.871  0.00  0.00    +0.000 N 
ATOM      3  C   UNL     1       2.476   8.312  18.751  0.00  0.00    +0.000 A 
ATOM      4  C   UNL     1       2.038   7.280  19.557  0.00  0.00    +0.000 A 
ATOM      5  C   UNL     1       2.584   6.068  18.971  0.00  0.00    +0.000 A 
ATOM      6  H   UNL     1       3.919   8.401  17.228  0.00  0.00    +0.000 HD
ENDROOT
BRANCH   1  11
ATOM      7  F   UNL     1       6.412   3.595  14.168  0.00  0.00    +0.000 F 
ATOM      8  C   UNL     1       5.791   4.293  15.125  0.00  0.00    +0.000 A 
ATOM      9  C   UNL     1       5.275   3.633  16.231  0.00  0.00    +0.000 A 
ATOM     10  C   UNL     1       4.601   4.358  17.214  0.00  0.00    +0.000 A 
ATOM     11  C   UNL     1       4.370   5.732  17.052  0.00  0.00    +0.000 A 
ATOM     12  C   UNL     1       4.941   6.386  15.947  0.00  0.00    +0.000 A 
ATOM     13  C   UNL     1       5.657   5.668  14.989  0.00  0.00    +0.000 A 
ENDBRANCH   1  11
BRANCH   5  14
ATOM     14  C   UNL     1       2.323   4.656  19.300  0.00  0.00    +0.000 A 
ATOM     15  C   UNL     1       1.458   3.887  18.509  0.00  0.00    +0.000 A 
ATOM     16  C   UNL     1       1.375   2.519  18.721  0.00  0.00    +0.000 A 
ATOM     17  N   UNL     1       2.007   1.885  19.724  0.00  0.00    +0.000 NA
ATOM     18  C   UNL     1       2.759   2.654  20.538  0.00  0.00    +0.000 A 
ATOM     19  C   UNL     1       2.958   4.017  20.362  0.00  0.00    +0.000 A 
ENDBRANCH   5  14
BRANCH   4  20
ATOM     20  C   UNL     1       1.121   7.428  20.750  0.00  0.00    +0.000 C 
BRANCH  20  21
ATOM     21  C   UNL     1       1.026   8.845  21.356  0.00  0.00    +0.000 C 
BRANCH  21  22
ATOM     22  C   UNL     1      -0.217   9.638  20.898  0.00  0.00    +0.000 C 
BRANCH  22  23
ATOM     23  N   UNL     1      -0.143  11.096  21.111  0.00  0.00    +0.000 NA
ATOM     24  C   UNL     1      -1.295  11.872  20.600  0.00  0.00    +0.000 C 
ATOM     25  C   UNL     1      -1.344  12.035  19.071  0.00  0.00    +0.000 C 
ATOM     26  O   UNL     1      -0.129  12.591  18.559  0.00  0.00    +0.000 OA
ATOM     27  C   UNL     1       0.996  11.795  18.949  0.00  0.00    +0.000 C 
ATOM     28  C   UNL     1       1.082  11.656  20.482  0.00  0.00    +0.000 C 
ENDBRANCH  22  23
ENDBRANCH  21  22
ENDBRANCH  20  21
ENDBRANCH   4  20
TORSDOF 6
ENDMDL
