MODEL 1
REMARK VINA RESULT:      -9.1      0.000      0.000
REMARK  Name = 
REMARK  8 active torsions:
REMARK  status: ('A' for Active; 'I' for Inactive)
REMARK    1  A    between atoms: C_2  and  C_3
REMARK    2  A    between atoms: N_5  and  C_6
REMARK    3  A    between atoms: C_6  and  C_7
REMARK    4  A    between atoms: C_7  and  N_8
REMARK    5  A    between atoms: C_10  and  C_11
REMARK    6  A    between atoms: C_15  and  C_16
REMARK    7  A    between atoms: C_18  and  O_19
REMARK    8  A    between atoms: O_19  and  C_20
REMARK                            x       y       z     vdW  Elec       q    Type
REMARK                         _______ _______ _______ _____ _____    ______ ____
ROOT
ATOM      1  N   UNL     1       4.639   5.480  16.847  0.00  0.00    +0.000 N 
ATOM      2  C   UNL     1       4.044   6.667  17.201  0.00  0.00    +0.000 A 
ATOM      3  C   UNL     1       3.096   6.385  18.160  0.00  0.00    +0.000 A 
ATOM      4  C   UNL     1       3.031   4.971  18.324  0.00  0.00    +0.000 A 
ATOM      5  C   UNL     1       2.247   4.038  19.037  0.00  0.00    +0.000 A 
ATOM      6  N   UNL     1       1.219   4.365  19.897  0.00  0.00    +0.000 N 
ATOM      7  N   UNL     1       2.456   2.724  18.839  0.00  0.00    +0.000 NA
ATOM      8  C   UNL     1       3.417   2.350  17.987  0.00  0.00    +0.000 A 
ATOM      9  N   UNL     1       4.241   3.134  17.282  0.00  0.00    +0.000 NA
ATOM     10  C   UNL     1       3.995   4.442  17.475  0.00  0.00    +0.000 A 
ATOM     11  H   UNL     1       0.830   5.293  19.801  0.00  0.00    +0.000 HD
ATOM     12  H   UNL     1       0.586   3.595  20.074  0.00  0.00    +0.000 HD
ENDROOT
BRANCH   3  13
ATOM     13  C   UNL     1       2.316   7.435  18.859  0.00  0.00    +0.000 A 
ATOM     14  C   UNL     1       1.859   7.341  20.151  0.00  0.00    +0.000 A 
ATOM     15  C   UNL     1       1.152   8.517  20.570  0.00  0.00    +0.000 A 
ATOM     16  C   UNL     1       0.575   8.845  21.815  0.00  0.00    +0.000 A 
ATOM     17  C   UNL     1      -0.103  10.061  21.979  0.00  0.00    +0.000 A 
ATOM     18  C   UNL     1      -0.711  10.418  23.303  0.00  0.00    +0.000 C 
ATOM     19  C   UNL     1      -0.214  10.949  20.904  0.00  0.00    +0.000 A 
ATOM     20  C   UNL     1       0.357  10.666  19.661  0.00  0.00    +0.000 A 
ATOM     21  C   UNL     1       1.044   9.442  19.531  0.00  0.00    +0.000 A 
ATOM     22  S   UNL     1       1.844   8.882  18.122  0.00  0.00    +0.000 S 
BRANCH  20  23
ATOM     23  O   UNL     1       0.314  11.467  18.555  0.00  0.00    +0.000 OA
ATOM     24  C   UNL     1      -0.828  12.282  18.365  0.00  0.00    +0.000 C 
ENDBRANCH  20  23
ENDBRANCH   3  13
BRANCH   1  25
ATOM     25  C   UNL     1       5.786   5.395  15.958  0.00  0.00    +0.000 C 
BRANCH  25  26
ATOM     26  C   UNL     1       7.136   5.654  16.629  0.00  0.00    +0.000 C 
BRANCH  26  29
ATOM     27  C   UNL     1       7.968   7.577  17.907  0.00  0.00    +0.000 C 
ATOM     28  O   UNL     1       8.222   6.911  18.900  0.00  0.00    +0.000 OA
ATOM     29  N   UNL     1       7.487   7.055  16.734  0.00  0.00    +0.000 N 
ATOM     30  H   UNL     1       7.157   7.674  16.005  0.00  0.00    +0.000 HD
BRANCH  27  32
ATOM     31  C   UNL     1       8.908   9.640  18.786  0.00  0.00    +0.000 C 
ATOM     32  C   UNL     1       8.158   9.044  17.852  0.00  0.00    +0.000 C 
ENDBRANCH  27  32
ENDBRANCH  26  29
ENDBRANCH  25  26
ENDBRANCH   1  25
TORSDOF 6
ENDMDL
MODEL 2
REMARK VINA RESULT:      -9.1      0.960      1.028
REMARK  Name = 
REMARK  8 active torsions:
REMARK  status: ('A' for Active; 'I' for Inactive)
REMARK    1  A    between atoms: C_2  and  C_3
REMARK    2  A    between atoms: N_5  and  C_6
REMARK    3  A    between atoms: C_6  and  C_7
REMARK    4  A    between atoms: C_7  and  N_8
REMARK    5  A    between atoms: C_10  and  C_11
REMARK    6  A    between atoms: C_15  and  C_16
REMARK    7  A    between atoms: C_18  and  O_19
REMARK    8  A    between atoms: O_19  and  C_20
REMARK                            x       y       z     vdW  Elec       q    Type
REMARK                         _______ _______ _______ _____ _____    ______ ____
ROOT
ATOM      1  N   UNL     1       4.578   4.642  17.153  0.00  0.00    +0.000 N 
ATOM      2  C   UNL     1       4.104   5.900  17.437  0.00  0.00    +0.000 A 
ATOM      3  C   UNL     1       3.093   5.762  18.362  0.00  0.00    +0.000 A 
ATOM      4  C   UNL     1       2.866   4.371  18.575  0.00  0.00    +0.000 A 
ATOM      5  C   UNL     1       1.957   3.559  19.286  0.00  0.00    +0.000 A 
ATOM      6  N   UNL     1       0.937   4.030  20.088  0.00  0.00    +0.000 N 
ATOM      7  N   UNL     1       2.028   2.222  19.146  0.00  0.00    +0.000 NA
ATOM      8  C   UNL     1       2.975   1.712  18.351  0.00  0.00    +0.000 A 
ATOM      9  N   UNL     1       3.908   2.373  17.655  0.00  0.00    +0.000 NA
ATOM     10  C   UNL     1       3.800   3.706  17.789  0.00  0.00    +0.000 A 
ATOM     11  H   UNL     1       0.657   4.989  19.941  0.00  0.00    +0.000 HD
ATOM     12  H   UNL     1       0.217   3.341  20.265  0.00  0.00    +0.000 HD
ENDROOT
BRANCH   3  13
ATOM     13  C   UNL     1       2.406   6.918  18.988  0.00  0.00    +0.000 A 
ATOM     14  C   UNL     1       1.851   6.912  20.245  0.00  0.00    +0.000 A 
ATOM     15  C   UNL     1       1.271   8.178  20.594  0.00  0.00    +0.000 A 
ATOM     16  C   UNL     1       0.654   8.605  21.789  0.00  0.00    +0.000 A 
ATOM     17  C   UNL     1       0.128   9.900  21.886  0.00  0.00    +0.000 A 
ATOM     18  C   UNL     1      -0.522  10.361  23.156  0.00  0.00    +0.000 C 
ATOM     19  C   UNL     1       0.207  10.770  20.793  0.00  0.00    +0.000 A 
ATOM     20  C   UNL     1       0.824  10.388  19.600  0.00  0.00    +0.000 A 
ATOM     21  C   UNL     1       1.357   9.084  19.537  0.00  0.00    +0.000 A 
ATOM     22  S   UNL     1       2.176   8.395  18.199  0.00  0.00    +0.000 S 
BRANCH  20  23
ATOM     23  O   UNL     1       0.962  11.162  18.482  0.00  0.00    +0.000 OA
ATOM     24  C   UNL     1       1.614  12.412  18.612  0.00  0.00    +0.000 C 
ENDBRANCH  20  23
ENDBRANCH   3  13
BRANCH   1  25
ATOM     25  C   UNL     1       5.743   4.397  16.319  0.00  0.00    +0.000 C 
BRANCH  25  26
ATOM     26  C   UNL     1       7.079   4.418  17.064  0.00  0.00    +0.000 C 
BRANCH  26  29
ATOM     27  C   UNL     1       7.818   6.201  18.579  0.00  0.00    +0.000 C 
ATOM     28  O   UNL     1       7.680   5.517  19.583  0.00  0.00    +0.000 OA
ATOM     29  N   UNL     1       7.603   5.746  17.304  0.00  0.00    +0.000 N 
ATOM     30  H   UNL     1       7.589   6.399  16.532  0.00  0.00    +0.000 HD
BRANCH  27  32
ATOM     31  C   UNL     1       7.853   8.448  17.649  0.00  0.00    +0.000 C 
ATOM     32  C   UNL     1       8.244   7.618  18.624  0.00  0.00    +0.000 C 
ENDBRANCH  27  32
ENDBRANCH  26  29
ENDBRANCH  25  26
ENDBRANCH   1  25
TORSDOF 6
ENDMDL
MODEL 3
REMARK VINA RESULT:      -9.1      1.367      2.211
REMARK  Name = 
REMARK  8 active torsions:
REMARK  status: ('A' for Active; 'I' for Inactive)
REMARK    1  A    between atoms: C_2  and  C_3
REMARK    2  A    between atoms: N_5  and  C_6
REMARK    3  A    between atoms: C_6  and  C_7
REMARK    4  A    between atoms: C_7  and  N_8
REMARK    5  A    between atoms: C_10  and  C_11
REMARK    6  A    between atoms: C_15  and  C_16
REMARK    7  A    between atoms: C_18  and  O_19
REMARK    8  A    between atoms: O_19  and  C_20
REMARK                            x       y       z     vdW  Elec       q    Type
REMARK                         _______ _______ _______ _____ _____    ______ ____
ROOT
ATOM      1  N   UNL     1       4.557   4.703  16.956  0.00  0.00    +0.000 N 
ATOM      2  C   UNL     1       4.084   5.975  17.165  0.00  0.00    +0.000 A 
ATOM      3  C   UNL     1       3.092   5.896  18.117  0.00  0.00    +0.000 A 
ATOM      4  C   UNL     1       2.875   4.522  18.427  0.00  0.00    +0.000 A 
ATOM      5  C   UNL     1       1.983   3.757  19.208  0.00  0.00    +0.000 A 
ATOM      6  N   UNL     1       0.977   4.278  19.996  0.00  0.00    +0.000 N 
ATOM      7  N   UNL     1       2.056   2.415  19.155  0.00  0.00    +0.000 NA
ATOM      8  C   UNL     1       2.990   1.855  18.378  0.00  0.00    +0.000 A 
ATOM      9  N   UNL     1       3.906   2.470  17.621  0.00  0.00    +0.000 NA
ATOM     10  C   UNL     1       3.795   3.809  17.668  0.00  0.00    +0.000 A 
ATOM     11  H   UNL     1       0.691   5.224  19.791  0.00  0.00    +0.000 HD
ATOM     12  H   UNL     1       0.263   3.600  20.232  0.00  0.00    +0.000 HD
ENDROOT
BRANCH   3  13
ATOM     13  C   UNL     1       2.413   7.090  18.678  0.00  0.00    +0.000 A 
ATOM     14  C   UNL     1       2.031   8.188  17.946  0.00  0.00    +0.000 A 
ATOM     15  C   UNL     1       1.377   9.182  18.749  0.00  0.00    +0.000 A 
ATOM     16  C   UNL     1       0.796  10.416  18.388  0.00  0.00    +0.000 A 
ATOM     17  C   UNL     1       0.234  11.245  19.369  0.00  0.00    +0.000 A 
ATOM     18  C   UNL     1      -0.392  12.553  18.989  0.00  0.00    +0.000 C 
ATOM     19  C   UNL     1       0.257  10.851  20.712  0.00  0.00    +0.000 A 
ATOM     20  C   UNL     1       0.809   9.630  21.106  0.00  0.00    +0.000 A 
ATOM     21  C   UNL     1       1.354   8.812  20.094  0.00  0.00    +0.000 A 
ATOM     22  S   UNL     1       2.063   7.269  20.322  0.00  0.00    +0.000 S 
BRANCH  20  23
ATOM     23  O   UNL     1       0.871   9.151  22.384  0.00  0.00    +0.000 OA
ATOM     24  C   UNL     1      -0.123   9.566  23.301  0.00  0.00    +0.000 C 
ENDBRANCH  20  23
ENDBRANCH   3  13
BRANCH   1  25
ATOM     25  C   UNL     1       5.707   4.405  16.117  0.00  0.00    +0.000 C 
BRANCH  25  26
ATOM     26  C   UNL     1       7.045   4.366  16.857  0.00  0.00    +0.000 C 
BRANCH  26  29
ATOM     27  C   UNL     1       7.710   6.071  18.492  0.00  0.00    +0.000 C 
ATOM     28  O   UNL     1       7.485   5.352  19.455  0.00  0.00    +0.000 OA
ATOM     29  N   UNL     1       7.579   5.671  17.187  0.00  0.00    +0.000 N 
ATOM     30  H   UNL     1       7.635   6.354  16.444  0.00  0.00    +0.000 HD
BRANCH  27  32
ATOM     31  C   UNL     1       7.930   8.331  17.623  0.00  0.00    +0.000 C 
ATOM     32  C   UNL     1       8.162   7.474  18.624  0.00  0.00    +0.000 C 
ENDBRANCH  27  32
ENDBRANCH  26  29
ENDBRANCH  25  26
ENDBRANCH   1  25
TORSDOF 6
ENDMDL
MODEL 4
REMARK VINA RESULT:      -9.0      2.034      2.814
REMARK  Name = 
REMARK  8 active torsions:
REMARK  status: ('A' for Active; 'I' for Inactive)
REMARK    1  A    between atoms: C_2  and  C_3
REMARK    2  A    between atoms: N_5  and  C_6
REMARK    3  A    between atoms: C_6  and  C_7
REMARK    4  A    between atoms: C_7  and  N_8
REMARK    5  A    between atoms: C_10  and  C_11
REMARK    6  A    between atoms: C_15  and  C_16
REMARK    7  A    between atoms: C_18  and  O_19
REMARK    8  A    between atoms: O_19  and  C_20
REMARK                            x       y       z     vdW  Elec       q    Type
REMARK                         _______ _______ _______ _____ _____    ______ ____
ROOT
ATOM      1  N   UNL     1       5.038   4.767  18.619  0.00  0.00    +0.000 N 
ATOM      2  C   UNL     1       4.480   6.012  18.775  0.00  0.00    +0.000 A 
ATOM      3  C   UNL     1       3.214   5.837  19.292  0.00  0.00    +0.000 A 
ATOM      4  C   UNL     1       2.946   4.439  19.358  0.00  0.00    +0.000 A 
ATOM      5  C   UNL     1       1.858   3.599  19.681  0.00  0.00    +0.000 A 
ATOM      6  N   UNL     1       0.621   4.038  20.103  0.00  0.00    +0.000 N 
ATOM      7  N   UNL     1       1.990   2.270  19.519  0.00  0.00    +0.000 NA
ATOM      8  C   UNL     1       3.158   1.792  19.076  0.00  0.00    +0.000 A 
ATOM      9  N   UNL     1       4.264   2.479  18.769  0.00  0.00    +0.000 NA
ATOM     10  C   UNL     1       4.100   3.806  18.912  0.00  0.00    +0.000 A 
ATOM     11  H   UNL     1       0.396   5.004  19.909  0.00  0.00    +0.000 HD
ATOM     12  H   UNL     1      -0.108   3.344  19.995  0.00  0.00    +0.000 HD
ENDROOT
BRANCH   3  13
ATOM     13  C   UNL     1       2.341   6.967  19.691  0.00  0.00    +0.000 A 
ATOM     14  C   UNL     1       1.836   7.157  20.955  0.00  0.00    +0.000 A 
ATOM     15  C   UNL     1       1.039   8.347  21.054  0.00  0.00    +0.000 A 
ATOM     16  C   UNL     1       0.389   8.925  22.164  0.00  0.00    +0.000 A 
ATOM     17  C   UNL     1      -0.370  10.093  22.007  0.00  0.00    +0.000 A 
ATOM     18  C   UNL     1      -1.055  10.717  23.186  0.00  0.00    +0.000 C 
ATOM     19  C   UNL     1      -0.490  10.683  20.744  0.00  0.00    +0.000 A 
ATOM     20  C   UNL     1       0.151  10.148  19.625  0.00  0.00    +0.000 A 
ATOM     21  C   UNL     1       0.918   8.981  19.817  0.00  0.00    +0.000 A 
ATOM     22  S   UNL     1       1.812   8.154  18.610  0.00  0.00    +0.000 S 
BRANCH  20  23
ATOM     23  O   UNL     1       0.105  10.651  18.355  0.00  0.00    +0.000 OA
ATOM     24  C   UNL     1      -1.154  10.726  17.712  0.00  0.00    +0.000 C 
ENDBRANCH  20  23
ENDBRANCH   3  13
BRANCH   1  25
ATOM     25  C   UNL     1       6.420   4.554  18.226  0.00  0.00    +0.000 C 
BRANCH  25  26
ATOM     26  C   UNL     1       6.784   5.101  16.844  0.00  0.00    +0.000 C 
BRANCH  26  29
ATOM     27  C   UNL     1       6.638   4.572  14.452  0.00  0.00    +0.000 C 
ATOM     28  O   UNL     1       7.540   5.338  14.145  0.00  0.00    +0.000 OA
ATOM     29  N   UNL     1       6.230   4.344  15.741  0.00  0.00    +0.000 N 
ATOM     30  H   UNL     1       5.385   3.817  15.916  0.00  0.00    +0.000 HD
BRANCH  27  32
ATOM     31  C   UNL     1       6.446   3.493  12.282  0.00  0.00    +0.000 C 
ATOM     32  C   UNL     1       5.876   3.786  13.457  0.00  0.00    +0.000 C 
ENDBRANCH  27  32
ENDBRANCH  26  29
ENDBRANCH  25  26
ENDBRANCH   1  25
TORSDOF 6
ENDMDL
MODEL 5
REMARK VINA RESULT:      -8.8      2.496      3.904
REMARK  Name = 
REMARK  8 active torsions:
REMARK  status: ('A' for Active; 'I' for Inactive)
REMARK    1  A    between atoms: C_2  and  C_3
REMARK    2  A    between atoms: N_5  and  C_6
REMARK    3  A    between atoms: C_6  and  C_7
REMARK    4  A    between atoms: C_7  and  N_8
REMARK    5  A    between atoms: C_10  and  C_11
REMARK    6  A    between atoms: C_15  and  C_16
REMARK    7  A    between atoms: C_18  and  O_19
REMARK    8  A    between atoms: O_19  and  C_20
REMARK                            x       y       z     vdW  Elec       q    Type
REMARK                         _______ _______ _______ _____ _____    ______ ____
ROOT
ATOM      1  N   UNL     1       4.814   4.728  17.124  0.00  0.00    +0.000 N 
ATOM      2  C   UNL     1       4.321   5.999  17.286  0.00  0.00    +0.000 A 
ATOM      3  C   UNL     1       3.242   5.919  18.140  0.00  0.00    +0.000 A 
ATOM      4  C   UNL     1       2.999   4.544  18.427  0.00  0.00    +0.000 A 
ATOM      5  C   UNL     1       2.037   3.777  19.120  0.00  0.00    +0.000 A 
ATOM      6  N   UNL     1       0.960   4.296  19.808  0.00  0.00    +0.000 N 
ATOM      7  N   UNL     1       2.118   2.435  19.075  0.00  0.00    +0.000 NA
ATOM      8  C   UNL     1       3.123   1.877  18.390  0.00  0.00    +0.000 A 
ATOM      9  N   UNL     1       4.106   2.494  17.724  0.00  0.00    +0.000 NA
ATOM     10  C   UNL     1       3.989   3.833  17.760  0.00  0.00    +0.000 A 
ATOM     11  H   UNL     1       0.693   5.242  19.577  0.00  0.00    +0.000 HD
ATOM     12  H   UNL     1       0.228   3.617  19.975  0.00  0.00    +0.000 HD
ENDROOT
BRANCH   3  13
ATOM     13  C   UNL     1       2.510   7.111  18.632  0.00  0.00    +0.000 A 
ATOM     14  C   UNL     1       2.090   8.153  17.841  0.00  0.00    +0.000 A 
ATOM     15  C   UNL     1       1.390   9.160  18.587  0.00  0.00    +0.000 A 
ATOM     16  C   UNL     1       0.763  10.348  18.158  0.00  0.00    +0.000 A 
ATOM     17  C   UNL     1       0.159  11.203  19.090  0.00  0.00    +0.000 A 
ATOM     18  C   UNL     1      -0.516  12.463  18.638  0.00  0.00    +0.000 C 
ATOM     19  C   UNL     1       0.186  10.881  20.452  0.00  0.00    +0.000 A 
ATOM     20  C   UNL     1       0.783   9.706  20.913  0.00  0.00    +0.000 A 
ATOM     21  C   UNL     1       1.370   8.860  19.949  0.00  0.00    +0.000 A 
ATOM     22  S   UNL     1       2.139   7.361  20.262  0.00  0.00    +0.000 S 
BRANCH  20  23
ATOM     23  O   UNL     1       0.853   9.297  22.214  0.00  0.00    +0.000 OA
ATOM     24  C   UNL     1      -0.268   9.526  23.048  0.00  0.00    +0.000 C 
ENDBRANCH  20  23
ENDBRANCH   3  13
BRANCH   1  25
ATOM     25  C   UNL     1       6.039   4.432  16.400  0.00  0.00    +0.000 C 
BRANCH  25  26
ATOM     26  C   UNL     1       6.062   4.927  14.953  0.00  0.00    +0.000 C 
BRANCH  26  29
ATOM     27  C   UNL     1       6.209   3.823  12.766  0.00  0.00    +0.000 C 
ATOM     28  O   UNL     1       7.222   4.425  12.439  0.00  0.00    +0.000 OA
ATOM     29  N   UNL     1       5.597   3.955  13.985  0.00  0.00    +0.000 N 
ATOM     30  H   UNL     1       4.685   3.546  14.138  0.00  0.00    +0.000 HD
BRANCH  27  32
ATOM     31  C   UNL     1       4.317   3.181  11.380  0.00  0.00    +0.000 C 
ATOM     32  C   UNL     1       5.520   2.864  11.874  0.00  0.00    +0.000 C 
ENDBRANCH  27  32
ENDBRANCH  26  29
ENDBRANCH  25  26
ENDBRANCH   1  25
TORSDOF 6
ENDMDL
MODEL 6
REMARK VINA RESULT:      -8.8      2.203      3.387
REMARK  Name = 
REMARK  8 active torsions:
REMARK  status: ('A' for Active; 'I' for Inactive)
REMARK    1  A    between atoms: C_2  and  C_3
REMARK    2  A    between atoms: N_5  and  C_6
REMARK    3  A    between atoms: C_6  and  C_7
REMARK    4  A    between atoms: C_7  and  N_8
REMARK    5  A    between atoms: C_10  and  C_11
REMARK    6  A    between atoms: C_15  and  C_16
REMARK    7  A    between atoms: C_18  and  O_19
REMARK    8  A    between atoms: O_19  and  C_20
REMARK                            x       y       z     vdW  Elec       q    Type
REMARK                         _______ _______ _______ _____ _____    ______ ____
ROOT
ATOM      1  N   UNL     1       5.305   5.115  18.787  0.00  0.00    +0.000 N 
ATOM      2  C   UNL     1       4.642   6.315  18.703  0.00  0.00    +0.000 A 
ATOM      3  C   UNL     1       3.379   6.128  19.221  0.00  0.00    +0.000 A 
ATOM      4  C   UNL     1       3.224   4.747  19.536  0.00  0.00    +0.000 A 
ATOM      5  C   UNL     1       2.198   3.889  19.988  0.00  0.00    +0.000 A 
ATOM      6  N   UNL     1       0.916   4.288  20.301  0.00  0.00    +0.000 N 
ATOM      7  N   UNL     1       2.443   2.568  20.073  0.00  0.00    +0.000 NA
ATOM      8  C   UNL     1       3.660   2.120  19.746  0.00  0.00    +0.000 A 
ATOM      9  N   UNL     1       4.716   2.834  19.338  0.00  0.00    +0.000 NA
ATOM     10  C   UNL     1       4.440   4.146  19.234  0.00  0.00    +0.000 A 
ATOM     11  H   UNL     1       0.619   5.180  19.930  0.00  0.00    +0.000 HD
ATOM     12  H   UNL     1       0.250   3.526  20.308  0.00  0.00    +0.000 HD
ENDROOT
BRANCH   3  13
ATOM     13  C   UNL     1       2.404   7.232  19.392  0.00  0.00    +0.000 A 
ATOM     14  C   UNL     1       2.077   8.145  18.419  0.00  0.00    +0.000 A 
ATOM     15  C   UNL     1       1.089   9.088  18.861  0.00  0.00    +0.000 A 
ATOM     16  C   UNL     1       0.452  10.140  18.170  0.00  0.00    +0.000 A 
ATOM     17  C   UNL     1      -0.473  10.960  18.831  0.00  0.00    +0.000 A 
ATOM     18  C   UNL     1      -1.159  12.074  18.099  0.00  0.00    +0.000 C 
ATOM     19  C   UNL     1      -0.759  10.740  20.183  0.00  0.00    +0.000 A 
ATOM     20  C   UNL     1      -0.159   9.699  20.896  0.00  0.00    +0.000 A 
ATOM     21  C   UNL     1       0.756   8.883  20.200  0.00  0.00    +0.000 A 
ATOM     22  S   UNL     1       1.597   7.537  20.846  0.00  0.00    +0.000 S 
BRANCH  20  23
ATOM     23  O   UNL     1      -0.377   9.395  22.210  0.00  0.00    +0.000 OA
ATOM     24  C   UNL     1      -0.795  10.435  23.075  0.00  0.00    +0.000 C 
ENDBRANCH  20  23
ENDBRANCH   3  13
BRANCH   1  25
ATOM     25  C   UNL     1       6.713   4.955  18.463  0.00  0.00    +0.000 C 
BRANCH  25  26
ATOM     26  C   UNL     1       7.090   5.354  17.035  0.00  0.00    +0.000 C 
BRANCH  26  29
ATOM     27  C   UNL     1       6.757   4.727  14.686  0.00  0.00    +0.000 C 
ATOM     28  O   UNL     1       7.679   5.423  14.285  0.00  0.00    +0.000 OA
ATOM     29  N   UNL     1       6.422   4.582  16.007  0.00  0.00    +0.000 N 
ATOM     30  H   UNL     1       5.562   4.115  16.261  0.00  0.00    +0.000 HD
BRANCH  27  32
ATOM     31  C   UNL     1       6.333   3.631  12.557  0.00  0.00    +0.000 C 
ATOM     32  C   UNL     1       5.888   3.944  13.780  0.00  0.00    +0.000 C 
ENDBRANCH  27  32
ENDBRANCH  26  29
ENDBRANCH  25  26
ENDBRANCH   1  25
TORSDOF 6
ENDMDL
MODEL 7
REMARK VINA RESULT:      -8.6      1.094      2.030
REMARK  Name = 
REMARK  8 active torsions:
REMARK  status: ('A' for Active; 'I' for Inactive)
REMARK    1  A    between atoms: C_2  and  C_3
REMARK    2  A    between atoms: N_5  and  C_6
REMARK    3  A    between atoms: C_6  and  C_7
REMARK    4  A    between atoms: C_7  and  N_8
REMARK    5  A    between atoms: C_10  and  C_11
REMARK    6  A    between atoms: C_15  and  C_16
REMARK    7  A    between atoms: C_18  and  O_19
REMARK    8  A    between atoms: O_19  and  C_20
REMARK                            x       y       z     vdW  Elec       q    Type
REMARK                         _______ _______ _______ _____ _____    ______ ____
ROOT
ATOM      1  N   UNL     1       4.664   5.580  16.871  0.00  0.00    +0.000 N 
ATOM      2  C   UNL     1       4.007   6.769  17.073  0.00  0.00    +0.000 A 
ATOM      3  C   UNL     1       3.065   6.560  18.057  0.00  0.00    +0.000 A 
ATOM      4  C   UNL     1       3.070   5.176  18.396  0.00  0.00    +0.000 A 
ATOM      5  C   UNL     1       2.328   4.300  19.217  0.00  0.00    +0.000 A 
ATOM      6  N   UNL     1       1.277   4.678  20.027  0.00  0.00    +0.000 N 
ATOM      7  N   UNL     1       2.605   2.984  19.185  0.00  0.00    +0.000 NA
ATOM      8  C   UNL     1       3.591   2.557  18.389  0.00  0.00    +0.000 A 
ATOM      9  N   UNL     1       4.381   3.288  17.594  0.00  0.00    +0.000 NA
ATOM     10  C   UNL     1       4.068   4.596  17.622  0.00  0.00    +0.000 A 
ATOM     11  H   UNL     1       0.843   5.565  19.816  0.00  0.00    +0.000 HD
ATOM     12  H   UNL     1       0.682   3.905  20.297  0.00  0.00    +0.000 HD
ENDROOT
BRANCH   3  13
ATOM     13  C   UNL     1       2.228   7.648  18.618  0.00  0.00    +0.000 A 
ATOM     14  C   UNL     1       1.697   8.683  17.886  0.00  0.00    +0.000 A 
ATOM     15  C   UNL     1       0.912   9.576  18.690  0.00  0.00    +0.000 A 
ATOM     16  C   UNL     1       0.166  10.718  18.330  0.00  0.00    +0.000 A 
ATOM     17  C   UNL     1      -0.506  11.460  19.311  0.00  0.00    +0.000 A 
ATOM     18  C   UNL     1      -1.307  12.669  18.932  0.00  0.00    +0.000 C 
ATOM     19  C   UNL     1      -0.430  11.072  20.653  0.00  0.00    +0.000 A 
ATOM     20  C   UNL     1       0.286   9.939  21.047  0.00  0.00    +0.000 A 
ATOM     21  C   UNL     1       0.940   9.206  20.035  0.00  0.00    +0.000 A 
ATOM     22  S   UNL     1       1.856   7.775  20.262  0.00  0.00    +0.000 S 
BRANCH  20  23
ATOM     23  O   UNL     1       0.414   9.472  22.324  0.00  0.00    +0.000 OA
ATOM     24  C   UNL     1      -0.607   9.784  23.254  0.00  0.00    +0.000 C 
ENDBRANCH  20  23
ENDBRANCH   3  13
BRANCH   1  25
ATOM     25  C   UNL     1       5.821   5.443  16.003  0.00  0.00    +0.000 C 
BRANCH  25  26
ATOM     26  C   UNL     1       7.168   5.664  16.693  0.00  0.00    +0.000 C 
BRANCH  26  29
ATOM     27  C   UNL     1       8.012   7.578  17.976  0.00  0.00    +0.000 C 
ATOM     28  O   UNL     1       8.198   6.921  18.990  0.00  0.00    +0.000 OA
ATOM     29  N   UNL     1       7.565   7.053  16.791  0.00  0.00    +0.000 N 
ATOM     30  H   UNL     1       7.291   7.670  16.038  0.00  0.00    +0.000 HD
BRANCH  27  32
ATOM     31  C   UNL     1       9.025   9.614  18.837  0.00  0.00    +0.000 C 
ATOM     32  C   UNL     1       8.257   9.036  17.905  0.00  0.00    +0.000 C 
ENDBRANCH  27  32
ENDBRANCH  26  29
ENDBRANCH  25  26
ENDBRANCH   1  25
TORSDOF 6
ENDMDL
MODEL 8
REMARK VINA RESULT:      -8.6      2.123      3.243
REMARK  Name = 
REMARK  8 active torsions:
REMARK  status: ('A' for Active; 'I' for Inactive)
REMARK    1  A    between atoms: C_2  and  C_3
REMARK    2  A    between atoms: N_5  and  C_6
REMARK    3  A    between atoms: C_6  and  C_7
REMARK    4  A    between atoms: C_7  and  N_8
REMARK    5  A    between atoms: C_10  and  C_11
REMARK    6  A    between atoms: C_15  and  C_16
REMARK    7  A    between atoms: C_18  and  O_19
REMARK    8  A    between atoms: O_19  and  C_20
REMARK                            x       y       z     vdW  Elec       q    Type
REMARK                         _______ _______ _______ _____ _____    ______ ____
ROOT
ATOM      1  N   UNL     1       5.131   5.096  17.272  0.00  0.00    +0.000 N 
ATOM      2  C   UNL     1       4.557   6.290  17.635  0.00  0.00    +0.000 A 
ATOM      3  C   UNL     1       3.393   6.001  18.313  0.00  0.00    +0.000 A 
ATOM      4  C   UNL     1       3.190   4.590  18.274  0.00  0.00    +0.000 A 
ATOM      5  C   UNL     1       2.196   3.668  18.667  0.00  0.00    +0.000 A 
ATOM      6  N   UNL     1       1.022   4.000  19.311  0.00  0.00    +0.000 N 
ATOM      7  N   UNL     1       2.350   2.369  18.353  0.00  0.00    +0.000 NA
ATOM      8  C   UNL     1       3.454   1.997  17.695  0.00  0.00    +0.000 A 
ATOM      9  N   UNL     1       4.475   2.768  17.299  0.00  0.00    +0.000 NA
ATOM     10  C   UNL     1       4.285   4.065  17.600  0.00  0.00    +0.000 A 
ATOM     11  H   UNL     1       0.735   4.966  19.252  0.00  0.00    +0.000 HD
ATOM     12  H   UNL     1       0.312   3.282  19.241  0.00  0.00    +0.000 HD
ENDROOT
BRANCH   3  13
ATOM     13  C   UNL     1       2.550   7.040  18.951  0.00  0.00    +0.000 A 
ATOM     14  C   UNL     1       2.167   7.036  20.271  0.00  0.00    +0.000 A 
ATOM     15  C   UNL     1       1.369   8.179  20.614  0.00  0.00    +0.000 A 
ATOM     16  C   UNL     1       0.823   8.577  21.852  0.00  0.00    +0.000 A 
ATOM     17  C   UNL     1       0.039   9.736  21.936  0.00  0.00    +0.000 A 
ATOM     18  C   UNL     1      -0.537  10.168  23.252  0.00  0.00    +0.000 C 
ATOM     19  C   UNL     1      -0.209  10.497  20.788  0.00  0.00    +0.000 A 
ATOM     20  C   UNL     1       0.328  10.143  19.548  0.00  0.00    +0.000 A 
ATOM     21  C   UNL     1       1.123   8.979  19.498  0.00  0.00    +0.000 A 
ATOM     22  S   UNL     1       1.906   8.355  18.107  0.00  0.00    +0.000 S 
BRANCH  20  23
ATOM     23  O   UNL     1       0.154  10.820  18.374  0.00  0.00    +0.000 OA
ATOM     24  C   UNL     1      -1.118  10.769  17.756  0.00  0.00    +0.000 C 
ENDBRANCH  20  23
ENDBRANCH   3  13
BRANCH   1  25
ATOM     25  C   UNL     1       6.444   4.994  16.658  0.00  0.00    +0.000 C 
BRANCH  25  26
ATOM     26  C   UNL     1       6.464   5.226  15.146  0.00  0.00    +0.000 C 
BRANCH  26  29
ATOM     27  C   UNL     1       6.207   3.922  13.082  0.00  0.00    +0.000 C 
ATOM     28  O   UNL     1       7.138   4.478  12.519  0.00  0.00    +0.000 OA
ATOM     29  N   UNL     1       5.831   4.175  14.377  0.00  0.00    +0.000 N 
ATOM     30  H   UNL     1       4.965   3.794  14.733  0.00  0.00    +0.000 HD
BRANCH  27  32
ATOM     31  C   UNL     1       4.479   3.271  11.500  0.00  0.00    +0.000 C 
ATOM     32  C   UNL     1       5.368   2.894  12.427  0.00  0.00    +0.000 C 
ENDBRANCH  27  32
ENDBRANCH  26  29
ENDBRANCH  25  26
ENDBRANCH   1  25
TORSDOF 6
ENDMDL
MODEL 9
REMARK VINA RESULT:      -8.5      2.516      3.611
REMARK  Name = 
REMARK  8 active torsions:
REMARK  status: ('A' for Active; 'I' for Inactive)
REMARK    1  A    between atoms: C_2  and  C_3
REMARK    2  A    between atoms: N_5  and  C_6
REMARK    3  A    between atoms: C_6  and  C_7
REMARK    4  A    between atoms: C_7  and  N_8
REMARK    5  A    between atoms: C_10  and  C_11
REMARK    6  A    between atoms: C_15  and  C_16
REMARK    7  A    between atoms: C_18  and  O_19
REMARK    8  A    between atoms: O_19  and  C_20
REMARK                            x       y       z     vdW  Elec       q    Type
REMARK                         _______ _______ _______ _____ _____    ______ ____
ROOT
ATOM      1  N   UNL     1       4.641   4.721  16.948  0.00  0.00    +0.000 N 
ATOM      2  C   UNL     1       4.143   5.961  17.270  0.00  0.00    +0.000 A 
ATOM      3  C   UNL     1       3.169   5.780  18.228  0.00  0.00    +0.000 A 
ATOM      4  C   UNL     1       2.988   4.380  18.425  0.00  0.00    +0.000 A 
ATOM      5  C   UNL     1       2.127   3.531  19.152  0.00  0.00    +0.000 A 
ATOM      6  N   UNL     1       1.124   3.961  19.997  0.00  0.00    +0.000 N 
ATOM      7  N   UNL     1       2.228   2.200  18.987  0.00  0.00    +0.000 NA
ATOM      8  C   UNL     1       3.160   1.729  18.151  0.00  0.00    +0.000 A 
ATOM      9  N   UNL     1       4.050   2.426  17.434  0.00  0.00    +0.000 NA
ATOM     10  C   UNL     1       3.911   3.754  17.595  0.00  0.00    +0.000 A 
ATOM     11  H   UNL     1       0.813   4.915  19.877  0.00  0.00    +0.000 HD
ATOM     12  H   UNL     1       0.429   3.250  20.187  0.00  0.00    +0.000 HD
ENDROOT
BRANCH   3  13
ATOM     13  C   UNL     1       2.475   6.906  18.897  0.00  0.00    +0.000 A 
ATOM     14  C   UNL     1       1.973   6.867  20.176  0.00  0.00    +0.000 A 
ATOM     15  C   UNL     1       1.370   8.110  20.566  0.00  0.00    +0.000 A 
ATOM     16  C   UNL     1       0.790   8.503  21.790  0.00  0.00    +0.000 A 
ATOM     17  C   UNL     1       0.229   9.780  21.927  0.00  0.00    +0.000 A 
ATOM     18  C   UNL     1      -0.381  10.205  23.229  0.00  0.00    +0.000 C 
ATOM     19  C   UNL     1       0.236  10.665  20.843  0.00  0.00    +0.000 A 
ATOM     20  C   UNL     1       0.814  10.317  19.621  0.00  0.00    +0.000 A 
ATOM     21  C   UNL     1       1.383   9.031  19.519  0.00  0.00    +0.000 A 
ATOM     22  S   UNL     1       2.167   8.385  18.138  0.00  0.00    +0.000 S 
BRANCH  20  23
ATOM     23  O   UNL     1       0.881  11.109  18.509  0.00  0.00    +0.000 OA
ATOM     24  C   UNL     1       1.376  12.427  18.657  0.00  0.00    +0.000 C 
ENDBRANCH  20  23
ENDBRANCH   3  13
BRANCH   1  25
ATOM     25  C   UNL     1       5.782   4.522  16.070  0.00  0.00    +0.000 C 
BRANCH  25  26
ATOM     26  C   UNL     1       5.461   4.594  14.577  0.00  0.00    +0.000 C 
BRANCH  26  29
ATOM     27  C   UNL     1       5.885   3.301  12.534  0.00  0.00    +0.000 C 
ATOM     28  O   UNL     1       4.812   3.594  12.028  0.00  0.00    +0.000 OA
ATOM     29  N   UNL     1       6.320   3.777  13.745  0.00  0.00    +0.000 N 
ATOM     30  H   UNL     1       7.145   3.382  14.174  0.00  0.00    +0.000 HD
BRANCH  27  32
ATOM     31  C   UNL     1       6.409   1.422  11.082  0.00  0.00    +0.000 C 
ATOM     32  C   UNL     1       6.858   2.393  11.888  0.00  0.00    +0.000 C 
ENDBRANCH  27  32
ENDBRANCH  26  29
ENDBRANCH  25  26
ENDBRANCH   1  25
TORSDOF 6
ENDMDL
