MODEL 1
REMARK VINA RESULT:      -5.9      0.000      0.000
REMARK  Name = 
REMARK  1 active torsions:
REMARK  status: ('A' for Active; 'I' for Inactive)
REMARK    1  A    between atoms: N_1  and  N_2
REMARK                            x       y       z     vdW  Elec       q    Type
REMARK                         _______ _______ _______ _____ _____    ______ ____
ROOT
ATOM      1  N   UNL     1       4.716   1.905  19.962  0.00  0.00    +0.000 NA
ATOM      2  C   UNL     1       3.528   2.426  20.069  0.00  0.00    +0.000 C 
ATOM      3  C   UNL     1       2.729   2.609  21.366  0.00  0.00    +0.000 C 
ATOM      4  C   UNL     1       1.932   3.926  21.344  0.00  0.00    +0.000 C 
ATOM      5  C   UNL     1       0.958   4.011  20.150  0.00  0.00    +0.000 C 
ATOM      6  C   UNL     1       1.650   3.603  18.906  0.00  0.00    +0.000 A 
ATOM      7  N   UNL     1       1.230   3.880  17.673  0.00  0.00    +0.000 NA
ATOM      8  O   UNL     1       2.207   3.302  16.848  0.00  0.00    +0.000 OA
ATOM      9  N   UNL     1       3.212   2.683  17.599  0.00  0.00    +0.000 NA
ATOM     10  C   UNL     1       2.843   2.871  18.868  0.00  0.00    +0.000 A 
ENDROOT
BRANCH   1  11
ATOM     11  N   UNL     1       5.322   1.491  21.099  0.00  0.00    +0.000 N 
ATOM     12  H   UNL     1       4.700   0.838  21.585  0.00  0.00    +0.000 HD
ATOM     13  H   UNL     1       6.171   0.952  20.909  0.00  0.00    +0.000 HD
ENDBRANCH   1  11
TORSDOF 1
ENDMDL
MODEL 2
REMARK VINA RESULT:      -5.8      4.575      5.697
REMARK  Name = 
REMARK  1 active torsions:
REMARK  status: ('A' for Active; 'I' for Inactive)
REMARK    1  A    between atoms: N_1  and  N_2
REMARK                            x       y       z     vdW  Elec       q    Type
REMARK                         _______ _______ _______ _____ _____    ______ ____
ROOT
ATOM      1  N   UNL     1       7.582   5.409  15.585  0.00  0.00    +0.000 NA
ATOM      2  C   UNL     1       6.524   5.171  16.306  0.00  0.00    +0.000 C 
ATOM      3  C   UNL     1       5.111   4.885  15.780  0.00  0.00    +0.000 C 
ATOM      4  C   UNL     1       4.399   3.834  16.651  0.00  0.00    +0.000 C 
ATOM      5  C   UNL     1       4.296   4.261  18.130  0.00  0.00    +0.000 C 
ATOM      6  C   UNL     1       5.604   4.773  18.599  0.00  0.00    +0.000 A 
ATOM      7  N   UNL     1       5.963   4.897  19.876  0.00  0.00    +0.000 NA
ATOM      8  O   UNL     1       7.269   5.406  19.809  0.00  0.00    +0.000 OA
ATOM      9  N   UNL     1       7.686   5.578  18.486  0.00  0.00    +0.000 NA
ATOM     10  C   UNL     1       6.639   5.193  17.753  0.00  0.00    +0.000 A 
ENDROOT
BRANCH   1  11
ATOM     11  N   UNL     1       7.438   5.393  14.239  0.00  0.00    +0.000 N 
ATOM     12  H   UNL     1       7.432   6.357  13.897  0.00  0.00    +0.000 HD
ATOM     13  H   UNL     1       8.235   4.953  13.772  0.00  0.00    +0.000 HD
ENDBRANCH   1  11
TORSDOF 1
ENDMDL
MODEL 3
REMARK VINA RESULT:      -5.8      2.445      3.132
REMARK  Name = 
REMARK  1 active torsions:
REMARK  status: ('A' for Active; 'I' for Inactive)
REMARK    1  A    between atoms: N_1  and  N_2
REMARK                            x       y       z     vdW  Elec       q    Type
REMARK                         _______ _______ _______ _____ _____    ______ ____
ROOT
ATOM      1  N   UNL     1       5.339   3.503  19.440  0.00  0.00    +0.000 NA
ATOM      2  C   UNL     1       4.068   3.683  19.220  0.00  0.00    +0.000 C 
ATOM      3  C   UNL     1       3.448   4.396  18.011  0.00  0.00    +0.000 C 
ATOM      4  C   UNL     1       2.141   3.708  17.574  0.00  0.00    +0.000 C 
ATOM      5  C   UNL     1       1.093   3.652  18.704  0.00  0.00    +0.000 C 
ATOM      6  C   UNL     1       1.729   3.190  19.959  0.00  0.00    +0.000 A 
ATOM      7  N   UNL     1       1.075   2.705  21.013  0.00  0.00    +0.000 NA
ATOM      8  O   UNL     1       2.093   2.402  21.929  0.00  0.00    +0.000 OA
ATOM      9  N   UNL     1       3.356   2.704  21.411  0.00  0.00    +0.000 NA
ATOM     10  C   UNL     1       3.109   3.201  20.198  0.00  0.00    +0.000 A 
ENDROOT
BRANCH   1  11
ATOM     11  N   UNL     1       6.207   3.974  18.515  0.00  0.00    +0.000 N 
ATOM     12  H   UNL     1       7.148   3.980  18.918  0.00  0.00    +0.000 HD
ATOM     13  H   UNL     1       6.275   3.357  17.701  0.00  0.00    +0.000 HD
ENDBRANCH   1  11
TORSDOF 1
ENDMDL
MODEL 4
REMARK VINA RESULT:      -5.7      4.278      4.718
REMARK  Name = 
REMARK  1 active torsions:
REMARK  status: ('A' for Active; 'I' for Inactive)
REMARK    1  A    between atoms: N_1  and  N_2
REMARK                            x       y       z     vdW  Elec       q    Type
REMARK                         _______ _______ _______ _____ _____    ______ ____
ROOT
ATOM      1  N   UNL     1       8.017   5.224  18.858  0.00  0.00    +0.000 NA
ATOM      2  C   UNL     1       6.834   4.955  18.386  0.00  0.00    +0.000 C 
ATOM      3  C   UNL     1       5.536   4.842  19.196  0.00  0.00    +0.000 C 
ATOM      4  C   UNL     1       4.341   5.413  18.410  0.00  0.00    +0.000 C 
ATOM      5  C   UNL     1       4.136   4.711  17.052  0.00  0.00    +0.000 C 
ATOM      6  C   UNL     1       5.431   4.590  16.345  0.00  0.00    +0.000 A 
ATOM      7  N   UNL     1       5.571   4.361  15.041  0.00  0.00    +0.000 NA
ATOM      8  O   UNL     1       6.962   4.342  14.851  0.00  0.00    +0.000 OA
ATOM      9  N   UNL     1       7.646   4.567  16.050  0.00  0.00    +0.000 NA
ATOM     10  C   UNL     1       6.683   4.707  16.963  0.00  0.00    +0.000 A 
ENDROOT
BRANCH   1  11
ATOM     11  N   UNL     1       8.125   5.439  20.190  0.00  0.00    +0.000 N 
ATOM     12  H   UNL     1       7.278   5.093  20.649  0.00  0.00    +0.000 HD
ATOM     13  H   UNL     1       8.888   4.900  20.607  0.00  0.00    +0.000 HD
ENDBRANCH   1  11
TORSDOF 1
ENDMDL
MODEL 5
REMARK VINA RESULT:      -5.6      3.823      4.597
REMARK  Name = 
REMARK  1 active torsions:
REMARK  status: ('A' for Active; 'I' for Inactive)
REMARK    1  A    between atoms: N_1  and  N_2
REMARK                            x       y       z     vdW  Elec       q    Type
REMARK                         _______ _______ _______ _____ _____    ______ ____
ROOT
ATOM      1  N   UNL     1       6.932   5.132  19.779  0.00  0.00    +0.000 NA
ATOM      2  C   UNL     1       6.485   5.040  18.560  0.00  0.00    +0.000 C 
ATOM      3  C   UNL     1       7.230   5.455  17.285  0.00  0.00    +0.000 C 
ATOM      4  C   UNL     1       6.932   4.482  16.128  0.00  0.00    +0.000 C 
ATOM      5  C   UNL     1       5.426   4.384  15.809  0.00  0.00    +0.000 C 
ATOM      6  C   UNL     1       4.654   4.223  17.062  0.00  0.00    +0.000 A 
ATOM      7  N   UNL     1       3.403   3.770  17.135  0.00  0.00    +0.000 NA
ATOM      8  O   UNL     1       3.120   3.789  18.509  0.00  0.00    +0.000 OA
ATOM      9  N   UNL     1       4.212   4.250  19.252  0.00  0.00    +0.000 NA
ATOM     10  C   UNL     1       5.145   4.523  18.338  0.00  0.00    +0.000 A 
ENDROOT
BRANCH   1  11
ATOM     11  N   UNL     1       8.179   5.627  19.952  0.00  0.00    +0.000 N 
ATOM     12  H   UNL     1       8.225   6.096  20.861  0.00  0.00    +0.000 HD
ATOM     13  H   UNL     1       8.884   4.887  20.002  0.00  0.00    +0.000 HD
ENDBRANCH   1  11
TORSDOF 1
ENDMDL
MODEL 6
REMARK VINA RESULT:      -5.6      4.254      4.802
REMARK  Name = 
REMARK  1 active torsions:
REMARK  status: ('A' for Active; 'I' for Inactive)
REMARK    1  A    between atoms: N_1  and  N_2
REMARK                            x       y       z     vdW  Elec       q    Type
REMARK                         _______ _______ _______ _____ _____    ______ ____
ROOT
ATOM      1  N   UNL     1       7.147   5.250  19.996  0.00  0.00    +0.000 NA
ATOM      2  C   UNL     1       6.604   5.605  18.867  0.00  0.00    +0.000 C 
ATOM      3  C   UNL     1       7.328   6.221  17.664  0.00  0.00    +0.000 C 
ATOM      4  C   UNL     1       6.739   5.703  16.338  0.00  0.00    +0.000 C 
ATOM      5  C   UNL     1       5.230   5.993  16.206  0.00  0.00    +0.000 C 
ATOM      6  C   UNL     1       4.534   5.626  17.460  0.00  0.00    +0.000 A 
ATOM      7  N   UNL     1       3.223   5.421  17.574  0.00  0.00    +0.000 NA
ATOM      8  O   UNL     1       3.051   5.093  18.927  0.00  0.00    +0.000 OA
ATOM      9  N   UNL     1       4.268   5.099  19.616  0.00  0.00    +0.000 NA
ATOM     10  C   UNL     1       5.171   5.442  18.694  0.00  0.00    +0.000 A 
ENDROOT
BRANCH   1  11
ATOM     11  N   UNL     1       8.482   5.425  20.129  0.00  0.00    +0.000 N 
ATOM     12  H   UNL     1       8.842   5.876  19.284  0.00  0.00    +0.000 HD
ATOM     13  H   UNL     1       8.713   6.071  20.889  0.00  0.00    +0.000 HD
ENDBRANCH   1  11
TORSDOF 1
ENDMDL
MODEL 7
REMARK VINA RESULT:      -5.5      4.187      5.353
REMARK  Name = 
REMARK  1 active torsions:
REMARK  status: ('A' for Active; 'I' for Inactive)
REMARK    1  A    between atoms: N_1  and  N_2
REMARK                            x       y       z     vdW  Elec       q    Type
REMARK                         _______ _______ _______ _____ _____    ______ ____
ROOT
ATOM      1  N   UNL     1       6.778   3.941  15.267  0.00  0.00    +0.000 NA
ATOM      2  C   UNL     1       6.013   4.244  16.276  0.00  0.00    +0.000 C 
ATOM      3  C   UNL     1       4.479   4.268  16.279  0.00  0.00    +0.000 C 
ATOM      4  C   UNL     1       3.920   3.766  17.623  0.00  0.00    +0.000 C 
ATOM      5  C   UNL     1       4.428   4.591  18.823  0.00  0.00    +0.000 C 
ATOM      6  C   UNL     1       5.892   4.789  18.716  0.00  0.00    +0.000 A 
ATOM      7  N   UNL     1       6.690   5.142  19.721  0.00  0.00    +0.000 NA
ATOM      8  O   UNL     1       7.965   5.191  19.137  0.00  0.00    +0.000 OA
ATOM      9  N   UNL     1       7.920   4.858  17.779  0.00  0.00    +0.000 NA
ATOM     10  C   UNL     1       6.628   4.625  17.536  0.00  0.00    +0.000 A 
ENDROOT
BRANCH   1  11
ATOM     11  N   UNL     1       6.174   3.601  14.105  0.00  0.00    +0.000 N 
ATOM     12  H   UNL     1       6.693   2.830  13.676  0.00  0.00    +0.000 HD
ATOM     13  H   UNL     1       5.231   3.231  14.254  0.00  0.00    +0.000 HD
ENDBRANCH   1  11
TORSDOF 1
ENDMDL
MODEL 8
REMARK VINA RESULT:      -5.5      4.153      5.413
REMARK  Name = 
REMARK  1 active torsions:
REMARK  status: ('A' for Active; 'I' for Inactive)
REMARK    1  A    between atoms: N_1  and  N_2
REMARK                            x       y       z     vdW  Elec       q    Type
REMARK                         _______ _______ _______ _____ _____    ______ ____
ROOT
ATOM      1  N   UNL     1       3.867   5.679  19.371  0.00  0.00    +0.000 NA
ATOM      2  C   UNL     1       4.574   5.102  18.442  0.00  0.00    +0.000 C 
ATOM      3  C   UNL     1       4.036   4.471  17.151  0.00  0.00    +0.000 C 
ATOM      4  C   UNL     1       4.997   4.717  15.973  0.00  0.00    +0.000 C 
ATOM      5  C   UNL     1       6.413   4.166  16.237  0.00  0.00    +0.000 C 
ATOM      6  C   UNL     1       6.865   4.565  17.590  0.00  0.00    +0.000 A 
ATOM      7  N   UNL     1       8.131   4.562  18.004  0.00  0.00    +0.000 NA
ATOM      8  O   UNL     1       8.052   5.021  19.327  0.00  0.00    +0.000 OA
ATOM      9  N   UNL     1       6.732   5.302  19.695  0.00  0.00    +0.000 NA
ATOM     10  C   UNL     1       6.013   5.002  18.612  0.00  0.00    +0.000 A 
ENDROOT
BRANCH   1  11
ATOM     11  N   UNL     1       2.528   5.746  19.187  0.00  0.00    +0.000 N 
ATOM     12  H   UNL     1       2.325   5.618  18.192  0.00  0.00    +0.000 HD
ATOM     13  H   UNL     1       2.036   4.980  19.656  0.00  0.00    +0.000 HD
ENDBRANCH   1  11
TORSDOF 1
ENDMDL
MODEL 9
REMARK VINA RESULT:      -5.5      2.243      2.989
REMARK  Name = 
REMARK  1 active torsions:
REMARK  status: ('A' for Active; 'I' for Inactive)
REMARK    1  A    between atoms: N_1  and  N_2
REMARK                            x       y       z     vdW  Elec       q    Type
REMARK                         _______ _______ _______ _____ _____    ______ ____
ROOT
ATOM      1  N   UNL     1       2.788   2.811  21.399  0.00  0.00    +0.000 NA
ATOM      2  C   UNL     1       2.689   2.956  20.109  0.00  0.00    +0.000 C 
ATOM      3  C   UNL     1       1.433   2.717  19.261  0.00  0.00    +0.000 C 
ATOM      4  C   UNL     1       1.332   3.746  18.119  0.00  0.00    +0.000 C 
ATOM      5  C   UNL     1       2.564   3.724  17.191  0.00  0.00    +0.000 C 
ATOM      6  C   UNL     1       3.805   3.711  18.000  0.00  0.00    +0.000 A 
ATOM      7  N   UNL     1       5.015   4.035  17.547  0.00  0.00    +0.000 NA
ATOM      8  O   UNL     1       5.844   3.879  18.668  0.00  0.00    +0.000 OA
ATOM      9  N   UNL     1       5.119   3.468  19.791  0.00  0.00    +0.000 NA
ATOM     10  C   UNL     1       3.863   3.358  19.354  0.00  0.00    +0.000 A 
ENDROOT
BRANCH   1  11
ATOM     11  N   UNL     1       1.678   2.425  22.072  0.00  0.00    +0.000 N 
ATOM     12  H   UNL     1       1.023   3.210  22.105  0.00  0.00    +0.000 HD
ATOM     13  H   UNL     1       1.172   1.681  21.584  0.00  0.00    +0.000 HD
ENDBRANCH   1  11
TORSDOF 1
ENDMDL
