MODEL 1
REMARK VINA RESULT:      -6.5      0.000      0.000
REMARK  Name = 
REMARK  12 active torsions:
REMARK  status: ('A' for Active; 'I' for Inactive)
REMARK    1  A    between atoms: C_1  and  O_2
REMARK    2  A    between atoms: O_2  and  C_3
REMARK    3  A    between atoms: C_3  and  C_4
REMARK    4  A    between atoms: C_4  and  N_5
REMARK    5  A    between atoms: N_5  and  C_6
REMARK    6  A    between atoms: N_5  and  C_19
REMARK    7  A    between atoms: C_6  and  C_7
REMARK    8  A    between atoms: C_10  and  C_11
REMARK    9  A    between atoms: C_16  and  C_17
REMARK   10  A    between atoms: C_19  and  C_20
REMARK   11  A    between atoms: C_19  and  C_21
REMARK   12  A    between atoms: C_19  and  C_22
REMARK                            x       y       z     vdW  Elec       q    Type
REMARK                         _______ _______ _______ _____ _____    ______ ____
ROOT
ATOM      1  C   UNL     1       3.321   5.343  19.756  0.00  0.00    +0.000 A 
ATOM      2  C   UNL     1       2.319   4.940  20.609  0.00  0.00    +0.000 A 
ATOM      3  O   UNL     1       1.519   6.011  20.873  0.00  0.00    +0.000 OA
ATOM      4  C   UNL     1       2.084   7.036  20.161  0.00  0.00    +0.000 A 
ATOM      5  N   UNL     1       3.167   6.686  19.501  0.00  0.00    +0.000 NA
ENDROOT
BRANCH   4   6
ATOM      6  C   UNL     1       1.451   8.351  20.235  0.00  0.00    +0.000 A 
ATOM      7  C   UNL     1       0.981   8.827  21.472  0.00  0.00    +0.000 A 
ATOM      8  C   UNL     1       0.469  10.120  21.594  0.00  0.00    +0.000 A 
ATOM      9  C   UNL     1       0.409  10.954  20.484  0.00  0.00    +0.000 A 
ATOM     10  C   UNL     1       0.844  10.490  19.241  0.00  0.00    +0.000 A 
ATOM     11  C   UNL     1       1.355   9.189  19.100  0.00  0.00    +0.000 A 
ATOM     12  C   UNL     1       1.792   8.735  17.729  0.00  0.00    +0.000 C 
ENDBRANCH   4   6
BRANCH   1  13
ATOM     13  C   UNL     1       4.444   4.562  19.151  0.00  0.00    +0.000 C 
BRANCH  13  14
ATOM     14  N   UNL     1       4.430   4.513  17.674  0.00  0.00    +0.000 NA
BRANCH  14  15
ATOM     15  C   UNL     1       5.522   5.236  16.953  0.00  0.00    +0.000 C 
ATOM     16  C   UNL     1       6.607   5.707  17.956  0.00  0.00    +0.000 C 
ATOM     17  C   UNL     1       6.258   4.298  15.964  0.00  0.00    +0.000 C 
ATOM     18  C   UNL     1       5.064   6.493  16.180  0.00  0.00    +0.000 C 
ENDBRANCH  14  15
BRANCH  14  19
ATOM     19  C   UNL     1       4.104   3.173  17.125  0.00  0.00    +0.000 C 
BRANCH  19  20
ATOM     20  C   UNL     1       3.083   2.279  17.868  0.00  0.00    +0.000 C 
BRANCH  20  22
ATOM     21  C   UNL     1       0.884   2.302  18.706  0.00  0.00    +0.000 C 
ATOM     22  O   UNL     1       1.746   2.745  17.664  0.00  0.00    +0.000 OA
ENDBRANCH  20  22
ENDBRANCH  19  20
ENDBRANCH  14  19
ENDBRANCH  13  14
ENDBRANCH   1  13
TORSDOF 7
ENDMDL
MODEL 2
REMARK VINA RESULT:      -6.4      0.502      1.103
REMARK  Name = 
REMARK  12 active torsions:
REMARK  status: ('A' for Active; 'I' for Inactive)
REMARK    1  A    between atoms: C_1  and  O_2
REMARK    2  A    between atoms: O_2  and  C_3
REMARK    3  A    between atoms: C_3  and  C_4
REMARK    4  A    between atoms: C_4  and  N_5
REMARK    5  A    between atoms: N_5  and  C_6
REMARK    6  A    between atoms: N_5  and  C_19
REMARK    7  A    between atoms: C_6  and  C_7
REMARK    8  A    between atoms: C_10  and  C_11
REMARK    9  A    between atoms: C_16  and  C_17
REMARK   10  A    between atoms: C_19  and  C_20
REMARK   11  A    between atoms: C_19  and  C_21
REMARK   12  A    between atoms: C_19  and  C_22
REMARK                            x       y       z     vdW  Elec       q    Type
REMARK                         _______ _______ _______ _____ _____    ______ ____
ROOT
ATOM      1  C   UNL     1       3.468   5.369  19.758  0.00  0.00    +0.000 A 
ATOM      2  C   UNL     1       2.470   4.897  20.581  0.00  0.00    +0.000 A 
ATOM      3  O   UNL     1       1.601   5.916  20.835  0.00  0.00    +0.000 OA
ATOM      4  C   UNL     1       2.122   6.980  20.148  0.00  0.00    +0.000 A 
ATOM      5  N   UNL     1       3.240   6.703  19.513  0.00  0.00    +0.000 NA
ENDROOT
BRANCH   4   6
ATOM      6  C   UNL     1       1.409   8.255  20.219  0.00  0.00    +0.000 A 
ATOM      7  C   UNL     1       0.821   8.654  21.433  0.00  0.00    +0.000 A 
ATOM      8  C   UNL     1       0.227   9.911  21.560  0.00  0.00    +0.000 A 
ATOM      9  C   UNL     1       0.203  10.784  20.479  0.00  0.00    +0.000 A 
ATOM     10  C   UNL     1       0.756  10.394  19.258  0.00  0.00    +0.000 A 
ATOM     11  C   UNL     1       1.351   9.130  19.111  0.00  0.00    +0.000 A 
ATOM     12  C   UNL     1       1.915   8.756  17.763  0.00  0.00    +0.000 C 
ENDBRANCH   4   6
BRANCH   1  13
ATOM     13  C   UNL     1       4.650   4.663  19.174  0.00  0.00    +0.000 C 
BRANCH  13  14
ATOM     14  N   UNL     1       4.627   4.546  17.701  0.00  0.00    +0.000 NA
BRANCH  14  15
ATOM     15  C   UNL     1       5.821   5.049  16.954  0.00  0.00    +0.000 C 
ATOM     16  C   UNL     1       5.840   4.466  15.517  0.00  0.00    +0.000 C 
ATOM     17  C   UNL     1       5.762   6.586  16.772  0.00  0.00    +0.000 C 
ATOM     18  C   UNL     1       7.182   4.688  17.592  0.00  0.00    +0.000 C 
ENDBRANCH  14  15
BRANCH  14  19
ATOM     19  C   UNL     1       4.091   3.250  17.215  0.00  0.00    +0.000 C 
BRANCH  19  20
ATOM     20  C   UNL     1       2.562   3.010  17.230  0.00  0.00    +0.000 C 
BRANCH  20  22
ATOM     21  C   UNL     1       0.875   2.301  18.709  0.00  0.00    +0.000 C 
ATOM     22  O   UNL     1       2.199   2.067  18.242  0.00  0.00    +0.000 OA
ENDBRANCH  20  22
ENDBRANCH  19  20
ENDBRANCH  14  19
ENDBRANCH  13  14
ENDBRANCH   1  13
TORSDOF 7
ENDMDL
MODEL 3
REMARK VINA RESULT:      -6.3      1.615      2.702
REMARK  Name = 
REMARK  12 active torsions:
REMARK  status: ('A' for Active; 'I' for Inactive)
REMARK    1  A    between atoms: C_1  and  O_2
REMARK    2  A    between atoms: O_2  and  C_3
REMARK    3  A    between atoms: C_3  and  C_4
REMARK    4  A    between atoms: C_4  and  N_5
REMARK    5  A    between atoms: N_5  and  C_6
REMARK    6  A    between atoms: N_5  and  C_19
REMARK    7  A    between atoms: C_6  and  C_7
REMARK    8  A    between atoms: C_10  and  C_11
REMARK    9  A    between atoms: C_16  and  C_17
REMARK   10  A    between atoms: C_19  and  C_20
REMARK   11  A    between atoms: C_19  and  C_21
REMARK   12  A    between atoms: C_19  and  C_22
REMARK                            x       y       z     vdW  Elec       q    Type
REMARK                         _______ _______ _______ _____ _____    ______ ____
ROOT
ATOM      1  C   UNL     1       3.605   5.072  19.539  0.00  0.00    +0.000 A 
ATOM      2  C   UNL     1       2.466   4.534  20.095  0.00  0.00    +0.000 A 
ATOM      3  O   UNL     1       1.612   5.552  20.402  0.00  0.00    +0.000 OA
ATOM      4  C   UNL     1       2.286   6.682  20.018  0.00  0.00    +0.000 A 
ATOM      5  N   UNL     1       3.480   6.442  19.521  0.00  0.00    +0.000 NA
ENDROOT
BRANCH   4   6
ATOM      6  C   UNL     1       1.629   7.972  20.221  0.00  0.00    +0.000 A 
ATOM      7  C   UNL     1       1.192   8.334  21.508  0.00  0.00    +0.000 A 
ATOM      8  C   UNL     1       0.658   9.601  21.752  0.00  0.00    +0.000 A 
ATOM      9  C   UNL     1       0.544  10.521  20.717  0.00  0.00    +0.000 A 
ATOM     10  C   UNL     1       0.945  10.169  19.427  0.00  0.00    +0.000 A 
ATOM     11  C   UNL     1       1.478   8.897  19.163  0.00  0.00    +0.000 A 
ATOM     12  C   UNL     1       1.876   8.566  17.746  0.00  0.00    +0.000 C 
ENDBRANCH   4   6
BRANCH   1  13
ATOM     13  C   UNL     1       4.834   4.397  19.020  0.00  0.00    +0.000 C 
BRANCH  13  14
ATOM     14  N   UNL     1       5.553   5.154  17.974  0.00  0.00    +0.000 NA
BRANCH  14  15
ATOM     15  C   UNL     1       6.982   5.505  18.239  0.00  0.00    +0.000 C 
ATOM     16  C   UNL     1       7.921   4.462  17.580  0.00  0.00    +0.000 C 
ATOM     17  C   UNL     1       7.356   6.861  17.591  0.00  0.00    +0.000 C 
ATOM     18  C   UNL     1       7.367   5.559  19.735  0.00  0.00    +0.000 C 
ENDBRANCH  14  15
BRANCH  14  19
ATOM     19  C   UNL     1       5.276   4.677  16.596  0.00  0.00    +0.000 C 
BRANCH  19  20
ATOM     20  C   UNL     1       5.207   5.702  15.439  0.00  0.00    +0.000 C 
BRANCH  20  22
ATOM     21  C   UNL     1       6.462   4.156  14.184  0.00  0.00    +0.000 C 
ATOM     22  O   UNL     1       6.297   5.527  14.530  0.00  0.00    +0.000 OA
ENDBRANCH  20  22
ENDBRANCH  19  20
ENDBRANCH  14  19
ENDBRANCH  13  14
ENDBRANCH   1  13
TORSDOF 7
ENDMDL
MODEL 4
REMARK VINA RESULT:      -6.2      2.016      3.013
REMARK  Name = 
REMARK  12 active torsions:
REMARK  status: ('A' for Active; 'I' for Inactive)
REMARK    1  A    between atoms: C_1  and  O_2
REMARK    2  A    between atoms: O_2  and  C_3
REMARK    3  A    between atoms: C_3  and  C_4
REMARK    4  A    between atoms: C_4  and  N_5
REMARK    5  A    between atoms: N_5  and  C_6
REMARK    6  A    between atoms: N_5  and  C_19
REMARK    7  A    between atoms: C_6  and  C_7
REMARK    8  A    between atoms: C_10  and  C_11
REMARK    9  A    between atoms: C_16  and  C_17
REMARK   10  A    between atoms: C_19  and  C_20
REMARK   11  A    between atoms: C_19  and  C_21
REMARK   12  A    between atoms: C_19  and  C_22
REMARK                            x       y       z     vdW  Elec       q    Type
REMARK                         _______ _______ _______ _____ _____    ______ ____
ROOT
ATOM      1  C   UNL     1       2.234   7.818  18.924  0.00  0.00    +0.000 A 
ATOM      2  C   UNL     1       2.414   8.571  17.785  0.00  0.00    +0.000 A 
ATOM      3  O   UNL     1       1.725   9.740  17.926  0.00  0.00    +0.000 OA
ATOM      4  C   UNL     1       1.144   9.639  19.163  0.00  0.00    +0.000 A 
ATOM      5  N   UNL     1       1.404   8.506  19.778  0.00  0.00    +0.000 NA
ENDROOT
BRANCH   4   6
ATOM      6  C   UNL     1       0.318  10.754  19.622  0.00  0.00    +0.000 A 
ATOM      7  C   UNL     1       0.799  11.604  20.635  0.00  0.00    +0.000 A 
ATOM      8  C   UNL     1       0.080  12.737  21.020  0.00  0.00    +0.000 A 
ATOM      9  C   UNL     1      -1.131  13.036  20.407  0.00  0.00    +0.000 A 
ATOM     10  C   UNL     1      -1.638  12.189  19.420  0.00  0.00    +0.000 A 
ATOM     11  C   UNL     1      -0.931  11.041  19.027  0.00  0.00    +0.000 A 
ATOM     12  C   UNL     1      -1.538  10.153  17.969  0.00  0.00    +0.000 C 
ENDBRANCH   4   6
BRANCH   1  13
ATOM     13  C   UNL     1       2.778   6.473  19.285  0.00  0.00    +0.000 C 
BRANCH  13  14
ATOM     14  N   UNL     1       2.888   5.533  18.150  0.00  0.00    +0.000 NA
BRANCH  14  15
ATOM     15  C   UNL     1       4.260   5.076  17.767  0.00  0.00    +0.000 C 
ATOM     16  C   UNL     1       4.193   3.681  17.095  0.00  0.00    +0.000 C 
ATOM     17  C   UNL     1       4.887   6.014  16.706  0.00  0.00    +0.000 C 
ATOM     18  C   UNL     1       5.250   4.948  18.947  0.00  0.00    +0.000 C 
ENDBRANCH  14  15
BRANCH  14  19
ATOM     19  C   UNL     1       1.858   4.464  18.159  0.00  0.00    +0.000 C 
BRANCH  19  20
ATOM     20  C   UNL     1       1.351   3.913  19.513  0.00  0.00    +0.000 C 
BRANCH  20  22
ATOM     21  C   UNL     1       2.169   3.115  21.571  0.00  0.00    +0.000 C 
ATOM     22  O   UNL     1       2.359   3.130  20.160  0.00  0.00    +0.000 OA
ENDBRANCH  20  22
ENDBRANCH  19  20
ENDBRANCH  14  19
ENDBRANCH  13  14
ENDBRANCH   1  13
TORSDOF 7
ENDMDL
MODEL 5
REMARK VINA RESULT:      -6.2      2.102      3.370
REMARK  Name = 
REMARK  12 active torsions:
REMARK  status: ('A' for Active; 'I' for Inactive)
REMARK    1  A    between atoms: C_1  and  O_2
REMARK    2  A    between atoms: O_2  and  C_3
REMARK    3  A    between atoms: C_3  and  C_4
REMARK    4  A    between atoms: C_4  and  N_5
REMARK    5  A    between atoms: N_5  and  C_6
REMARK    6  A    between atoms: N_5  and  C_19
REMARK    7  A    between atoms: C_6  and  C_7
REMARK    8  A    between atoms: C_10  and  C_11
REMARK    9  A    between atoms: C_16  and  C_17
REMARK   10  A    between atoms: C_19  and  C_20
REMARK   11  A    between atoms: C_19  and  C_21
REMARK   12  A    between atoms: C_19  and  C_22
REMARK                            x       y       z     vdW  Elec       q    Type
REMARK                         _______ _______ _______ _____ _____    ______ ____
ROOT
ATOM      1  C   UNL     1       2.440   7.607  18.723  0.00  0.00    +0.000 A 
ATOM      2  C   UNL     1       2.893   8.368  17.669  0.00  0.00    +0.000 A 
ATOM      3  O   UNL     1       2.038   9.416  17.494  0.00  0.00    +0.000 OA
ATOM      4  C   UNL     1       1.086   9.237  18.462  0.00  0.00    +0.000 A 
ATOM      5  N   UNL     1       1.277   8.164  19.199  0.00  0.00    +0.000 NA
ENDROOT
BRANCH   4   6
ATOM      6  C   UNL     1       0.001  10.213  18.542  0.00  0.00    +0.000 A 
ATOM      7  C   UNL     1      -1.113  10.085  17.694  0.00  0.00    +0.000 A 
ATOM      8  C   UNL     1      -2.211  10.937  17.819  0.00  0.00    +0.000 A 
ATOM      9  C   UNL     1      -2.212  11.935  18.787  0.00  0.00    +0.000 A 
ATOM     10  C   UNL     1      -1.104  12.096  19.620  0.00  0.00    +0.000 A 
ATOM     11  C   UNL     1       0.012  11.252  19.501  0.00  0.00    +0.000 A 
ATOM     12  C   UNL     1       1.189  11.485  20.416  0.00  0.00    +0.000 C 
ENDBRANCH   4   6
BRANCH   1  13
ATOM     13  C   UNL     1       3.013   6.367  19.331  0.00  0.00    +0.000 C 
BRANCH  13  14
ATOM     14  N   UNL     1       2.821   5.144  18.524  0.00  0.00    +0.000 NA
BRANCH  14  15
ATOM     15  C   UNL     1       4.047   4.386  18.124  0.00  0.00    +0.000 C 
ATOM     16  C   UNL     1       3.706   2.889  17.908  0.00  0.00    +0.000 C 
ATOM     17  C   UNL     1       4.594   4.883  16.763  0.00  0.00    +0.000 C 
ATOM     18  C   UNL     1       5.198   4.429  19.154  0.00  0.00    +0.000 C 
ENDBRANCH  14  15
BRANCH  14  19
ATOM     19  C   UNL     1       1.691   4.298  18.982  0.00  0.00    +0.000 C 
BRANCH  19  20
ATOM     20  C   UNL     1       1.190   4.429  20.440  0.00  0.00    +0.000 C 
BRANCH  20  22
ATOM     21  C   UNL     1       2.449   2.772  21.540  0.00  0.00    +0.000 C 
ATOM     22  O   UNL     1       1.154   3.155  21.089  0.00  0.00    +0.000 OA
ENDBRANCH  20  22
ENDBRANCH  19  20
ENDBRANCH  14  19
ENDBRANCH  13  14
ENDBRANCH   1  13
TORSDOF 7
ENDMDL
MODEL 6
REMARK VINA RESULT:      -6.2      2.727      7.345
REMARK  Name = 
REMARK  12 active torsions:
REMARK  status: ('A' for Active; 'I' for Inactive)
REMARK    1  A    between atoms: C_1  and  O_2
REMARK    2  A    between atoms: O_2  and  C_3
REMARK    3  A    between atoms: C_3  and  C_4
REMARK    4  A    between atoms: C_4  and  N_5
REMARK    5  A    between atoms: N_5  and  C_6
REMARK    6  A    between atoms: N_5  and  C_19
REMARK    7  A    between atoms: C_6  and  C_7
REMARK    8  A    between atoms: C_10  and  C_11
REMARK    9  A    between atoms: C_16  and  C_17
REMARK   10  A    between atoms: C_19  and  C_20
REMARK   11  A    between atoms: C_19  and  C_21
REMARK   12  A    between atoms: C_19  and  C_22
REMARK                            x       y       z     vdW  Elec       q    Type
REMARK                         _______ _______ _______ _____ _____    ______ ____
ROOT
ATOM      1  C   UNL     1       1.540   8.864  18.904  0.00  0.00    +0.000 A 
ATOM      2  C   UNL     1       1.705   8.117  20.048  0.00  0.00    +0.000 A 
ATOM      3  O   UNL     1       2.480   7.035  19.750  0.00  0.00    +0.000 OA
ATOM      4  C   UNL     1       2.750   7.174  18.414  0.00  0.00    +0.000 A 
ATOM      5  N   UNL     1       2.194   8.235  17.870  0.00  0.00    +0.000 NA
ENDROOT
BRANCH   4   6
ATOM      6  C   UNL     1       3.575   6.152  17.774  0.00  0.00    +0.000 A 
ATOM      7  C   UNL     1       4.906   6.448  17.431  0.00  0.00    +0.000 A 
ATOM      8  C   UNL     1       5.750   5.462  16.916  0.00  0.00    +0.000 A 
ATOM      9  C   UNL     1       5.278   4.168  16.729  0.00  0.00    +0.000 A 
ATOM     10  C   UNL     1       3.951   3.862  17.037  0.00  0.00    +0.000 A 
ATOM     11  C   UNL     1       3.088   4.844  17.548  0.00  0.00    +0.000 A 
ATOM     12  C   UNL     1       1.659   4.459  17.844  0.00  0.00    +0.000 C 
ENDBRANCH   4   6
BRANCH   1  13
ATOM     13  C   UNL     1       0.797  10.144  18.688  0.00  0.00    +0.000 C 
BRANCH  13  14
ATOM     14  N   UNL     1      -0.416  10.295  19.519  0.00  0.00    +0.000 NA
BRANCH  14  15
ATOM     15  C   UNL     1      -0.344  11.244  20.672  0.00  0.00    +0.000 C 
ATOM     16  C   UNL     1      -1.541  12.228  20.634  0.00  0.00    +0.000 C 
ATOM     17  C   UNL     1      -0.471  10.496  22.023  0.00  0.00    +0.000 C 
ATOM     18  C   UNL     1       0.935  12.111  20.717  0.00  0.00    +0.000 C 
ENDBRANCH  14  15
BRANCH  14  19
ATOM     19  C   UNL     1      -1.672  10.368  18.733  0.00  0.00    +0.000 C 
BRANCH  19  20
ATOM     20  C   UNL     1      -1.647   9.999  17.230  0.00  0.00    +0.000 C 
BRANCH  20  22
ATOM     21  C   UNL     1      -3.525  10.937  16.166  0.00  0.00    +0.000 C 
ATOM     22  O   UNL     1      -2.968   9.759  16.736  0.00  0.00    +0.000 OA
ENDBRANCH  20  22
ENDBRANCH  19  20
ENDBRANCH  14  19
ENDBRANCH  13  14
ENDBRANCH   1  13
TORSDOF 7
ENDMDL
MODEL 7
REMARK VINA RESULT:      -6.2      2.112      3.795
REMARK  Name = 
REMARK  12 active torsions:
REMARK  status: ('A' for Active; 'I' for Inactive)
REMARK    1  A    between atoms: C_1  and  O_2
REMARK    2  A    between atoms: O_2  and  C_3
REMARK    3  A    between atoms: C_3  and  C_4
REMARK    4  A    between atoms: C_4  and  N_5
REMARK    5  A    between atoms: N_5  and  C_6
REMARK    6  A    between atoms: N_5  and  C_19
REMARK    7  A    between atoms: C_6  and  C_7
REMARK    8  A    between atoms: C_10  and  C_11
REMARK    9  A    between atoms: C_16  and  C_17
REMARK   10  A    between atoms: C_19  and  C_20
REMARK   11  A    between atoms: C_19  and  C_21
REMARK   12  A    between atoms: C_19  and  C_22
REMARK                            x       y       z     vdW  Elec       q    Type
REMARK                         _______ _______ _______ _____ _____    ______ ____
ROOT
ATOM      1  C   UNL     1       2.560   7.510  18.448  0.00  0.00    +0.000 A 
ATOM      2  C   UNL     1       2.012   8.476  17.634  0.00  0.00    +0.000 A 
ATOM      3  O   UNL     1       1.230   9.292  18.397  0.00  0.00    +0.000 OA
ATOM      4  C   UNL     1       1.337   8.773  19.660  0.00  0.00    +0.000 A 
ATOM      5  N   UNL     1       2.100   7.703  19.730  0.00  0.00    +0.000 NA
ENDROOT
BRANCH   4   6
ATOM      6  C   UNL     1       0.599   9.434  20.736  0.00  0.00    +0.000 A 
ATOM      7  C   UNL     1       0.017   8.661  21.756  0.00  0.00    +0.000 A 
ATOM      8  C   UNL     1      -0.602   9.268  22.850  0.00  0.00    +0.000 A 
ATOM      9  C   UNL     1      -0.655  10.655  22.940  0.00  0.00    +0.000 A 
ATOM     10  C   UNL     1      -0.107  11.439  21.923  0.00  0.00    +0.000 A 
ATOM     11  C   UNL     1       0.511  10.843  20.812  0.00  0.00    +0.000 A 
ATOM     12  C   UNL     1       1.069  11.740  19.735  0.00  0.00    +0.000 C 
ENDBRANCH   4   6
BRANCH   1  13
ATOM     13  C   UNL     1       3.493   6.389  18.119  0.00  0.00    +0.000 C 
BRANCH  13  14
ATOM     14  N   UNL     1       3.559   5.326  19.144  0.00  0.00    +0.000 NA
BRANCH  14  15
ATOM     15  C   UNL     1       2.492   4.280  19.117  0.00  0.00    +0.000 C 
ATOM     16  C   UNL     1       1.750   4.304  17.755  0.00  0.00    +0.000 C 
ATOM     17  C   UNL     1       3.096   2.859  19.229  0.00  0.00    +0.000 C 
ATOM     18  C   UNL     1       1.408   4.434  20.209  0.00  0.00    +0.000 C 
ENDBRANCH  14  15
BRANCH  14  19
ATOM     19  C   UNL     1       4.930   4.809  19.379  0.00  0.00    +0.000 C 
BRANCH  19  20
ATOM     20  C   UNL     1       5.917   4.713  18.190  0.00  0.00    +0.000 C 
BRANCH  20  22
ATOM     21  C   UNL     1       7.730   5.791  19.235  0.00  0.00    +0.000 C 
ATOM     22  O   UNL     1       7.265   4.580  18.649  0.00  0.00    +0.000 OA
ENDBRANCH  20  22
ENDBRANCH  19  20
ENDBRANCH  14  19
ENDBRANCH  13  14
ENDBRANCH   1  13
TORSDOF 7
ENDMDL
MODEL 8
REMARK VINA RESULT:      -6.2      2.155      3.859
REMARK  Name = 
REMARK  12 active torsions:
REMARK  status: ('A' for Active; 'I' for Inactive)
REMARK    1  A    between atoms: C_1  and  O_2
REMARK    2  A    between atoms: O_2  and  C_3
REMARK    3  A    between atoms: C_3  and  C_4
REMARK    4  A    between atoms: C_4  and  N_5
REMARK    5  A    between atoms: N_5  and  C_6
REMARK    6  A    between atoms: N_5  and  C_19
REMARK    7  A    between atoms: C_6  and  C_7
REMARK    8  A    between atoms: C_10  and  C_11
REMARK    9  A    between atoms: C_16  and  C_17
REMARK   10  A    between atoms: C_19  and  C_20
REMARK   11  A    between atoms: C_19  and  C_21
REMARK   12  A    between atoms: C_19  and  C_22
REMARK                            x       y       z     vdW  Elec       q    Type
REMARK                         _______ _______ _______ _____ _____    ______ ____
ROOT
ATOM      1  C   UNL     1       2.156   7.615  19.374  0.00  0.00    +0.000 A 
ATOM      2  C   UNL     1       1.609   7.656  20.637  0.00  0.00    +0.000 A 
ATOM      3  O   UNL     1       0.931   8.830  20.777  0.00  0.00    +0.000 OA
ATOM      4  C   UNL     1       1.105   9.463  19.574  0.00  0.00    +0.000 A 
ATOM      5  N   UNL     1       1.843   8.785  18.722  0.00  0.00    +0.000 NA
ENDROOT
BRANCH   4   6
ATOM      6  C   UNL     1       0.489  10.777  19.398  0.00  0.00    +0.000 A 
ATOM      7  C   UNL     1       1.021  11.889  20.075  0.00  0.00    +0.000 A 
ATOM      8  C   UNL     1       0.522  13.173  19.845  0.00  0.00    +0.000 A 
ATOM      9  C   UNL     1      -0.518  13.366  18.943  0.00  0.00    +0.000 A 
ATOM     10  C   UNL     1      -1.077  12.270  18.283  0.00  0.00    +0.000 A 
ATOM     11  C   UNL     1      -0.592  10.972  18.509  0.00  0.00    +0.000 A 
ATOM     12  C   UNL     1      -1.249   9.825  17.781  0.00  0.00    +0.000 C 
ENDBRANCH   4   6
BRANCH   1  13
ATOM     13  C   UNL     1       2.975   6.552  18.713  0.00  0.00    +0.000 C 
BRANCH  13  14
ATOM     14  N   UNL     1       3.073   5.291  19.477  0.00  0.00    +0.000 NA
BRANCH  14  15
ATOM     15  C   UNL     1       2.116   4.198  19.122  0.00  0.00    +0.000 C 
ATOM     16  C   UNL     1       2.831   2.823  19.165  0.00  0.00    +0.000 C 
ATOM     17  C   UNL     1       0.970   4.097  20.159  0.00  0.00    +0.000 C 
ATOM     18  C   UNL     1       1.486   4.322  17.716  0.00  0.00    +0.000 C 
ENDBRANCH  14  15
BRANCH  14  19
ATOM     19  C   UNL     1       4.468   4.842  19.711  0.00  0.00    +0.000 C 
BRANCH  19  20
ATOM     20  C   UNL     1       5.607   5.425  18.841  0.00  0.00    +0.000 C 
BRANCH  20  22
ATOM     21  C   UNL     1       7.435   4.631  17.588  0.00  0.00    +0.000 C 
ATOM     22  O   UNL     1       6.743   4.557  18.830  0.00  0.00    +0.000 OA
ENDBRANCH  20  22
ENDBRANCH  19  20
ENDBRANCH  14  19
ENDBRANCH  13  14
ENDBRANCH   1  13
TORSDOF 7
ENDMDL
MODEL 9
REMARK VINA RESULT:      -6.2      2.107      3.623
REMARK  Name = 
REMARK  12 active torsions:
REMARK  status: ('A' for Active; 'I' for Inactive)
REMARK    1  A    between atoms: C_1  and  O_2
REMARK    2  A    between atoms: O_2  and  C_3
REMARK    3  A    between atoms: C_3  and  C_4
REMARK    4  A    between atoms: C_4  and  N_5
REMARK    5  A    between atoms: N_5  and  C_6
REMARK    6  A    between atoms: N_5  and  C_19
REMARK    7  A    between atoms: C_6  and  C_7
REMARK    8  A    between atoms: C_10  and  C_11
REMARK    9  A    between atoms: C_16  and  C_17
REMARK   10  A    between atoms: C_19  and  C_20
REMARK   11  A    between atoms: C_19  and  C_21
REMARK   12  A    between atoms: C_19  and  C_22
REMARK                            x       y       z     vdW  Elec       q    Type
REMARK                         _______ _______ _______ _____ _____    ______ ____
ROOT
ATOM      1  C   UNL     1       2.892   6.667  18.285  0.00  0.00    +0.000 A 
ATOM      2  C   UNL     1       3.108   7.892  17.696  0.00  0.00    +0.000 A 
ATOM      3  O   UNL     1       2.451   8.842  18.420  0.00  0.00    +0.000 OA
ATOM      4  C   UNL     1       1.850   8.138  19.430  0.00  0.00    +0.000 A 
ATOM      5  N   UNL     1       2.070   6.842  19.374  0.00  0.00    +0.000 NA
ENDROOT
BRANCH   4   6
ATOM      6  C   UNL     1       1.049   8.883  20.401  0.00  0.00    +0.000 A 
ATOM      7  C   UNL     1       1.234   8.653  21.776  0.00  0.00    +0.000 A 
ATOM      8  C   UNL     1       0.561   9.423  22.727  0.00  0.00    +0.000 A 
ATOM      9  C   UNL     1      -0.310  10.427  22.321  0.00  0.00    +0.000 A 
ATOM     10  C   UNL     1      -0.528  10.651  20.961  0.00  0.00    +0.000 A 
ATOM     11  C   UNL     1       0.135   9.880  19.992  0.00  0.00    +0.000 A 
ATOM     12  C   UNL     1      -0.154  10.154  18.537  0.00  0.00    +0.000 C 
ENDBRANCH   4   6
BRANCH   1  13
ATOM     13  C   UNL     1       3.393   5.311  17.901  0.00  0.00    +0.000 C 
BRANCH  13  14
ATOM     14  N   UNL     1       3.977   4.536  19.016  0.00  0.00    +0.000 NA
BRANCH  14  15
ATOM     15  C   UNL     1       3.210   3.348  19.501  0.00  0.00    +0.000 C 
ATOM     16  C   UNL     1       4.179   2.187  19.845  0.00  0.00    +0.000 C 
ATOM     17  C   UNL     1       2.461   3.663  20.819  0.00  0.00    +0.000 C 
ATOM     18  C   UNL     1       2.189   2.781  18.488  0.00  0.00    +0.000 C 
ENDBRANCH  14  15
BRANCH  14  19
ATOM     19  C   UNL     1       5.440   4.322  18.892  0.00  0.00    +0.000 C 
BRANCH  19  20
ATOM     20  C   UNL     1       6.407   5.473  19.259  0.00  0.00    +0.000 C 
BRANCH  20  22
ATOM     21  C   UNL     1       7.333   4.624  17.268  0.00  0.00    +0.000 C 
ATOM     22  O   UNL     1       7.519   5.518  18.360  0.00  0.00    +0.000 OA
ENDBRANCH  20  22
ENDBRANCH  19  20
ENDBRANCH  14  19
ENDBRANCH  13  14
ENDBRANCH   1  13
TORSDOF 7
ENDMDL
