MODEL 1
REMARK VINA RESULT:      -7.2      0.000      0.000
REMARK  Name = 
REMARK  9 active torsions:
REMARK  status: ('A' for Active; 'I' for Inactive)
REMARK    1  A    between atoms: C_1  and  O_2
REMARK    2  A    between atoms: O_2  and  C_3
REMARK    3  A    between atoms: C_3  and  C_4
REMARK    4  A    between atoms: C_4  and  N_5
REMARK    5  A    between atoms: C_6  and  C_8
REMARK    6  A    between atoms: C_8  and  C_9
REMARK    7  A    between atoms: C_15  and  C_16
REMARK    8  A    between atoms: C_16  and  C_17
REMARK    9  A    between atoms: C_17  and  O_18
REMARK                            x       y       z     vdW  Elec       q    Type
REMARK                         _______ _______ _______ _____ _____    ______ ____
ROOT
ATOM      1  C   UNL     1       4.829   4.595  17.244  0.00  0.00    +0.000 C 
ATOM      2  C   UNL     1       3.681   5.613  17.444  0.00  0.00    +0.000 C 
ATOM      3  C   UNL     1       2.582   5.140  18.373  0.00  0.00    +0.000 C 
ATOM      4  C   UNL     1       2.469   5.621  19.628  0.00  0.00    +0.000 C 
ATOM      5  C   UNL     1       1.678   4.098  17.766  0.00  0.00    +0.000 C 
ATOM      6  C   UNL     1       2.197   2.682  17.979  0.00  0.00    +0.000 C 
ATOM      7  C   UNL     1       3.711   2.507  17.863  0.00  0.00    +0.000 C 
ATOM      8  O   UNL     1       4.317   3.292  16.830  0.00  0.00    +0.000 OA
ENDROOT
BRANCH   1  10
ATOM      9  N   UNL     1       6.106   4.180  15.153  0.00  0.00    +0.000 N 
ATOM     10  C   UNL     1       5.657   5.122  16.050  0.00  0.00    +0.000 C 
ATOM     11  O   UNL     1       5.958   6.317  15.937  0.00  0.00    +0.000 OA
ATOM     12  H   UNL     1       5.571   3.318  15.083  0.00  0.00    +0.000 HD
BRANCH   9  13
ATOM     13  C   UNL     1       6.833   4.599  13.957  0.00  0.00    +0.000 C 
BRANCH  13  14
ATOM     14  C   UNL     1       6.420   3.810  12.718  0.00  0.00    +0.000 C 
BRANCH  14  16
ATOM     15  C   UNL     1       4.564   3.062  11.480  0.00  0.00    +0.000 C 
ATOM     16  O   UNL     1       4.995   3.689  12.682  0.00  0.00    +0.000 OA
ENDBRANCH  14  16
ENDBRANCH  13  14
ENDBRANCH   9  13
ENDBRANCH   1  10
BRANCH   1  17
ATOM     17  C   UNL     1       5.836   4.592  18.417  0.00  0.00    +0.000 C 
ATOM     18  F   UNL     1       6.056   5.815  18.957  0.00  0.00    +0.000 F 
ATOM     19  F   UNL     1       5.437   3.802  19.442  0.00  0.00    +0.000 F 
ATOM     20  F   UNL     1       7.054   4.127  18.035  0.00  0.00    +0.000 F 
ENDBRANCH   1  17
BRANCH   4  21
ATOM     21  C   UNL     1       1.488   5.177  20.680  0.00  0.00    +0.000 C 
BRANCH  21  22
ATOM     22  C   UNL     1       1.921   3.882  21.365  0.00  0.00    +0.000 C 
BRANCH  22  23
ATOM     23  O   UNL     1       0.916   2.878  21.254  0.00  0.00    +0.000 OA
ATOM     24  H   UNL     1       0.176   3.271  20.757  0.00  0.00    +0.000 HD
ENDBRANCH  22  23
ENDBRANCH  21  22
ENDBRANCH   4  21
TORSDOF 8
ENDMDL
MODEL 2
REMARK VINA RESULT:      -7.1      1.849      2.486
REMARK  Name = 
REMARK  9 active torsions:
REMARK  status: ('A' for Active; 'I' for Inactive)
REMARK    1  A    between atoms: C_1  and  O_2
REMARK    2  A    between atoms: O_2  and  C_3
REMARK    3  A    between atoms: C_3  and  C_4
REMARK    4  A    between atoms: C_4  and  N_5
REMARK    5  A    between atoms: C_6  and  C_8
REMARK    6  A    between atoms: C_8  and  C_9
REMARK    7  A    between atoms: C_15  and  C_16
REMARK    8  A    between atoms: C_16  and  C_17
REMARK    9  A    between atoms: C_17  and  O_18
REMARK                            x       y       z     vdW  Elec       q    Type
REMARK                         _______ _______ _______ _____ _____    ______ ____
ROOT
ATOM      1  C   UNL     1       5.584   5.094  16.537  0.00  0.00    +0.000 C 
ATOM      2  C   UNL     1       4.401   4.104  16.411  0.00  0.00    +0.000 C 
ATOM      3  C   UNL     1       3.591   3.935  17.680  0.00  0.00    +0.000 C 
ATOM      4  C   UNL     1       2.372   4.496  17.813  0.00  0.00    +0.000 C 
ATOM      5  C   UNL     1       4.284   3.118  18.740  0.00  0.00    +0.000 C 
ATOM      6  C   UNL     1       5.162   3.968  19.648  0.00  0.00    +0.000 C 
ATOM      7  C   UNL     1       5.934   5.093  18.959  0.00  0.00    +0.000 C 
ATOM      8  O   UNL     1       6.444   4.752  17.666  0.00  0.00    +0.000 OA
ENDROOT
BRANCH   1  10
ATOM      9  N   UNL     1       5.931   4.038  14.314  0.00  0.00    +0.000 N 
ATOM     10  C   UNL     1       6.446   4.883  15.270  0.00  0.00    +0.000 C 
ATOM     11  O   UNL     1       7.568   5.391  15.148  0.00  0.00    +0.000 OA
ATOM     12  H   UNL     1       4.920   3.935  14.286  0.00  0.00    +0.000 HD
BRANCH   9  13
ATOM     13  C   UNL     1       6.645   3.839  13.056  0.00  0.00    +0.000 C 
BRANCH  13  14
ATOM     14  C   UNL     1       5.818   3.069  12.031  0.00  0.00    +0.000 C 
BRANCH  14  16
ATOM     15  C   UNL     1       3.764   3.133  10.886  0.00  0.00    +0.000 C 
ATOM     16  O   UNL     1       4.470   3.546  12.049  0.00  0.00    +0.000 OA
ENDBRANCH  14  16
ENDBRANCH  13  14
ENDBRANCH   9  13
ENDBRANCH   1  10
BRANCH   1  17
ATOM     17  C   UNL     1       5.141   6.570  16.438  0.00  0.00    +0.000 C 
ATOM     18  F   UNL     1       6.072   7.456  16.866  0.00  0.00    +0.000 F 
ATOM     19  F   UNL     1       4.839   6.938  15.169  0.00  0.00    +0.000 F 
ATOM     20  F   UNL     1       4.025   6.813  17.175  0.00  0.00    +0.000 F 
ENDBRANCH   1  17
BRANCH   4  21
ATOM     21  C   UNL     1       1.503   4.485  19.043  0.00  0.00    +0.000 C 
BRANCH  21  22
ATOM     22  C   UNL     1       0.865   3.119  19.289  0.00  0.00    +0.000 C 
BRANCH  22  23
ATOM     23  O   UNL     1       0.729   2.856  20.683  0.00  0.00    +0.000 OA
ATOM     24  H   UNL     1       0.868   1.900  20.806  0.00  0.00    +0.000 HD
ENDBRANCH  22  23
ENDBRANCH  21  22
ENDBRANCH   4  21
TORSDOF 8
ENDMDL
MODEL 3
REMARK VINA RESULT:      -7.1      1.832      2.469
REMARK  Name = 
REMARK  9 active torsions:
REMARK  status: ('A' for Active; 'I' for Inactive)
REMARK    1  A    between atoms: C_1  and  O_2
REMARK    2  A    between atoms: O_2  and  C_3
REMARK    3  A    between atoms: C_3  and  C_4
REMARK    4  A    between atoms: C_4  and  N_5
REMARK    5  A    between atoms: C_6  and  C_8
REMARK    6  A    between atoms: C_8  and  C_9
REMARK    7  A    between atoms: C_15  and  C_16
REMARK    8  A    between atoms: C_16  and  C_17
REMARK    9  A    between atoms: C_17  and  O_18
REMARK                            x       y       z     vdW  Elec       q    Type
REMARK                         _______ _______ _______ _____ _____    ______ ____
ROOT
ATOM      1  C   UNL     1       5.542   5.003  16.476  0.00  0.00    +0.000 C 
ATOM      2  C   UNL     1       4.297   4.096  16.324  0.00  0.00    +0.000 C 
ATOM      3  C   UNL     1       3.507   3.903  17.602  0.00  0.00    +0.000 C 
ATOM      4  C   UNL     1       2.329   4.528  17.800  0.00  0.00    +0.000 C 
ATOM      5  C   UNL     1       4.172   2.984  18.595  0.00  0.00    +0.000 C 
ATOM      6  C   UNL     1       5.121   3.724  19.527  0.00  0.00    +0.000 C 
ATOM      7  C   UNL     1       5.946   4.839  18.884  0.00  0.00    +0.000 C 
ATOM      8  O   UNL     1       6.404   4.544  17.560  0.00  0.00    +0.000 OA
ENDROOT
BRANCH   1  10
ATOM      9  N   UNL     1       5.765   4.074  14.182  0.00  0.00    +0.000 N 
ATOM     10  C   UNL     1       6.360   4.815  15.177  0.00  0.00    +0.000 C 
ATOM     11  O   UNL     1       7.513   5.249  15.059  0.00  0.00    +0.000 OA
ATOM     12  H   UNL     1       4.749   4.045  14.173  0.00  0.00    +0.000 HD
BRANCH   9  13
ATOM     13  C   UNL     1       6.437   3.908  12.895  0.00  0.00    +0.000 C 
BRANCH  13  14
ATOM     14  C   UNL     1       5.688   2.958  11.965  0.00  0.00    +0.000 C 
BRANCH  14  16
ATOM     15  C   UNL     1       3.741   3.357  10.706  0.00  0.00    +0.000 C 
ATOM     16  O   UNL     1       4.288   3.246  12.014  0.00  0.00    +0.000 OA
ENDBRANCH  14  16
ENDBRANCH  13  14
ENDBRANCH   9  13
ENDBRANCH   1  10
BRANCH   1  17
ATOM     17  C   UNL     1       5.189   6.508  16.473  0.00  0.00    +0.000 C 
ATOM     18  F   UNL     1       4.148   6.832  17.277  0.00  0.00    +0.000 F 
ATOM     19  F   UNL     1       6.223   7.284  16.877  0.00  0.00    +0.000 F 
ATOM     20  F   UNL     1       4.853   6.945  15.231  0.00  0.00    +0.000 F 
ENDBRANCH   1  17
BRANCH   4  21
ATOM     21  C   UNL     1       1.489   4.498  19.050  0.00  0.00    +0.000 C 
BRANCH  21  22
ATOM     22  C   UNL     1       1.854   5.619  20.020  0.00  0.00    +0.000 C 
BRANCH  22  23
ATOM     23  O   UNL     1       2.385   5.098  21.235  0.00  0.00    +0.000 OA
ATOM     24  H   UNL     1       2.920   5.805  21.638  0.00  0.00    +0.000 HD
ENDBRANCH  22  23
ENDBRANCH  21  22
ENDBRANCH   4  21
TORSDOF 8
ENDMDL
MODEL 4
REMARK VINA RESULT:      -7.0      1.893      2.553
REMARK  Name = 
REMARK  9 active torsions:
REMARK  status: ('A' for Active; 'I' for Inactive)
REMARK    1  A    between atoms: C_1  and  O_2
REMARK    2  A    between atoms: O_2  and  C_3
REMARK    3  A    between atoms: C_3  and  C_4
REMARK    4  A    between atoms: C_4  and  N_5
REMARK    5  A    between atoms: C_6  and  C_8
REMARK    6  A    between atoms: C_8  and  C_9
REMARK    7  A    between atoms: C_15  and  C_16
REMARK    8  A    between atoms: C_16  and  C_17
REMARK    9  A    between atoms: C_17  and  O_18
REMARK                            x       y       z     vdW  Elec       q    Type
REMARK                         _______ _______ _______ _____ _____    ______ ____
ROOT
ATOM      1  C   UNL     1       5.550   5.043  16.420  0.00  0.00    +0.000 C 
ATOM      2  C   UNL     1       4.346   4.073  16.361  0.00  0.00    +0.000 C 
ATOM      3  C   UNL     1       3.591   3.936  17.668  0.00  0.00    +0.000 C 
ATOM      4  C   UNL     1       2.389   4.519  17.848  0.00  0.00    +0.000 C 
ATOM      5  C   UNL     1       4.317   3.120  18.707  0.00  0.00    +0.000 C 
ATOM      6  C   UNL     1       5.250   3.967  19.562  0.00  0.00    +0.000 C 
ATOM      7  C   UNL     1       6.009   5.069  18.824  0.00  0.00    +0.000 C 
ATOM      8  O   UNL     1       6.454   4.701  17.514  0.00  0.00    +0.000 OA
ENDROOT
BRANCH   1  10
ATOM      9  N   UNL     1       5.783   3.943  14.204  0.00  0.00    +0.000 N 
ATOM     10  C   UNL     1       6.350   4.800  15.119  0.00  0.00    +0.000 C 
ATOM     11  O   UNL     1       7.471   5.293  14.936  0.00  0.00    +0.000 OA
ATOM     12  H   UNL     1       4.770   3.851  14.224  0.00  0.00    +0.000 HD
BRANCH   9  13
ATOM     13  C   UNL     1       6.436   3.714  12.917  0.00  0.00    +0.000 C 
BRANCH  13  14
ATOM     14  C   UNL     1       5.458   3.255  11.841  0.00  0.00    +0.000 C 
BRANCH  14  16
ATOM     15  C   UNL     1       6.912   1.584  11.046  0.00  0.00    +0.000 C 
ATOM     16  O   UNL     1       5.632   1.855  11.603  0.00  0.00    +0.000 OA
ENDBRANCH  14  16
ENDBRANCH  13  14
ENDBRANCH   9  13
ENDBRANCH   1  10
BRANCH   1  17
ATOM     17  C   UNL     1       5.128   6.526  16.320  0.00  0.00    +0.000 C 
ATOM     18  F   UNL     1       4.826   6.930  15.062  0.00  0.00    +0.000 F 
ATOM     19  F   UNL     1       4.034   6.806  17.069  0.00  0.00    +0.000 F 
ATOM     20  F   UNL     1       6.107   7.360  16.757  0.00  0.00    +0.000 F 
ENDBRANCH   1  17
BRANCH   4  21
ATOM     21  C   UNL     1       1.577   4.540  19.116  0.00  0.00    +0.000 C 
BRANCH  21  22
ATOM     22  C   UNL     1       0.869   3.212  19.372  0.00  0.00    +0.000 C 
BRANCH  22  23
ATOM     23  O   UNL     1       0.626   3.016  20.762  0.00  0.00    +0.000 OA
ATOM     24  H   UNL     1       1.276   3.559  21.243  0.00  0.00    +0.000 HD
ENDBRANCH  22  23
ENDBRANCH  21  22
ENDBRANCH   4  21
TORSDOF 8
ENDMDL
MODEL 5
REMARK VINA RESULT:      -7.0      0.649      1.022
REMARK  Name = 
REMARK  9 active torsions:
REMARK  status: ('A' for Active; 'I' for Inactive)
REMARK    1  A    between atoms: C_1  and  O_2
REMARK    2  A    between atoms: O_2  and  C_3
REMARK    3  A    between atoms: C_3  and  C_4
REMARK    4  A    between atoms: C_4  and  N_5
REMARK    5  A    between atoms: C_6  and  C_8
REMARK    6  A    between atoms: C_8  and  C_9
REMARK    7  A    between atoms: C_15  and  C_16
REMARK    8  A    between atoms: C_16  and  C_17
REMARK    9  A    between atoms: C_17  and  O_18
REMARK                            x       y       z     vdW  Elec       q    Type
REMARK                         _______ _______ _______ _____ _____    ______ ____
ROOT
ATOM      1  C   UNL     1       4.736   4.408  17.213  0.00  0.00    +0.000 C 
ATOM      2  C   UNL     1       3.568   5.407  17.383  0.00  0.00    +0.000 C 
ATOM      3  C   UNL     1       2.514   4.971  18.381  0.00  0.00    +0.000 C 
ATOM      4  C   UNL     1       2.429   5.533  19.603  0.00  0.00    +0.000 C 
ATOM      5  C   UNL     1       1.620   3.867  17.876  0.00  0.00    +0.000 C 
ATOM      6  C   UNL     1       2.185   2.483  18.166  0.00  0.00    +0.000 C 
ATOM      7  C   UNL     1       3.698   2.339  18.008  0.00  0.00    +0.000 C 
ATOM      8  O   UNL     1       4.247   3.067  16.905  0.00  0.00    +0.000 OA
ENDROOT
BRANCH   1  10
ATOM      9  N   UNL     1       5.910   3.888  15.085  0.00  0.00    +0.000 N 
ATOM     10  C   UNL     1       5.509   4.874  15.957  0.00  0.00    +0.000 C 
ATOM     11  O   UNL     1       5.810   6.061  15.775  0.00  0.00    +0.000 OA
ATOM     12  H   UNL     1       5.369   3.027  15.080  0.00  0.00    +0.000 HD
BRANCH   9  13
ATOM     13  C   UNL     1       6.581   4.246  13.838  0.00  0.00    +0.000 C 
BRANCH  13  14
ATOM     14  C   UNL     1       5.837   3.736  12.608  0.00  0.00    +0.000 C 
BRANCH  14  16
ATOM     15  C   UNL     1       5.926   1.720  11.397  0.00  0.00    +0.000 C 
ATOM     16  O   UNL     1       6.673   2.828  11.886  0.00  0.00    +0.000 OA
ENDBRANCH  14  16
ENDBRANCH  13  14
ENDBRANCH   9  13
ENDBRANCH   1  10
BRANCH   1  17
ATOM     17  C   UNL     1       5.781   4.511  18.346  0.00  0.00    +0.000 C 
ATOM     18  F   UNL     1       7.032   4.141  17.979  0.00  0.00    +0.000 F 
ATOM     19  F   UNL     1       5.897   5.770  18.833  0.00  0.00    +0.000 F 
ATOM     20  F   UNL     1       5.455   3.727  19.407  0.00  0.00    +0.000 F 
ENDBRANCH   1  17
BRANCH   4  21
ATOM     21  C   UNL     1       1.497   5.136  20.717  0.00  0.00    +0.000 C 
BRANCH  21  22
ATOM     22  C   UNL     1       1.966   3.878  21.444  0.00  0.00    +0.000 C 
BRANCH  22  23
ATOM     23  O   UNL     1       0.964   2.865  21.422  0.00  0.00    +0.000 OA
ATOM     24  H   UNL     1       0.871   2.578  20.496  0.00  0.00    +0.000 HD
ENDBRANCH  22  23
ENDBRANCH  21  22
ENDBRANCH   4  21
TORSDOF 8
ENDMDL
MODEL 6
REMARK VINA RESULT:      -6.8      1.827      2.526
REMARK  Name = 
REMARK  9 active torsions:
REMARK  status: ('A' for Active; 'I' for Inactive)
REMARK    1  A    between atoms: C_1  and  O_2
REMARK    2  A    between atoms: O_2  and  C_3
REMARK    3  A    between atoms: C_3  and  C_4
REMARK    4  A    between atoms: C_4  and  N_5
REMARK    5  A    between atoms: C_6  and  C_8
REMARK    6  A    between atoms: C_8  and  C_9
REMARK    7  A    between atoms: C_15  and  C_16
REMARK    8  A    between atoms: C_16  and  C_17
REMARK    9  A    between atoms: C_17  and  O_18
REMARK                            x       y       z     vdW  Elec       q    Type
REMARK                         _______ _______ _______ _____ _____    ______ ____
ROOT
ATOM      1  C   UNL     1       5.469   5.048  16.641  0.00  0.00    +0.000 C 
ATOM      2  C   UNL     1       4.292   4.067  16.423  0.00  0.00    +0.000 C 
ATOM      3  C   UNL     1       3.477   3.783  17.668  0.00  0.00    +0.000 C 
ATOM      4  C   UNL     1       2.255   4.323  17.845  0.00  0.00    +0.000 C 
ATOM      5  C   UNL     1       4.171   2.879  18.656  0.00  0.00    +0.000 C 
ATOM      6  C   UNL     1       5.040   3.651  19.639  0.00  0.00    +0.000 C 
ATOM      7  C   UNL     1       5.807   4.837  19.056  0.00  0.00    +0.000 C 
ATOM      8  O   UNL     1       6.325   4.613  17.740  0.00  0.00    +0.000 OA
ENDROOT
BRANCH   1  10
ATOM      9  N   UNL     1       5.913   4.070  14.401  0.00  0.00    +0.000 N 
ATOM     10  C   UNL     1       6.337   4.954  15.366  0.00  0.00    +0.000 C 
ATOM     11  O   UNL     1       7.393   5.588  15.243  0.00  0.00    +0.000 OA
ATOM     12  H   UNL     1       4.920   3.852  14.379  0.00  0.00    +0.000 HD
BRANCH   9  13
ATOM     13  C   UNL     1       6.634   3.971  13.134  0.00  0.00    +0.000 C 
BRANCH  13  14
ATOM     14  C   UNL     1       5.909   3.093  12.118  0.00  0.00    +0.000 C 
BRANCH  14  16
ATOM     15  C   UNL     1       6.241   1.027  11.042  0.00  0.00    +0.000 C 
ATOM     16  O   UNL     1       6.853   2.239  11.465  0.00  0.00    +0.000 OA
ENDBRANCH  14  16
ENDBRANCH  13  14
ENDBRANCH   9  13
ENDBRANCH   1  10
BRANCH   1  17
ATOM     17  C   UNL     1       5.017   6.526  16.670  0.00  0.00    +0.000 C 
ATOM     18  F   UNL     1       5.956   7.381  17.141  0.00  0.00    +0.000 F 
ATOM     19  F   UNL     1       4.679   6.989  15.443  0.00  0.00    +0.000 F 
ATOM     20  F   UNL     1       3.921   6.703  17.454  0.00  0.00    +0.000 F 
ENDBRANCH   1  17
BRANCH   4  21
ATOM     21  C   UNL     1       1.380   4.199  19.065  0.00  0.00    +0.000 C 
BRANCH  21  22
ATOM     22  C   UNL     1       1.734   5.227  20.137  0.00  0.00    +0.000 C 
BRANCH  22  23
ATOM     23  O   UNL     1       2.228   4.595  21.315  0.00  0.00    +0.000 OA
ATOM     24  H   UNL     1       3.150   4.889  21.429  0.00  0.00    +0.000 HD
ENDBRANCH  22  23
ENDBRANCH  21  22
ENDBRANCH   4  21
TORSDOF 8
ENDMDL
MODEL 7
REMARK VINA RESULT:      -6.8      2.019      2.649
REMARK  Name = 
REMARK  9 active torsions:
REMARK  status: ('A' for Active; 'I' for Inactive)
REMARK    1  A    between atoms: C_1  and  O_2
REMARK    2  A    between atoms: O_2  and  C_3
REMARK    3  A    between atoms: C_3  and  C_4
REMARK    4  A    between atoms: C_4  and  N_5
REMARK    5  A    between atoms: C_6  and  C_8
REMARK    6  A    between atoms: C_8  and  C_9
REMARK    7  A    between atoms: C_15  and  C_16
REMARK    8  A    between atoms: C_16  and  C_17
REMARK    9  A    between atoms: C_17  and  O_18
REMARK                            x       y       z     vdW  Elec       q    Type
REMARK                         _______ _______ _______ _____ _____    ______ ____
ROOT
ATOM      1  C   UNL     1       5.545   5.008  16.437  0.00  0.00    +0.000 C 
ATOM      2  C   UNL     1       4.273   4.134  16.330  0.00  0.00    +0.000 C 
ATOM      3  C   UNL     1       3.516   3.973  17.633  0.00  0.00    +0.000 C 
ATOM      4  C   UNL     1       2.361   4.631  17.859  0.00  0.00    +0.000 C 
ATOM      5  C   UNL     1       4.185   3.044  18.614  0.00  0.00    +0.000 C 
ATOM      6  C   UNL     1       5.181   3.767  19.511  0.00  0.00    +0.000 C 
ATOM      7  C   UNL     1       6.015   4.854  18.834  0.00  0.00    +0.000 C 
ATOM      8  O   UNL     1       6.426   4.535  17.500  0.00  0.00    +0.000 OA
ENDROOT
BRANCH   1  10
ATOM      9  N   UNL     1       5.750   3.921  14.212  0.00  0.00    +0.000 N 
ATOM     10  C   UNL     1       6.320   4.787  15.117  0.00  0.00    +0.000 C 
ATOM     11  O   UNL     1       7.424   5.306  14.909  0.00  0.00    +0.000 OA
ATOM     12  H   UNL     1       4.741   3.806  14.256  0.00  0.00    +0.000 HD
BRANCH   9  13
ATOM     13  C   UNL     1       6.378   3.711  12.910  0.00  0.00    +0.000 C 
BRANCH  13  14
ATOM     14  C   UNL     1       5.391   3.205  11.862  0.00  0.00    +0.000 C 
BRANCH  14  16
ATOM     15  C   UNL     1       7.074   1.724  11.148  0.00  0.00    +0.000 C 
ATOM     16  O   UNL     1       5.708   1.852  11.521  0.00  0.00    +0.000 OA
ENDBRANCH  14  16
ENDBRANCH  13  14
ENDBRANCH   9  13
ENDBRANCH   1  10
BRANCH   1  17
ATOM     17  C   UNL     1       5.233   6.521  16.430  0.00  0.00    +0.000 C 
ATOM     18  F   UNL     1       4.855   7.001  15.221  0.00  0.00    +0.000 F 
ATOM     19  F   UNL     1       4.233   6.849  17.285  0.00  0.00    +0.000 F 
ATOM     20  F   UNL     1       6.308   7.261  16.808  0.00  0.00    +0.000 F 
ENDBRANCH   1  17
BRANCH   4  21
ATOM     21  C   UNL     1       1.558   4.633  19.133  0.00  0.00    +0.000 C 
BRANCH  21  22
ATOM     22  C   UNL     1       2.154   5.559  20.191  0.00  0.00    +0.000 C 
BRANCH  22  23
ATOM     23  O   UNL     1       2.171   6.911  19.744  0.00  0.00    +0.000 OA
ATOM     24  H   UNL     1       2.871   6.979  19.070  0.00  0.00    +0.000 HD
ENDBRANCH  22  23
ENDBRANCH  21  22
ENDBRANCH   4  21
TORSDOF 8
ENDMDL
MODEL 8
REMARK VINA RESULT:      -6.8      1.449      2.031
REMARK  Name = 
REMARK  9 active torsions:
REMARK  status: ('A' for Active; 'I' for Inactive)
REMARK    1  A    between atoms: C_1  and  O_2
REMARK    2  A    between atoms: O_2  and  C_3
REMARK    3  A    between atoms: C_3  and  C_4
REMARK    4  A    between atoms: C_4  and  N_5
REMARK    5  A    between atoms: C_6  and  C_8
REMARK    6  A    between atoms: C_8  and  C_9
REMARK    7  A    between atoms: C_15  and  C_16
REMARK    8  A    between atoms: C_16  and  C_17
REMARK    9  A    between atoms: C_17  and  O_18
REMARK                            x       y       z     vdW  Elec       q    Type
REMARK                         _______ _______ _______ _____ _____    ______ ____
ROOT
ATOM      1  C   UNL     1       5.278   4.520  17.271  0.00  0.00    +0.000 C 
ATOM      2  C   UNL     1       4.117   3.671  16.701  0.00  0.00    +0.000 C 
ATOM      3  C   UNL     1       3.117   3.204  17.738  0.00  0.00    +0.000 C 
ATOM      4  C   UNL     1       1.899   3.773  17.845  0.00  0.00    +0.000 C 
ATOM      5  C   UNL     1       3.626   2.088  18.615  0.00  0.00    +0.000 C 
ATOM      6  C   UNL     1       4.363   2.605  19.843  0.00  0.00    +0.000 C 
ATOM      7  C   UNL     1       5.246   3.832  19.620  0.00  0.00    +0.000 C 
ATOM      8  O   UNL     1       5.947   3.833  18.372  0.00  0.00    +0.000 OA
ENDROOT
BRANCH   1  10
ATOM      9  N   UNL     1       5.850   4.473  14.854  0.00  0.00    +0.000 N 
ATOM     10  C   UNL     1       6.324   4.619  16.137  0.00  0.00    +0.000 C 
ATOM     11  O   UNL     1       7.532   4.756  16.369  0.00  0.00    +0.000 OA
ATOM     12  H   UNL     1       4.874   4.711  14.692  0.00  0.00    +0.000 HD
BRANCH   9  13
ATOM     13  C   UNL     1       6.757   4.625  13.719  0.00  0.00    +0.000 C 
BRANCH  13  14
ATOM     14  C   UNL     1       6.396   3.706  12.556  0.00  0.00    +0.000 C 
BRANCH  14  16
ATOM     15  C   UNL     1       4.492   3.130  11.299  0.00  0.00    +0.000 C 
ATOM     16  O   UNL     1       4.997   3.409  12.599  0.00  0.00    +0.000 OA
ENDBRANCH  14  16
ENDBRANCH  13  14
ENDBRANCH   9  13
ENDBRANCH   1  10
BRANCH   1  17
ATOM     17  C   UNL     1       4.874   5.989  17.528  0.00  0.00    +0.000 C 
ATOM     18  F   UNL     1       4.353   6.615  16.445  0.00  0.00    +0.000 F 
ATOM     19  F   UNL     1       3.943   6.109  18.505  0.00  0.00    +0.000 F 
ATOM     20  F   UNL     1       5.933   6.743  17.923  0.00  0.00    +0.000 F 
ENDBRANCH   1  17
BRANCH   4  21
ATOM     21  C   UNL     1       0.849   3.471  18.881  0.00  0.00    +0.000 C 
BRANCH  21  22
ATOM     22  C   UNL     1       1.090   4.227  20.186  0.00  0.00    +0.000 C 
BRANCH  22  23
ATOM     23  O   UNL     1       1.258   3.329  21.280  0.00  0.00    +0.000 OA
ATOM     24  H   UNL     1       1.280   2.430  20.907  0.00  0.00    +0.000 HD
ENDBRANCH  22  23
ENDBRANCH  21  22
ENDBRANCH   4  21
TORSDOF 8
ENDMDL
MODEL 9
REMARK VINA RESULT:      -6.7      2.468      6.029
REMARK  Name = 
REMARK  9 active torsions:
REMARK  status: ('A' for Active; 'I' for Inactive)
REMARK    1  A    between atoms: C_1  and  O_2
REMARK    2  A    between atoms: O_2  and  C_3
REMARK    3  A    between atoms: C_3  and  C_4
REMARK    4  A    between atoms: C_4  and  N_5
REMARK    5  A    between atoms: C_6  and  C_8
REMARK    6  A    between atoms: C_8  and  C_9
REMARK    7  A    between atoms: C_15  and  C_16
REMARK    8  A    between atoms: C_16  and  C_17
REMARK    9  A    between atoms: C_17  and  O_18
REMARK                            x       y       z     vdW  Elec       q    Type
REMARK                         _______ _______ _______ _____ _____    ______ ____
ROOT
ATOM      1  C   UNL     1       4.207   4.592  17.470  0.00  0.00    +0.000 C 
ATOM      2  C   UNL     1       5.391   4.297  18.421  0.00  0.00    +0.000 C 
ATOM      3  C   UNL     1       6.666   5.043  18.081  0.00  0.00    +0.000 C 
ATOM      4  C   UNL     1       7.076   6.099  18.812  0.00  0.00    +0.000 C 
ATOM      5  C   UNL     1       7.382   4.501  16.870  0.00  0.00    +0.000 C 
ATOM      6  C   UNL     1       6.897   5.138  15.575  0.00  0.00    +0.000 C 
ATOM      7  C   UNL     1       5.394   5.402  15.489  0.00  0.00    +0.000 C 
ATOM      8  O   UNL     1       4.582   4.380  16.075  0.00  0.00    +0.000 OA
ENDROOT
BRANCH   1  10
ATOM      9  N   UNL     1       3.120   3.037  19.074  0.00  0.00    +0.000 N 
ATOM     10  C   UNL     1       3.136   3.523  17.787  0.00  0.00    +0.000 C 
ATOM     11  O   UNL     1       2.377   3.076  16.918  0.00  0.00    +0.000 OA
ATOM     12  H   UNL     1       3.489   3.645  19.802  0.00  0.00    +0.000 HD
BRANCH   9  13
ATOM     13  C   UNL     1       2.095   2.078  19.479  0.00  0.00    +0.000 C 
BRANCH  13  14
ATOM     14  C   UNL     1       1.203   2.615  20.595  0.00  0.00    +0.000 C 
BRANCH  14  16
ATOM     15  C   UNL     1       1.345   4.956  20.787  0.00  0.00    +0.000 C 
ATOM     16  O   UNL     1       0.642   3.869  20.197  0.00  0.00    +0.000 OA
ENDBRANCH  14  16
ENDBRANCH  13  14
ENDBRANCH   9  13
ENDBRANCH   1  10
BRANCH   1  17
ATOM     17  C   UNL     1       3.500   5.927  17.792  0.00  0.00    +0.000 C 
ATOM     18  F   UNL     1       3.891   6.962  17.009  0.00  0.00    +0.000 F 
ATOM     19  F   UNL     1       2.154   5.849  17.654  0.00  0.00    +0.000 F 
ATOM     20  F   UNL     1       3.724   6.321  19.073  0.00  0.00    +0.000 F 
ENDBRANCH   1  17
BRANCH   4  21
ATOM     21  C   UNL     1       8.265   6.981  18.534  0.00  0.00    +0.000 C 
BRANCH  21  22
ATOM     22  C   UNL     1       7.905   8.181  17.661  0.00  0.00    +0.000 C 
BRANCH  22  23
ATOM     23  O   UNL     1       8.330   9.402  18.260  0.00  0.00    +0.000 OA
ATOM     24  H   UNL     1       8.943   9.827  17.634  0.00  0.00    +0.000 HD
ENDBRANCH  22  23
ENDBRANCH  21  22
ENDBRANCH   4  21
TORSDOF 8
ENDMDL
