MODEL 1
REMARK VINA RESULT:      -8.7      0.000      0.000
REMARK  Name = 
REMARK  8 active torsions:
REMARK  status: ('A' for Active; 'I' for Inactive)
REMARK    1  A    between atoms: C_1  and  N_2
REMARK    2  A    between atoms: N_2  and  C_3
REMARK    3  A    between atoms: N_2  and  C_4
REMARK    4  A    between atoms: C_4  and  C_5
REMARK    5  A    between atoms: C_10  and  C_11
REMARK    6  A    between atoms: C_11  and  N_12
REMARK    7  A    between atoms: C_15  and  C_16
REMARK    8  A    between atoms: C_22  and  C_23
REMARK                            x       y       z     vdW  Elec       q    Type
REMARK                         _______ _______ _______ _____ _____    ______ ____
ROOT
ATOM      1  N   UNL     1       5.157   4.356  18.022  0.00  0.00    +0.000 N 
ATOM      2  C   UNL     1       4.276   3.697  17.213  0.00  0.00    +0.000 A 
ATOM      3  N   UNL     1       4.616   3.789  15.969  0.00  0.00    +0.000 NA
ATOM      4  C   UNL     1       5.776   4.556  15.911  0.00  0.00    +0.000 A 
ATOM      5  C   UNL     1       6.015   5.106  17.190  0.00  0.00    +0.000 A 
ENDROOT
BRANCH   4   6
ATOM      6  C   UNL     1       6.382   4.552  14.556  0.00  0.00    +0.000 A 
ATOM      7  C   UNL     1       7.445   5.300  14.066  0.00  0.00    +0.000 A 
ATOM      8  C   UNL     1       7.867   5.189  12.720  0.00  0.00    +0.000 A 
ATOM      9  C   UNL     1       7.254   4.304  11.840  0.00  0.00    +0.000 A 
ATOM     10  C   UNL     1       6.212   3.518  12.297  0.00  0.00    +0.000 A 
ATOM     11  C   UNL     1       5.798   3.647  13.627  0.00  0.00    +0.000 A 
ENDBRANCH   4   6
BRANCH   5  12
ATOM     12  C   UNL     1       6.891   6.224  17.715  0.00  0.00    +0.000 A 
ATOM     13  C   UNL     1       7.793   6.247  18.756  0.00  0.00    +0.000 A 
ATOM     14  N   UNL     1       8.419   7.472  18.718  0.00  0.00    +0.000 N 
ATOM     15  C   UNL     1       7.898   8.154  17.661  0.00  0.00    +0.000 A 
ATOM     16  N   UNL     1       6.976   7.439  17.049  0.00  0.00    +0.000 NA
ATOM     17  H   UNL     1       9.155   7.797  19.333  0.00  0.00    +0.000 HD
ENDBRANCH   5  12
BRANCH   1  18
ATOM     18  C   UNL     1       5.026   4.210  19.488  0.00  0.00    +0.000 C 
BRANCH  18  24
ATOM     19  C   UNL     1       2.537   4.952  19.650  0.00  0.00    +0.000 A 
ATOM     20  C   UNL     1       1.199   4.520  19.552  0.00  0.00    +0.000 A 
ATOM     21  C   UNL     1       0.838   3.230  19.924  0.00  0.00    +0.000 A 
ATOM     22  C   UNL     1       1.805   2.377  20.439  0.00  0.00    +0.000 A 
ATOM     23  C   UNL     1       3.154   2.745  20.402  0.00  0.00    +0.000 A 
ATOM     24  C   UNL     1       3.553   3.996  19.890  0.00  0.00    +0.000 A 
BRANCH  19  25
ATOM     25  C   UNL     1       2.764   6.450  19.741  0.00  0.00    +0.000 C 
BRANCH  25  27
ATOM     26  C   UNL     1       1.759   8.554  19.115  0.00  0.00    +0.000 C 
ATOM     27  N   UNL     1       2.258   7.264  18.635  0.00  0.00    +0.000 NA
ATOM     28  C   UNL     1       3.353   7.493  17.682  0.00  0.00    +0.000 C 
ENDBRANCH  25  27
ENDBRANCH  19  25
ENDBRANCH  18  24
ENDBRANCH   1  18
TORSDOF 6
ENDMDL
MODEL 2
REMARK VINA RESULT:      -8.2      2.086      7.636
REMARK  Name = 
REMARK  8 active torsions:
REMARK  status: ('A' for Active; 'I' for Inactive)
REMARK    1  A    between atoms: C_1  and  N_2
REMARK    2  A    between atoms: N_2  and  C_3
REMARK    3  A    between atoms: N_2  and  C_4
REMARK    4  A    between atoms: C_4  and  C_5
REMARK    5  A    between atoms: C_10  and  C_11
REMARK    6  A    between atoms: C_11  and  N_12
REMARK    7  A    between atoms: C_15  and  C_16
REMARK    8  A    between atoms: C_22  and  C_23
REMARK                            x       y       z     vdW  Elec       q    Type
REMARK                         _______ _______ _______ _____ _____    ______ ____
ROOT
ATOM      1  N   UNL     1       3.262   5.993  18.412  0.00  0.00    +0.000 N 
ATOM      2  C   UNL     1       3.225   7.182  17.742  0.00  0.00    +0.000 A 
ATOM      3  N   UNL     1       2.523   8.062  18.379  0.00  0.00    +0.000 NA
ATOM      4  C   UNL     1       2.040   7.452  19.533  0.00  0.00    +0.000 A 
ATOM      5  C   UNL     1       2.324   6.070  19.463  0.00  0.00    +0.000 A 
ENDROOT
BRANCH   4   6
ATOM      6  C   UNL     1       1.397   8.425  20.452  0.00  0.00    +0.000 A 
ATOM      7  C   UNL     1       1.270   8.376  21.835  0.00  0.00    +0.000 A 
ATOM      8  C   UNL     1       0.585   9.387  22.548  0.00  0.00    +0.000 A 
ATOM      9  C   UNL     1       0.037  10.488  21.898  0.00  0.00    +0.000 A 
ATOM     10  C   UNL     1       0.169  10.589  20.525  0.00  0.00    +0.000 A 
ATOM     11  C   UNL     1       0.839   9.576  19.832  0.00  0.00    +0.000 A 
ENDBRANCH   4   6
BRANCH   5  12
ATOM     12  C   UNL     1       1.827   4.849  20.207  0.00  0.00    +0.000 A 
ATOM     13  C   UNL     1       0.874   3.914  19.866  0.00  0.00    +0.000 A 
ATOM     14  N   UNL     1       0.908   2.934  20.833  0.00  0.00    +0.000 N 
ATOM     15  C   UNL     1       1.877   3.286  21.722  0.00  0.00    +0.000 A 
ATOM     16  N   UNL     1       2.436   4.429  21.381  0.00  0.00    +0.000 NA
ATOM     17  H   UNL     1       0.348   2.092  20.862  0.00  0.00    +0.000 HD
ENDBRANCH   5  12
BRANCH   1  18
ATOM     18  C   UNL     1       4.163   4.926  17.923  0.00  0.00    +0.000 C 
BRANCH  18  24
ATOM     19  C   UNL     1       6.326   6.062  17.028  0.00  0.00    +0.000 A 
ATOM     20  C   UNL     1       7.439   6.854  17.377  0.00  0.00    +0.000 A 
ATOM     21  C   UNL     1       8.012   6.760  18.639  0.00  0.00    +0.000 A 
ATOM     22  C   UNL     1       7.504   5.840  19.548  0.00  0.00    +0.000 A 
ATOM     23  C   UNL     1       6.315   5.160  19.264  0.00  0.00    +0.000 A 
ATOM     24  C   UNL     1       5.639   5.355  18.044  0.00  0.00    +0.000 A 
BRANCH  19  25
ATOM     25  C   UNL     1       6.096   5.825  15.546  0.00  0.00    +0.000 C 
BRANCH  25  27
ATOM     26  C   UNL     1       5.899   3.574  14.695  0.00  0.00    +0.000 C 
ATOM     27  N   UNL     1       6.805   4.699  14.938  0.00  0.00    +0.000 NA
ATOM     28  C   UNL     1       7.381   5.142  13.660  0.00  0.00    +0.000 C 
ENDBRANCH  25  27
ENDBRANCH  19  25
ENDBRANCH  18  24
ENDBRANCH   1  18
TORSDOF 6
ENDMDL
MODEL 3
REMARK VINA RESULT:      -7.9      1.121      2.635
REMARK  Name = 
REMARK  8 active torsions:
REMARK  status: ('A' for Active; 'I' for Inactive)
REMARK    1  A    between atoms: C_1  and  N_2
REMARK    2  A    between atoms: N_2  and  C_3
REMARK    3  A    between atoms: N_2  and  C_4
REMARK    4  A    between atoms: C_4  and  C_5
REMARK    5  A    between atoms: C_10  and  C_11
REMARK    6  A    between atoms: C_11  and  N_12
REMARK    7  A    between atoms: C_15  and  C_16
REMARK    8  A    between atoms: C_22  and  C_23
REMARK                            x       y       z     vdW  Elec       q    Type
REMARK                         _______ _______ _______ _____ _____    ______ ____
ROOT
ATOM      1  N   UNL     1       4.942   4.804  17.789  0.00  0.00    +0.000 N 
ATOM      2  C   UNL     1       4.069   4.203  16.929  0.00  0.00    +0.000 A 
ATOM      3  N   UNL     1       4.516   4.217  15.715  0.00  0.00    +0.000 NA
ATOM      4  C   UNL     1       5.745   4.869  15.732  0.00  0.00    +0.000 A 
ATOM      5  C   UNL     1       5.933   5.439  17.011  0.00  0.00    +0.000 A 
ENDROOT
BRANCH   4   6
ATOM      6  C   UNL     1       6.454   4.759  14.432  0.00  0.00    +0.000 A 
ATOM      7  C   UNL     1       7.563   5.460  13.974  0.00  0.00    +0.000 A 
ATOM      8  C   UNL     1       8.086   5.246  12.677  0.00  0.00    +0.000 A 
ATOM      9  C   UNL     1       7.531   4.303  11.819  0.00  0.00    +0.000 A 
ATOM     10  C   UNL     1       6.445   3.563  12.249  0.00  0.00    +0.000 A 
ATOM     11  C   UNL     1       5.931   3.794  13.529  0.00  0.00    +0.000 A 
ENDBRANCH   4   6
BRANCH   5  12
ATOM     12  C   UNL     1       6.868   6.489  17.575  0.00  0.00    +0.000 A 
ATOM     13  C   UNL     1       7.789   6.417  18.596  0.00  0.00    +0.000 A 
ATOM     14  N   UNL     1       8.469   7.614  18.609  0.00  0.00    +0.000 N 
ATOM     15  C   UNL     1       7.959   8.372  17.600  0.00  0.00    +0.000 A 
ATOM     16  N   UNL     1       6.995   7.732  16.972  0.00  0.00    +0.000 NA
ATOM     17  H   UNL     1       9.230   7.872  19.225  0.00  0.00    +0.000 HD
ENDBRANCH   5  12
BRANCH   1  18
ATOM     18  C   UNL     1       4.681   4.724  19.243  0.00  0.00    +0.000 C 
BRANCH  18  24
ATOM     19  C   UNL     1       2.353   4.781  20.403  0.00  0.00    +0.000 A 
ATOM     20  C   UNL     1       1.436   5.591  21.104  0.00  0.00    +0.000 A 
ATOM     21  C   UNL     1       1.332   6.950  20.830  0.00  0.00    +0.000 A 
ATOM     22  C   UNL     1       2.113   7.500  19.821  0.00  0.00    +0.000 A 
ATOM     23  C   UNL     1       3.125   6.739  19.226  0.00  0.00    +0.000 A 
ATOM     24  C   UNL     1       3.341   5.398  19.599  0.00  0.00    +0.000 A 
BRANCH  19  25
ATOM     25  C   UNL     1       2.057   3.293  20.365  0.00  0.00    +0.000 C 
BRANCH  25  27
ATOM     26  C   UNL     1       2.868   1.528  18.930  0.00  0.00    +0.000 C 
ATOM     27  N   UNL     1       1.959   2.671  19.044  0.00  0.00    +0.000 NA
ATOM     28  C   UNL     1       0.577   2.213  18.842  0.00  0.00    +0.000 C 
ENDBRANCH  25  27
ENDBRANCH  19  25
ENDBRANCH  18  24
ENDBRANCH   1  18
TORSDOF 6
ENDMDL
MODEL 4
REMARK VINA RESULT:      -7.8      0.559      1.195
REMARK  Name = 
REMARK  8 active torsions:
REMARK  status: ('A' for Active; 'I' for Inactive)
REMARK    1  A    between atoms: C_1  and  N_2
REMARK    2  A    between atoms: N_2  and  C_3
REMARK    3  A    between atoms: N_2  and  C_4
REMARK    4  A    between atoms: C_4  and  C_5
REMARK    5  A    between atoms: C_10  and  C_11
REMARK    6  A    between atoms: C_11  and  N_12
REMARK    7  A    between atoms: C_15  and  C_16
REMARK    8  A    between atoms: C_22  and  C_23
REMARK                            x       y       z     vdW  Elec       q    Type
REMARK                         _______ _______ _______ _____ _____    ______ ____
ROOT
ATOM      1  N   UNL     1       5.007   4.164  18.016  0.00  0.00    +0.000 N 
ATOM      2  C   UNL     1       4.043   3.532  17.284  0.00  0.00    +0.000 A 
ATOM      3  N   UNL     1       4.303   3.580  16.018  0.00  0.00    +0.000 NA
ATOM      4  C   UNL     1       5.491   4.287  15.864  0.00  0.00    +0.000 A 
ATOM      5  C   UNL     1       5.842   4.852  17.111  0.00  0.00    +0.000 A 
ENDROOT
BRANCH   4   6
ATOM      6  C   UNL     1       6.003   4.224  14.472  0.00  0.00    +0.000 A 
ATOM      7  C   UNL     1       5.523   3.494  13.391  0.00  0.00    +0.000 A 
ATOM      8  C   UNL     1       6.168   3.529  12.133  0.00  0.00    +0.000 A 
ATOM      9  C   UNL     1       7.293   4.318  11.918  0.00  0.00    +0.000 A 
ATOM     10  C   UNL     1       7.784   5.083  12.960  0.00  0.00    +0.000 A 
ATOM     11  C   UNL     1       7.143   5.030  14.201  0.00  0.00    +0.000 A 
ENDBRANCH   4   6
BRANCH   5  12
ATOM     12  C   UNL     1       6.803   5.937  17.548  0.00  0.00    +0.000 A 
ATOM     13  C   UNL     1       6.935   7.243  17.133  0.00  0.00    +0.000 A 
ATOM     14  N   UNL     1       7.872   7.833  17.950  0.00  0.00    +0.000 N 
ATOM     15  C   UNL     1       8.277   6.885  18.840  0.00  0.00    +0.000 A 
ATOM     16  N   UNL     1       7.665   5.740  18.619  0.00  0.00    +0.000 NA
ATOM     17  H   UNL     1       8.179   8.797  17.924  0.00  0.00    +0.000 HD
ENDBRANCH   5  12
BRANCH   1  18
ATOM     18  C   UNL     1       4.968   4.056  19.490  0.00  0.00    +0.000 C 
BRANCH  18  24
ATOM     19  C   UNL     1       2.543   4.959  19.755  0.00  0.00    +0.000 A 
ATOM     20  C   UNL     1       1.178   4.605  19.770  0.00  0.00    +0.000 A 
ATOM     21  C   UNL     1       0.769   3.367  20.253  0.00  0.00    +0.000 A 
ATOM     22  C   UNL     1       1.718   2.492  20.765  0.00  0.00    +0.000 A 
ATOM     23  C   UNL     1       3.081   2.773  20.619  0.00  0.00    +0.000 A 
ATOM     24  C   UNL     1       3.515   3.960  19.997  0.00  0.00    +0.000 A 
BRANCH  19  25
ATOM     25  C   UNL     1       2.861   6.444  19.727  0.00  0.00    +0.000 C 
BRANCH  25  27
ATOM     26  C   UNL     1       1.770   8.505  19.102  0.00  0.00    +0.000 C 
ATOM     27  N   UNL     1       2.290   7.221  18.626  0.00  0.00    +0.000 NA
ATOM     28  C   UNL     1       3.343   7.465  17.629  0.00  0.00    +0.000 C 
ENDBRANCH  25  27
ENDBRANCH  19  25
ENDBRANCH  18  24
ENDBRANCH   1  18
TORSDOF 6
ENDMDL
MODEL 5
REMARK VINA RESULT:      -7.7      1.536      4.199
REMARK  Name = 
REMARK  8 active torsions:
REMARK  status: ('A' for Active; 'I' for Inactive)
REMARK    1  A    between atoms: C_1  and  N_2
REMARK    2  A    between atoms: N_2  and  C_3
REMARK    3  A    between atoms: N_2  and  C_4
REMARK    4  A    between atoms: C_4  and  C_5
REMARK    5  A    between atoms: C_10  and  C_11
REMARK    6  A    between atoms: C_11  and  N_12
REMARK    7  A    between atoms: C_15  and  C_16
REMARK    8  A    between atoms: C_22  and  C_23
REMARK                            x       y       z     vdW  Elec       q    Type
REMARK                         _______ _______ _______ _____ _____    ______ ____
ROOT
ATOM      1  N   UNL     1       5.303   5.545  18.149  0.00  0.00    +0.000 N 
ATOM      2  C   UNL     1       6.456   6.156  17.746  0.00  0.00    +0.000 A 
ATOM      3  N   UNL     1       6.818   5.756  16.571  0.00  0.00    +0.000 NA
ATOM      4  C   UNL     1       5.884   4.816  16.145  0.00  0.00    +0.000 A 
ATOM      5  C   UNL     1       5.029   4.511  17.228  0.00  0.00    +0.000 A 
ENDROOT
BRANCH   4   6
ATOM      6  C   UNL     1       6.075   4.443  14.722  0.00  0.00    +0.000 A 
ATOM      7  C   UNL     1       5.288   3.634  13.912  0.00  0.00    +0.000 A 
ATOM      8  C   UNL     1       5.649   3.356  12.573  0.00  0.00    +0.000 A 
ATOM      9  C   UNL     1       6.792   3.906  12.002  0.00  0.00    +0.000 A 
ATOM     10  C   UNL     1       7.586   4.742  12.766  0.00  0.00    +0.000 A 
ATOM     11  C   UNL     1       7.223   4.998  14.092  0.00  0.00    +0.000 A 
ENDBRANCH   4   6
BRANCH   5  12
ATOM     12  C   UNL     1       4.043   3.399  17.518  0.00  0.00    +0.000 A 
ATOM     13  C   UNL     1       2.856   3.067  16.903  0.00  0.00    +0.000 A 
ATOM     14  N   UNL     1       2.426   1.888  17.469  0.00  0.00    +0.000 N 
ATOM     15  C   UNL     1       3.357   1.529  18.396  0.00  0.00    +0.000 A 
ATOM     16  N   UNL     1       4.328   2.417  18.456  0.00  0.00    +0.000 NA
ATOM     17  H   UNL     1       1.597   1.363  17.222  0.00  0.00    +0.000 HD
ENDBRANCH   5  12
BRANCH   1  18
ATOM     18  C   UNL     1       4.645   6.010  19.389  0.00  0.00    +0.000 C 
BRANCH  18  24
ATOM     19  C   UNL     1       2.279   6.926  19.966  0.00  0.00    +0.000 A 
ATOM     20  C   UNL     1       1.416   8.036  19.856  0.00  0.00    +0.000 A 
ATOM     21  C   UNL     1       1.468   8.869  18.745  0.00  0.00    +0.000 A 
ATOM     22  C   UNL     1       2.351   8.574  17.716  0.00  0.00    +0.000 A 
ATOM     23  C   UNL     1       3.308   7.567  17.882  0.00  0.00    +0.000 A 
ATOM     24  C   UNL     1       3.365   6.807  19.066  0.00  0.00    +0.000 A 
BRANCH  19  25
ATOM     25  C   UNL     1       1.832   5.805  20.887  0.00  0.00    +0.000 C 
BRANCH  25  27
ATOM     26  C   UNL     1       2.496   3.562  21.488  0.00  0.00    +0.000 C 
ATOM     27  N   UNL     1       2.032   4.437  20.409  0.00  0.00    +0.000 NA
ATOM     28  C   UNL     1       0.753   3.929  19.892  0.00  0.00    +0.000 C 
ENDBRANCH  25  27
ENDBRANCH  19  25
ENDBRANCH  18  24
ENDBRANCH   1  18
TORSDOF 6
ENDMDL
MODEL 6
REMARK VINA RESULT:      -7.6      1.960      7.444
REMARK  Name = 
REMARK  8 active torsions:
REMARK  status: ('A' for Active; 'I' for Inactive)
REMARK    1  A    between atoms: C_1  and  N_2
REMARK    2  A    between atoms: N_2  and  C_3
REMARK    3  A    between atoms: N_2  and  C_4
REMARK    4  A    between atoms: C_4  and  C_5
REMARK    5  A    between atoms: C_10  and  C_11
REMARK    6  A    between atoms: C_11  and  N_12
REMARK    7  A    between atoms: C_15  and  C_16
REMARK    8  A    between atoms: C_22  and  C_23
REMARK                            x       y       z     vdW  Elec       q    Type
REMARK                         _______ _______ _______ _____ _____    ______ ____
ROOT
ATOM      1  N   UNL     1       3.612   5.890  18.644  0.00  0.00    +0.000 N 
ATOM      2  C   UNL     1       3.629   7.017  17.874  0.00  0.00    +0.000 A 
ATOM      3  N   UNL     1       2.797   7.903  18.315  0.00  0.00    +0.000 NA
ATOM      4  C   UNL     1       2.165   7.362  19.431  0.00  0.00    +0.000 A 
ATOM      5  C   UNL     1       2.518   5.998  19.528  0.00  0.00    +0.000 A 
ENDROOT
BRANCH   4   6
ATOM      6  C   UNL     1       1.343   8.368  20.150  0.00  0.00    +0.000 A 
ATOM      7  C   UNL     1       0.970   8.403  21.488  0.00  0.00    +0.000 A 
ATOM      8  C   UNL     1       0.143   9.432  21.995  0.00  0.00    +0.000 A 
ATOM      9  C   UNL     1      -0.307  10.467  21.183  0.00  0.00    +0.000 A 
ATOM     10  C   UNL     1       0.068  10.485  19.852  0.00  0.00    +0.000 A 
ATOM     11  C   UNL     1       0.877   9.455  19.361  0.00  0.00    +0.000 A 
ENDBRANCH   4   6
BRANCH   5  12
ATOM     12  C   UNL     1       1.963   4.813  20.291  0.00  0.00    +0.000 A 
ATOM     13  C   UNL     1       0.884   3.999  20.028  0.00  0.00    +0.000 A 
ATOM     14  N   UNL     1       0.903   2.990  20.965  0.00  0.00    +0.000 N 
ATOM     15  C   UNL     1       1.988   3.206  21.760  0.00  0.00    +0.000 A 
ATOM     16  N   UNL     1       2.633   4.293  21.390  0.00  0.00    +0.000 NA
ATOM     17  H   UNL     1       0.259   2.213  21.032  0.00  0.00    +0.000 HD
ENDBRANCH   5  12
BRANCH   1  18
ATOM     18  C   UNL     1       4.625   4.841  18.396  0.00  0.00    +0.000 C 
BRANCH  18  24
ATOM     19  C   UNL     1       6.373   5.674  16.659  0.00  0.00    +0.000 A 
ATOM     20  C   UNL     1       7.108   5.325  15.507  0.00  0.00    +0.000 A 
ATOM     21  C   UNL     1       6.573   4.465  14.556  0.00  0.00    +0.000 A 
ATOM     22  C   UNL     1       5.282   3.982  14.727  0.00  0.00    +0.000 A 
ATOM     23  C   UNL     1       4.606   4.203  15.931  0.00  0.00    +0.000 A 
ATOM     24  C   UNL     1       5.195   4.953  16.968  0.00  0.00    +0.000 A 
BRANCH  19  25
ATOM     25  C   UNL     1       6.765   6.967  17.351  0.00  0.00    +0.000 C 
BRANCH  25  27
ATOM     26  C   UNL     1       8.394   8.330  18.501  0.00  0.00    +0.000 C 
ATOM     27  N   UNL     1       8.048   6.978  18.054  0.00  0.00    +0.000 NA
ATOM     28  C   UNL     1       7.951   6.092  19.223  0.00  0.00    +0.000 C 
ENDBRANCH  25  27
ENDBRANCH  19  25
ENDBRANCH  18  24
ENDBRANCH   1  18
TORSDOF 6
ENDMDL
MODEL 7
REMARK VINA RESULT:      -7.6      4.412      7.974
REMARK  Name = 
REMARK  8 active torsions:
REMARK  status: ('A' for Active; 'I' for Inactive)
REMARK    1  A    between atoms: C_1  and  N_2
REMARK    2  A    between atoms: N_2  and  C_3
REMARK    3  A    between atoms: N_2  and  C_4
REMARK    4  A    between atoms: C_4  and  C_5
REMARK    5  A    between atoms: C_10  and  C_11
REMARK    6  A    between atoms: C_11  and  N_12
REMARK    7  A    between atoms: C_15  and  C_16
REMARK    8  A    between atoms: C_22  and  C_23
REMARK                            x       y       z     vdW  Elec       q    Type
REMARK                         _______ _______ _______ _____ _____    ______ ____
ROOT
ATOM      1  N   UNL     1       1.532   9.381  18.922  0.00  0.00    +0.000 N 
ATOM      2  C   UNL     1       2.494   8.876  18.095  0.00  0.00    +0.000 A 
ATOM      3  N   UNL     1       2.808   7.664  18.420  0.00  0.00    +0.000 NA
ATOM      4  C   UNL     1       2.041   7.318  19.529  0.00  0.00    +0.000 A 
ATOM      5  C   UNL     1       1.378   8.476  19.994  0.00  0.00    +0.000 A 
ENDROOT
BRANCH   4   6
ATOM      6  C   UNL     1       2.159   5.877  19.862  0.00  0.00    +0.000 A 
ATOM      7  C   UNL     1       1.288   5.067  20.580  0.00  0.00    +0.000 A 
ATOM      8  C   UNL     1       1.585   3.707  20.834  0.00  0.00    +0.000 A 
ATOM      9  C   UNL     1       2.748   3.117  20.349  0.00  0.00    +0.000 A 
ATOM     10  C   UNL     1       3.626   3.882  19.604  0.00  0.00    +0.000 A 
ATOM     11  C   UNL     1       3.325   5.228  19.370  0.00  0.00    +0.000 A 
ENDBRANCH   4   6
BRANCH   5  12
ATOM     12  C   UNL     1       0.667   8.844  21.279  0.00  0.00    +0.000 A 
ATOM     13  C   UNL     1      -0.578   8.492  21.751  0.00  0.00    +0.000 A 
ATOM     14  N   UNL     1      -0.677   8.985  23.032  0.00  0.00    +0.000 N 
ATOM     15  C   UNL     1       0.501   9.608  23.311  0.00  0.00    +0.000 A 
ATOM     16  N   UNL     1       1.319   9.550  22.280  0.00  0.00    +0.000 NA
ATOM     17  H   UNL     1      -1.459   8.875  23.666  0.00  0.00    +0.000 HD
ENDBRANCH   5  12
BRANCH   1  18
ATOM     18  C   UNL     1       0.922  10.687  18.594  0.00  0.00    +0.000 C 
BRANCH  18  24
ATOM     19  C   UNL     1      -1.503  11.391  19.222  0.00  0.00    +0.000 A 
ATOM     20  C   UNL     1      -2.806  11.600  18.725  0.00  0.00    +0.000 A 
ATOM     21  C   UNL     1      -3.301  10.828  17.681  0.00  0.00    +0.000 A 
ATOM     22  C   UNL     1      -2.513   9.813  17.155  0.00  0.00    +0.000 A 
ATOM     23  C   UNL     1      -1.173   9.697  17.538  0.00  0.00    +0.000 A 
ATOM     24  C   UNL     1      -0.612  10.569  18.492  0.00  0.00    +0.000 A 
BRANCH  19  25
ATOM     25  C   UNL     1      -1.229  11.866  20.638  0.00  0.00    +0.000 C 
BRANCH  25  27
ATOM     26  C   UNL     1      -2.505  12.208  22.659  0.00  0.00    +0.000 C 
ATOM     27  N   UNL     1      -2.277  12.657  21.284  0.00  0.00    +0.000 NA
ATOM     28  C   UNL     1      -1.860  14.067  21.298  0.00  0.00    +0.000 C 
ENDBRANCH  25  27
ENDBRANCH  19  25
ENDBRANCH  18  24
ENDBRANCH   1  18
TORSDOF 6
ENDMDL
MODEL 8
REMARK VINA RESULT:      -7.5      1.549      4.022
REMARK  Name = 
REMARK  8 active torsions:
REMARK  status: ('A' for Active; 'I' for Inactive)
REMARK    1  A    between atoms: C_1  and  N_2
REMARK    2  A    between atoms: N_2  and  C_3
REMARK    3  A    between atoms: N_2  and  C_4
REMARK    4  A    between atoms: C_4  and  C_5
REMARK    5  A    between atoms: C_10  and  C_11
REMARK    6  A    between atoms: C_11  and  N_12
REMARK    7  A    between atoms: C_15  and  C_16
REMARK    8  A    between atoms: C_22  and  C_23
REMARK                            x       y       z     vdW  Elec       q    Type
REMARK                         _______ _______ _______ _____ _____    ______ ____
ROOT
ATOM      1  N   UNL     1       6.005   5.040  18.015  0.00  0.00    +0.000 N 
ATOM      2  C   UNL     1       7.246   5.455  17.623  0.00  0.00    +0.000 A 
ATOM      3  N   UNL     1       7.482   5.141  16.391  0.00  0.00    +0.000 NA
ATOM      4  C   UNL     1       6.363   4.467  15.912  0.00  0.00    +0.000 A 
ATOM      5  C   UNL     1       5.498   4.205  16.997  0.00  0.00    +0.000 A 
ENDROOT
BRANCH   4   6
ATOM      6  C   UNL     1       6.430   4.244  14.446  0.00  0.00    +0.000 A 
ATOM      7  C   UNL     1       5.649   3.420  13.645  0.00  0.00    +0.000 A 
ATOM      8  C   UNL     1       5.884   3.305  12.255  0.00  0.00    +0.000 A 
ATOM      9  C   UNL     1       6.886   4.036  11.627  0.00  0.00    +0.000 A 
ATOM     10  C   UNL     1       7.666   4.891  12.384  0.00  0.00    +0.000 A 
ATOM     11  C   UNL     1       7.430   4.986  13.759  0.00  0.00    +0.000 A 
ENDBRANCH   4   6
BRANCH   5  12
ATOM     12  C   UNL     1       4.316   3.283  17.210  0.00  0.00    +0.000 A 
ATOM     13  C   UNL     1       4.224   2.073  17.862  0.00  0.00    +0.000 A 
ATOM     14  N   UNL     1       2.892   1.726  17.880  0.00  0.00    +0.000 N 
ATOM     15  C   UNL     1       2.211   2.726  17.255  0.00  0.00    +0.000 A 
ATOM     16  N   UNL     1       3.035   3.664  16.835  0.00  0.00    +0.000 NA
ATOM     17  H   UNL     1       2.485   0.904  18.308  0.00  0.00    +0.000 HD
ENDBRANCH   5  12
BRANCH   1  18
ATOM     18  C   UNL     1       5.494   5.467  19.336  0.00  0.00    +0.000 C 
BRANCH  18  24
ATOM     19  C   UNL     1       3.008   5.626  20.087  0.00  0.00    +0.000 A 
ATOM     20  C   UNL     1       1.915   6.497  20.272  0.00  0.00    +0.000 A 
ATOM     21  C   UNL     1       1.734   7.598  19.443  0.00  0.00    +0.000 A 
ATOM     22  C   UNL     1       2.620   7.810  18.394  0.00  0.00    +0.000 A 
ATOM     23  C   UNL     1       3.783   7.040  18.295  0.00  0.00    +0.000 A 
ATOM     24  C   UNL     1       4.056   6.012  19.219  0.00  0.00    +0.000 A 
BRANCH  19  25
ATOM     25  C   UNL     1       2.861   4.221  20.644  0.00  0.00    +0.000 C 
BRANCH  25  27
ATOM     26  C   UNL     1       0.632   3.585  19.967  0.00  0.00    +0.000 C 
ATOM     27  N   UNL     1       1.528   3.827  21.100  0.00  0.00    +0.000 NA
ATOM     28  C   UNL     1       1.648   2.595  21.893  0.00  0.00    +0.000 C 
ENDBRANCH  25  27
ENDBRANCH  19  25
ENDBRANCH  18  24
ENDBRANCH   1  18
TORSDOF 6
ENDMDL
MODEL 9
REMARK VINA RESULT:      -7.5      4.562      7.679
REMARK  Name = 
REMARK  8 active torsions:
REMARK  status: ('A' for Active; 'I' for Inactive)
REMARK    1  A    between atoms: C_1  and  N_2
REMARK    2  A    between atoms: N_2  and  C_3
REMARK    3  A    between atoms: N_2  and  C_4
REMARK    4  A    between atoms: C_4  and  C_5
REMARK    5  A    between atoms: C_10  and  C_11
REMARK    6  A    between atoms: C_11  and  N_12
REMARK    7  A    between atoms: C_15  and  C_16
REMARK    8  A    between atoms: C_22  and  C_23
REMARK                            x       y       z     vdW  Elec       q    Type
REMARK                         _______ _______ _______ _____ _____    ______ ____
ROOT
ATOM      1  N   UNL     1       1.845   8.940  18.816  0.00  0.00    +0.000 N 
ATOM      2  C   UNL     1       2.676   8.289  17.950  0.00  0.00    +0.000 A 
ATOM      3  N   UNL     1       2.798   7.039  18.260  0.00  0.00    +0.000 NA
ATOM      4  C   UNL     1       2.029   6.816  19.399  0.00  0.00    +0.000 A 
ATOM      5  C   UNL     1       1.586   8.064  19.892  0.00  0.00    +0.000 A 
ENDROOT
BRANCH   4   6
ATOM      6  C   UNL     1       1.920   5.373  19.726  0.00  0.00    +0.000 A 
ATOM      7  C   UNL     1       1.871   4.754  20.969  0.00  0.00    +0.000 A 
ATOM      8  C   UNL     1       1.803   3.346  21.090  0.00  0.00    +0.000 A 
ATOM      9  C   UNL     1       1.750   2.525  19.969  0.00  0.00    +0.000 A 
ATOM     10  C   UNL     1       1.765   3.104  18.713  0.00  0.00    +0.000 A 
ATOM     11  C   UNL     1       1.844   4.496  18.609  0.00  0.00    +0.000 A 
ENDBRANCH   4   6
BRANCH   5  12
ATOM     12  C   UNL     1       0.999   8.535  21.206  0.00  0.00    +0.000 A 
ATOM     13  C   UNL     1       1.573   9.218  22.255  0.00  0.00    +0.000 A 
ATOM     14  N   UNL     1       0.564   9.517  23.142  0.00  0.00    +0.000 N 
ATOM     15  C   UNL     1      -0.590   9.023  22.612  0.00  0.00    +0.000 A 
ATOM     16  N   UNL     1      -0.361   8.422  21.463  0.00  0.00    +0.000 NA
ATOM     17  H   UNL     1       0.650  10.036  24.006  0.00  0.00    +0.000 HD
ENDBRANCH   5  12
BRANCH   1  18
ATOM     18  C   UNL     1       1.448  10.332  18.514  0.00  0.00    +0.000 C 
BRANCH  18  24
ATOM     19  C   UNL     1      -0.786  11.490  19.177  0.00  0.00    +0.000 A 
ATOM     20  C   UNL     1      -2.060  11.881  18.718  0.00  0.00    +0.000 A 
ATOM     21  C   UNL     1      -2.734  11.128  17.764  0.00  0.00    +0.000 A 
ATOM     22  C   UNL     1      -2.159   9.955  17.295  0.00  0.00    +0.000 A 
ATOM     23  C   UNL     1      -0.838   9.639  17.633  0.00  0.00    +0.000 A 
ATOM     24  C   UNL     1      -0.088  10.472  18.485  0.00  0.00    +0.000 A 
BRANCH  19  25
ATOM     25  C   UNL     1      -0.360  12.018  20.536  0.00  0.00    +0.000 C 
BRANCH  25  27
ATOM     26  C   UNL     1       0.002  13.865  22.048  0.00  0.00    +0.000 C 
ATOM     27  N   UNL     1      -0.155  13.463  20.649  0.00  0.00    +0.000 NA
ATOM     28  C   UNL     1       1.058  13.825  19.902  0.00  0.00    +0.000 C 
ENDBRANCH  25  27
ENDBRANCH  19  25
ENDBRANCH  18  24
ENDBRANCH   1  18
TORSDOF 6
ENDMDL
