MODEL 1
REMARK VINA RESULT:      -6.9      0.000      0.000
REMARK  Name = 
REMARK  4 active torsions:
REMARK  status: ('A' for Active; 'I' for Inactive)
REMARK    1  A    between atoms: C_20  and  C_21
REMARK    2  A    between atoms: C_21  and  O_22
REMARK    3  A    between atoms: C_28  and  C_29
REMARK    4  A    between atoms: C_29  and  O_30
REMARK                            x       y       z     vdW  Elec       q    Type
REMARK                         _______ _______ _______ _____ _____    ______ ____
ROOT
ATOM      1  O   UNL     1       1.320  13.895  21.768  0.00  0.00    +0.000 OA
ATOM      2  C   UNL     1       0.160  14.114  22.097  0.00  0.00    +0.000 C 
ATOM      3  N   UNL     1      -0.166  15.057  23.064  0.00  0.00    +0.000 N 
ATOM      4  C   UNL     1      -1.603  15.285  23.286  0.00  0.00    +0.000 C 
ATOM      5  C   UNL     1      -2.131  14.239  22.416  0.00  0.00    +0.000 A 
ATOM      6  C   UNL     1      -1.108  13.609  21.654  0.00  0.00    +0.000 A 
ATOM      7  C   UNL     1      -1.603  12.779  20.636  0.00  0.00    +0.000 A 
ATOM      8  C   UNL     1      -0.876  11.951  19.756  0.00  0.00    +0.000 A 
ATOM      9  C   UNL     1       0.490  11.643  19.581  0.00  0.00    +0.000 A 
ATOM     10  C   UNL     1       0.893  10.683  18.650  0.00  0.00    +0.000 A 
ATOM     11  C   UNL     1      -0.044  10.006  17.882  0.00  0.00    +0.000 A 
ATOM     12  C   UNL     1      -1.409  10.293  17.990  0.00  0.00    +0.000 A 
ATOM     13  C   UNL     1      -1.838  11.278  18.899  0.00  0.00    +0.000 A 
ATOM     14  N   UNL     1      -3.146  11.747  19.144  0.00  0.00    +0.000 N 
ATOM     15  C   UNL     1      -2.905  12.596  20.156  0.00  0.00    +0.000 A 
ATOM     16  C   UNL     1      -3.841  13.365  20.794  0.00  0.00    +0.000 A 
ATOM     17  C   UNL     1      -3.440  13.898  22.019  0.00  0.00    +0.000 A 
ATOM     18  C   UNL     1      -4.636  14.530  22.406  0.00  0.00    +0.000 A 
ATOM     19  C   UNL     1      -5.478  14.473  23.541  0.00  0.00    +0.000 A 
ATOM     20  C   UNL     1      -6.762  15.048  23.425  0.00  0.00    +0.000 A 
ATOM     21  C   UNL     1      -7.036  15.906  22.354  0.00  0.00    +0.000 A 
ATOM     22  C   UNL     1      -6.304  15.800  21.175  0.00  0.00    +0.000 A 
ATOM     23  C   UNL     1      -5.329  14.804  21.189  0.00  0.00    +0.000 A 
ATOM     24  N   UNL     1      -4.997  13.809  20.250  0.00  0.00    +0.000 N 
ATOM     25  C   UNL     1      -5.902  13.166  19.335  0.00  0.00    +0.000 C 
ATOM     26  C   UNL     1      -5.720  11.649  19.198  0.00  0.00    +0.000 C 
ATOM     27  C   UNL     1      -4.372  11.237  18.587  0.00  0.00    +0.000 C 
ATOM     28  H   UNL     1       0.554  15.637  23.461  0.00  0.00    +0.000 HD
ENDROOT
BRANCH  20  29
ATOM     29  C   UNL     1      -7.917  14.528  24.245  0.00  0.00    +0.000 C 
BRANCH  29  30
ATOM     30  O   UNL     1      -7.644  13.182  24.643  0.00  0.00    +0.000 OA
ATOM     31  H   UNL     1      -6.750  13.166  25.035  0.00  0.00    +0.000 HD
ENDBRANCH  29  30
ENDBRANCH  20  29
BRANCH  26  32
ATOM     32  C   UNL     1      -6.847  11.086  18.316  0.00  0.00    +0.000 C 
BRANCH  32  33
ATOM     33  O   UNL     1      -7.335   9.872  18.870  0.00  0.00    +0.000 OA
ATOM     34  H   UNL     1      -6.691   9.567  19.533  0.00  0.00    +0.000 HD
ENDBRANCH  32  33
ENDBRANCH  26  32
TORSDOF 4
ENDMDL
MODEL 2
REMARK VINA RESULT:      -6.8      2.290      5.133
REMARK  Name = 
REMARK  4 active torsions:
REMARK  status: ('A' for Active; 'I' for Inactive)
REMARK    1  A    between atoms: C_20  and  C_21
REMARK    2  A    between atoms: C_21  and  O_22
REMARK    3  A    between atoms: C_28  and  C_29
REMARK    4  A    between atoms: C_29  and  O_30
REMARK                            x       y       z     vdW  Elec       q    Type
REMARK                         _______ _______ _______ _____ _____    ______ ____
ROOT
ATOM      1  O   UNL     1      -7.500  12.277  17.618  0.00  0.00    +0.000 OA
ATOM      2  C   UNL     1      -7.002  12.789  18.614  0.00  0.00    +0.000 C 
ATOM      3  N   UNL     1      -7.767  13.471  19.552  0.00  0.00    +0.000 N 
ATOM      4  C   UNL     1      -7.053  13.947  20.747  0.00  0.00    +0.000 C 
ATOM      5  C   UNL     1      -5.695  13.590  20.351  0.00  0.00    +0.000 A 
ATOM      6  C   UNL     1      -5.670  12.836  19.144  0.00  0.00    +0.000 A 
ATOM      7  C   UNL     1      -4.416  12.267  18.868  0.00  0.00    +0.000 A 
ATOM      8  C   UNL     1      -4.022  11.536  17.730  0.00  0.00    +0.000 A 
ATOM      9  C   UNL     1      -4.658  11.143  16.531  0.00  0.00    +0.000 A 
ATOM     10  C   UNL     1      -3.945  10.482  15.528  0.00  0.00    +0.000 A 
ATOM     11  C   UNL     1      -2.595  10.202  15.687  0.00  0.00    +0.000 A 
ATOM     12  C   UNL     1      -1.922  10.539  16.866  0.00  0.00    +0.000 A 
ATOM     13  C   UNL     1      -2.624  11.179  17.904  0.00  0.00    +0.000 A 
ATOM     14  N   UNL     1      -2.159  11.573  19.176  0.00  0.00    +0.000 N 
ATOM     15  C   UNL     1      -3.255  12.190  19.646  0.00  0.00    +0.000 A 
ATOM     16  C   UNL     1      -3.380  12.767  20.882  0.00  0.00    +0.000 A 
ATOM     17  C   UNL     1      -4.458  13.638  21.027  0.00  0.00    +0.000 A 
ATOM     18  C   UNL     1      -4.227  14.087  22.340  0.00  0.00    +0.000 A 
ATOM     19  C   UNL     1      -4.070  15.351  22.954  0.00  0.00    +0.000 A 
ATOM     20  C   UNL     1      -3.550  15.375  24.267  0.00  0.00    +0.000 A 
ATOM     21  C   UNL     1      -3.513  14.190  25.011  0.00  0.00    +0.000 A 
ATOM     22  C   UNL     1      -3.475  12.961  24.359  0.00  0.00    +0.000 A 
ATOM     23  C   UNL     1      -3.480  13.046  22.968  0.00  0.00    +0.000 A 
ATOM     24  N   UNL     1      -2.695  12.404  21.991  0.00  0.00    +0.000 N 
ATOM     25  C   UNL     1      -1.331  11.972  22.143  0.00  0.00    +0.000 C 
ATOM     26  C   UNL     1      -0.419  12.264  20.945  0.00  0.00    +0.000 C 
ATOM     27  C   UNL     1      -0.807  11.507  19.667  0.00  0.00    +0.000 C 
ATOM     28  H   UNL     1      -8.770  13.489  19.464  0.00  0.00    +0.000 HD
ENDROOT
BRANCH  20  29
ATOM     29  C   UNL     1      -2.768  16.564  24.765  0.00  0.00    +0.000 C 
BRANCH  29  30
ATOM     30  O   UNL     1      -1.871  16.139  25.795  0.00  0.00    +0.000 OA
ATOM     31  H   UNL     1      -2.306  15.414  26.284  0.00  0.00    +0.000 HD
ENDBRANCH  29  30
ENDBRANCH  20  29
BRANCH  26  32
ATOM     32  C   UNL     1       1.027  11.891  21.314  0.00  0.00    +0.000 C 
BRANCH  32  33
ATOM     33  O   UNL     1       1.061  10.592  21.887  0.00  0.00    +0.000 OA
ATOM     34  H   UNL     1       1.915  10.490  22.344  0.00  0.00    +0.000 HD
ENDBRANCH  32  33
ENDBRANCH  26  32
TORSDOF 4
ENDMDL
MODEL 3
REMARK VINA RESULT:      -6.8      2.121      6.412
REMARK  Name = 
REMARK  4 active torsions:
REMARK  status: ('A' for Active; 'I' for Inactive)
REMARK    1  A    between atoms: C_20  and  C_21
REMARK    2  A    between atoms: C_21  and  O_22
REMARK    3  A    between atoms: C_28  and  C_29
REMARK    4  A    between atoms: C_29  and  O_30
REMARK                            x       y       z     vdW  Elec       q    Type
REMARK                         _______ _______ _______ _____ _____    ______ ____
ROOT
ATOM      1  O   UNL     1      -4.346  14.038  23.662  0.00  0.00    +0.000 OA
ATOM      2  C   UNL     1      -3.345  13.740  23.019  0.00  0.00    +0.000 C 
ATOM      3  N   UNL     1      -2.077  13.738  23.588  0.00  0.00    +0.000 N 
ATOM      4  C   UNL     1      -0.983  13.263  22.727  0.00  0.00    +0.000 C 
ATOM      5  C   UNL     1      -1.730  13.106  21.484  0.00  0.00    +0.000 A 
ATOM      6  C   UNL     1      -3.127  13.301  21.671  0.00  0.00    +0.000 A 
ATOM      7  C   UNL     1      -3.897  12.916  20.561  0.00  0.00    +0.000 A 
ATOM      8  C   UNL     1      -5.288  13.047  20.378  0.00  0.00    +0.000 A 
ATOM      9  C   UNL     1      -6.346  13.579  21.146  0.00  0.00    +0.000 A 
ATOM     10  C   UNL     1      -7.642  13.644  20.629  0.00  0.00    +0.000 A 
ATOM     11  C   UNL     1      -7.916  13.192  19.345  0.00  0.00    +0.000 A 
ATOM     12  C   UNL     1      -6.912  12.625  18.552  0.00  0.00    +0.000 A 
ATOM     13  C   UNL     1      -5.605  12.520  19.061  0.00  0.00    +0.000 A 
ATOM     14  N   UNL     1      -4.461  11.960  18.455  0.00  0.00    +0.000 N 
ATOM     15  C   UNL     1      -3.538  12.241  19.388  0.00  0.00    +0.000 A 
ATOM     16  C   UNL     1      -2.213  11.903  19.330  0.00  0.00    +0.000 A 
ATOM     17  C   UNL     1      -1.384  12.584  20.221  0.00  0.00    +0.000 A 
ATOM     18  C   UNL     1      -0.137  12.063  19.832  0.00  0.00    +0.000 A 
ATOM     19  C   UNL     1       1.094  12.616  19.409  0.00  0.00    +0.000 A 
ATOM     20  C   UNL     1       2.029  11.741  18.815  0.00  0.00    +0.000 A 
ATOM     21  C   UNL     1       1.857  10.359  18.950  0.00  0.00    +0.000 A 
ATOM     22  C   UNL     1       0.588   9.836  19.177  0.00  0.00    +0.000 A 
ATOM     23  C   UNL     1      -0.424  10.791  19.250  0.00  0.00    +0.000 A 
ATOM     24  N   UNL     1      -1.700  10.847  18.657  0.00  0.00    +0.000 N 
ATOM     25  C   UNL     1      -2.076  10.281  17.389  0.00  0.00    +0.000 C 
ATOM     26  C   UNL     1      -2.960  11.176  16.513  0.00  0.00    +0.000 C 
ATOM     27  C   UNL     1      -4.347  11.456  17.110  0.00  0.00    +0.000 C 
ATOM     28  H   UNL     1      -1.970  13.911  24.574  0.00  0.00    +0.000 HD
ENDROOT
BRANCH  20  29
ATOM     29  C   UNL     1       3.022  12.248  17.799  0.00  0.00    +0.000 C 
BRANCH  29  30
ATOM     30  O   UNL     1       2.731  13.615  17.497  0.00  0.00    +0.000 OA
ATOM     31  H   UNL     1       3.329  14.170  18.033  0.00  0.00    +0.000 HD
ENDBRANCH  29  30
ENDBRANCH  20  29
BRANCH  26  32
ATOM     32  C   UNL     1      -3.146  10.508  15.140  0.00  0.00    +0.000 C 
BRANCH  32  33
ATOM     33  O   UNL     1      -4.530  10.366  14.854  0.00  0.00    +0.000 OA
ATOM     34  H   UNL     1      -4.613   9.853  14.031  0.00  0.00    +0.000 HD
ENDBRANCH  32  33
ENDBRANCH  26  32
TORSDOF 4
ENDMDL
MODEL 4
REMARK VINA RESULT:      -6.8      2.201      6.270
REMARK  Name = 
REMARK  4 active torsions:
REMARK  status: ('A' for Active; 'I' for Inactive)
REMARK    1  A    between atoms: C_20  and  C_21
REMARK    2  A    between atoms: C_21  and  O_22
REMARK    3  A    between atoms: C_28  and  C_29
REMARK    4  A    between atoms: C_29  and  O_30
REMARK                            x       y       z     vdW  Elec       q    Type
REMARK                         _______ _______ _______ _____ _____    ______ ____
ROOT
ATOM      1  O   UNL     1      -4.482  13.604  24.250  0.00  0.00    +0.000 OA
ATOM      2  C   UNL     1      -3.490  13.658  23.532  0.00  0.00    +0.000 C 
ATOM      3  N   UNL     1      -2.247  14.041  24.021  0.00  0.00    +0.000 N 
ATOM      4  C   UNL     1      -1.126  13.964  23.071  0.00  0.00    +0.000 C 
ATOM      5  C   UNL     1      -1.877  13.614  21.870  0.00  0.00    +0.000 A 
ATOM      6  C   UNL     1      -3.246  13.350  22.152  0.00  0.00    +0.000 A 
ATOM      7  C   UNL     1      -3.936  12.773  21.074  0.00  0.00    +0.000 A 
ATOM      8  C   UNL     1      -5.308  12.461  20.984  0.00  0.00    +0.000 A 
ATOM      9  C   UNL     1      -6.419  12.607  21.842  0.00  0.00    +0.000 A 
ATOM     10  C   UNL     1      -7.705  12.272  21.410  0.00  0.00    +0.000 A 
ATOM     11  C   UNL     1      -7.917  11.795  20.123  0.00  0.00    +0.000 A 
ATOM     12  C   UNL     1      -6.848  11.599  19.241  0.00  0.00    +0.000 A 
ATOM     13  C   UNL     1      -5.540  11.900  19.663  0.00  0.00    +0.000 A 
ATOM     14  N   UNL     1      -4.327  11.750  18.959  0.00  0.00    +0.000 N 
ATOM     15  C   UNL     1      -3.472  12.282  19.848  0.00  0.00    +0.000 A 
ATOM     16  C   UNL     1      -2.116  12.384  19.691  0.00  0.00    +0.000 A 
ATOM     17  C   UNL     1      -1.479  13.267  20.562  0.00  0.00    +0.000 A 
ATOM     18  C   UNL     1      -0.164  13.180  20.071  0.00  0.00    +0.000 A 
ATOM     19  C   UNL     1       0.794  14.108  19.602  0.00  0.00    +0.000 A 
ATOM     20  C   UNL     1       1.910  13.593  18.908  0.00  0.00    +0.000 A 
ATOM     21  C   UNL     1       2.193  12.225  18.982  0.00  0.00    +0.000 A 
ATOM     22  C   UNL     1       1.173  11.319  19.259  0.00  0.00    +0.000 A 
ATOM     23  C   UNL     1      -0.079  11.900  19.444  0.00  0.00    +0.000 A 
ATOM     24  N   UNL     1      -1.349  11.566  18.934  0.00  0.00    +0.000 N 
ATOM     25  C   UNL     1      -1.621  10.947  17.664  0.00  0.00    +0.000 C 
ATOM     26  C   UNL     1      -2.805  11.541  16.891  0.00  0.00    +0.000 C 
ATOM     27  C   UNL     1      -4.160  11.348  17.587  0.00  0.00    +0.000 C 
ATOM     28  H   UNL     1      -2.127  14.210  25.006  0.00  0.00    +0.000 HD
ENDROOT
BRANCH  20  29
ATOM     29  C   UNL     1       2.615  14.419  17.860  0.00  0.00    +0.000 C 
BRANCH  29  30
ATOM     30  O   UNL     1       4.028  14.255  18.003  0.00  0.00    +0.000 OA
ATOM     31  H   UNL     1       4.446  15.117  17.814  0.00  0.00    +0.000 HD
ENDBRANCH  29  30
ENDBRANCH  20  29
BRANCH  26  32
ATOM     32  C   UNL     1      -2.873  10.889  15.500  0.00  0.00    +0.000 C 
BRANCH  32  33
ATOM     33  O   UNL     1      -3.339   9.553  15.613  0.00  0.00    +0.000 OA
ATOM     34  H   UNL     1      -2.936   9.034  14.895  0.00  0.00    +0.000 HD
ENDBRANCH  32  33
ENDBRANCH  26  32
TORSDOF 4
ENDMDL
MODEL 5
REMARK VINA RESULT:      -6.7      2.345      3.534
REMARK  Name = 
REMARK  4 active torsions:
REMARK  status: ('A' for Active; 'I' for Inactive)
REMARK    1  A    between atoms: C_20  and  C_21
REMARK    2  A    between atoms: C_21  and  O_22
REMARK    3  A    between atoms: C_28  and  C_29
REMARK    4  A    between atoms: C_29  and  O_30
REMARK                            x       y       z     vdW  Elec       q    Type
REMARK                         _______ _______ _______ _____ _____    ______ ____
ROOT
ATOM      1  O   UNL     1       0.834   9.931  17.982  0.00  0.00    +0.000 OA
ATOM      2  C   UNL     1       0.301  10.408  18.976  0.00  0.00    +0.000 C 
ATOM      3  N   UNL     1       1.007  10.643  20.150  0.00  0.00    +0.000 N 
ATOM      4  C   UNL     1       0.264  11.312  21.230  0.00  0.00    +0.000 C 
ATOM      5  C   UNL     1      -1.057  11.331  20.611  0.00  0.00    +0.000 A 
ATOM      6  C   UNL     1      -1.023  10.882  19.261  0.00  0.00    +0.000 A 
ATOM      7  C   UNL     1      -2.218  11.121  18.565  0.00  0.00    +0.000 A 
ATOM      8  C   UNL     1      -2.553  10.737  17.250  0.00  0.00    +0.000 A 
ATOM      9  C   UNL     1      -1.897  10.018  16.227  0.00  0.00    +0.000 A 
ATOM     10  C   UNL     1      -2.554   9.717  15.032  0.00  0.00    +0.000 A 
ATOM     11  C   UNL     1      -3.868  10.114  14.827  0.00  0.00    +0.000 A 
ATOM     12  C   UNL     1      -4.556  10.857  15.793  0.00  0.00    +0.000 A 
ATOM     13  C   UNL     1      -3.907  11.199  16.993  0.00  0.00    +0.000 A 
ATOM     14  N   UNL     1      -4.393  11.961  18.076  0.00  0.00    +0.000 N 
ATOM     15  C   UNL     1      -3.357  11.852  18.924  0.00  0.00    +0.000 A 
ATOM     16  C   UNL     1      -3.274  12.428  20.163  0.00  0.00    +0.000 A 
ATOM     17  C   UNL     1      -2.284  11.910  20.997  0.00  0.00    +0.000 A 
ATOM     18  C   UNL     1      -2.542  12.652  22.164  0.00  0.00    +0.000 A 
ATOM     19  C   UNL     1      -2.814  12.334  23.514  0.00  0.00    +0.000 A 
ATOM     20  C   UNL     1      -3.317  13.367  24.335  0.00  0.00    +0.000 A 
ATOM     21  C   UNL     1      -3.229  14.694  23.899  0.00  0.00    +0.000 A 
ATOM     22  C   UNL     1      -3.155  14.974  22.538  0.00  0.00    +0.000 A 
ATOM     23  C   UNL     1      -3.176  13.850  21.716  0.00  0.00    +0.000 A 
ATOM     24  N   UNL     1      -3.906  13.562  20.547  0.00  0.00    +0.000 N 
ATOM     25  C   UNL     1      -5.218  14.051  20.220  0.00  0.00    +0.000 C 
ATOM     26  C   UNL     1      -6.170  13.010  19.619  0.00  0.00    +0.000 C 
ATOM     27  C   UNL     1      -5.725  12.479  18.248  0.00  0.00    +0.000 C 
ATOM     28  H   UNL     1       2.002  10.491  20.175  0.00  0.00    +0.000 HD
ENDROOT
BRANCH  20  29
ATOM     29  C   UNL     1      -4.206  13.053  25.512  0.00  0.00    +0.000 C 
BRANCH  29  30
ATOM     30  O   UNL     1      -5.039  11.936  25.189  0.00  0.00    +0.000 OA
ATOM     31  H   UNL     1      -4.692  11.538  24.368  0.00  0.00    +0.000 HD
ENDBRANCH  29  30
ENDBRANCH  20  29
BRANCH  26  32
ATOM     32  C   UNL     1      -7.568  13.634  19.470  0.00  0.00    +0.000 C 
BRANCH  32  33
ATOM     33  O   UNL     1      -7.916  13.719  18.096  0.00  0.00    +0.000 OA
ATOM     34  H   UNL     1      -8.011  14.662  17.870  0.00  0.00    +0.000 HD
ENDBRANCH  32  33
ENDBRANCH  26  32
TORSDOF 4
ENDMDL
MODEL 6
REMARK VINA RESULT:      -6.5      1.807      4.709
REMARK  Name = 
REMARK  4 active torsions:
REMARK  status: ('A' for Active; 'I' for Inactive)
REMARK    1  A    between atoms: C_20  and  C_21
REMARK    2  A    between atoms: C_21  and  O_22
REMARK    3  A    between atoms: C_28  and  C_29
REMARK    4  A    between atoms: C_29  and  O_30
REMARK                            x       y       z     vdW  Elec       q    Type
REMARK                         _______ _______ _______ _____ _____    ______ ____
ROOT
ATOM      1  O   UNL     1      -3.631  10.196  16.865  0.00  0.00    +0.000 OA
ATOM      2  C   UNL     1      -4.279  10.955  17.576  0.00  0.00    +0.000 C 
ATOM      3  N   UNL     1      -5.643  11.153  17.393  0.00  0.00    +0.000 N 
ATOM      4  C   UNL     1      -6.310  12.014  18.381  0.00  0.00    +0.000 C 
ATOM      5  C   UNL     1      -5.135  12.446  19.129  0.00  0.00    +0.000 A 
ATOM      6  C   UNL     1      -3.957  11.763  18.717  0.00  0.00    +0.000 A 
ATOM      7  C   UNL     1      -2.864  11.970  19.575  0.00  0.00    +0.000 A 
ATOM      8  C   UNL     1      -1.539  11.514  19.423  0.00  0.00    +0.000 A 
ATOM      9  C   UNL     1      -0.851  10.766  18.443  0.00  0.00    +0.000 A 
ATOM     10  C   UNL     1       0.526  10.553  18.543  0.00  0.00    +0.000 A 
ATOM     11  C   UNL     1       1.248  11.078  19.606  0.00  0.00    +0.000 A 
ATOM     12  C   UNL     1       0.613  11.799  20.623  0.00  0.00    +0.000 A 
ATOM     13  C   UNL     1      -0.778  12.002  20.561  0.00  0.00    +0.000 A 
ATOM     14  N   UNL     1      -1.618  12.662  21.482  0.00  0.00    +0.000 N 
ATOM     15  C   UNL     1      -2.787  12.595  20.825  0.00  0.00    +0.000 A 
ATOM     16  C   UNL     1      -3.987  13.076  21.275  0.00  0.00    +0.000 A 
ATOM     17  C   UNL     1      -4.978  13.211  20.304  0.00  0.00    +0.000 A 
ATOM     18  C   UNL     1      -5.998  13.789  21.082  0.00  0.00    +0.000 A 
ATOM     19  C   UNL     1      -6.783  14.961  20.995  0.00  0.00    +0.000 A 
ATOM     20  C   UNL     1      -7.506  15.345  22.145  0.00  0.00    +0.000 A 
ATOM     21  C   UNL     1      -7.678  14.425  23.185  0.00  0.00    +0.000 A 
ATOM     22  C   UNL     1      -6.766  13.388  23.353  0.00  0.00    +0.000 A 
ATOM     23  C   UNL     1      -5.730  13.375  22.422  0.00  0.00    +0.000 A 
ATOM     24  N   UNL     1      -4.339  13.220  22.574  0.00  0.00    +0.000 N 
ATOM     25  C   UNL     1      -3.556  13.624  23.711  0.00  0.00    +0.000 C 
ATOM     26  C   UNL     1      -2.223  14.303  23.374  0.00  0.00    +0.000 C 
ATOM     27  C   UNL     1      -1.219  13.384  22.663  0.00  0.00    +0.000 C 
ATOM     28  H   UNL     1      -6.140  10.607  16.709  0.00  0.00    +0.000 HD
ENDROOT
BRANCH  20  29
ATOM     29  C   UNL     1      -7.830  16.795  22.404  0.00  0.00    +0.000 C 
BRANCH  29  30
ATOM     30  O   UNL     1      -7.088  17.248  23.540  0.00  0.00    +0.000 OA
ATOM     31  H   UNL     1      -7.585  16.989  24.339  0.00  0.00    +0.000 HD
ENDBRANCH  29  30
ENDBRANCH  20  29
BRANCH  26  32
ATOM     32  C   UNL     1      -1.579  14.815  24.673  0.00  0.00    +0.000 C 
BRANCH  32  33
ATOM     33  O   UNL     1      -0.346  15.458  24.383  0.00  0.00    +0.000 OA
ATOM     34  H   UNL     1      -0.324  16.298  24.873  0.00  0.00    +0.000 HD
ENDBRANCH  32  33
ENDBRANCH  26  32
TORSDOF 4
ENDMDL
MODEL 7
REMARK VINA RESULT:      -6.5      2.211      4.786
REMARK  Name = 
REMARK  4 active torsions:
REMARK  status: ('A' for Active; 'I' for Inactive)
REMARK    1  A    between atoms: C_20  and  C_21
REMARK    2  A    between atoms: C_21  and  O_22
REMARK    3  A    between atoms: C_28  and  C_29
REMARK    4  A    between atoms: C_29  and  O_30
REMARK                            x       y       z     vdW  Elec       q    Type
REMARK                         _______ _______ _______ _____ _____    ______ ____
ROOT
ATOM      1  O   UNL     1      -2.919   9.963  16.214  0.00  0.00    +0.000 OA
ATOM      2  C   UNL     1      -3.661  10.726  16.821  0.00  0.00    +0.000 C 
ATOM      3  N   UNL     1      -4.961  10.982  16.399  0.00  0.00    +0.000 N 
ATOM      4  C   UNL     1      -5.770  11.840  17.279  0.00  0.00    +0.000 C 
ATOM      5  C   UNL     1      -4.738  12.204  18.243  0.00  0.00    +0.000 A 
ATOM      6  C   UNL     1      -3.527  11.488  18.029  0.00  0.00    +0.000 A 
ATOM      7  C   UNL     1      -2.605  11.627  19.079  0.00  0.00    +0.000 A 
ATOM      8  C   UNL     1      -1.290  11.124  19.155  0.00  0.00    +0.000 A 
ATOM      9  C   UNL     1      -0.459  10.379  18.292  0.00  0.00    +0.000 A 
ATOM     10  C   UNL     1       0.868  10.109  18.634  0.00  0.00    +0.000 A 
ATOM     11  C   UNL     1       1.400  10.576  19.829  0.00  0.00    +0.000 A 
ATOM     12  C   UNL     1       0.613  11.291  20.738  0.00  0.00    +0.000 A 
ATOM     13  C   UNL     1      -0.736  11.550  20.430  0.00  0.00    +0.000 A 
ATOM     14  N   UNL     1      -1.708  12.215  21.205  0.00  0.00    +0.000 N 
ATOM     15  C   UNL     1      -2.738  12.213  20.343  0.00  0.00    +0.000 A 
ATOM     16  C   UNL     1      -3.984  12.728  20.583  0.00  0.00    +0.000 A 
ATOM     17  C   UNL     1      -4.775  12.928  19.453  0.00  0.00    +0.000 A 
ATOM     18  C   UNL     1      -5.900  13.523  20.052  0.00  0.00    +0.000 A 
ATOM     19  C   UNL     1      -6.617  14.727  19.864  0.00  0.00    +0.000 A 
ATOM     20  C   UNL     1      -7.526  15.106  20.876  0.00  0.00    +0.000 A 
ATOM     21  C   UNL     1      -7.916  14.164  21.835  0.00  0.00    +0.000 A 
ATOM     22  C   UNL     1      -7.085  13.088  22.129  0.00  0.00    +0.000 A 
ATOM     23  C   UNL     1      -5.897  13.060  21.403  0.00  0.00    +0.000 A 
ATOM     24  N   UNL     1      -4.563  12.847  21.801  0.00  0.00    +0.000 N 
ATOM     25  C   UNL     1      -3.990  13.188  23.075  0.00  0.00    +0.000 C 
ATOM     26  C   UNL     1      -2.596  13.824  23.011  0.00  0.00    +0.000 C 
ATOM     27  C   UNL     1      -1.509  12.887  22.463  0.00  0.00    +0.000 C 
ATOM     28  H   UNL     1      -5.342  10.476  15.616  0.00  0.00    +0.000 HD
ENDROOT
BRANCH  20  29
ATOM     29  C   UNL     1      -7.844  16.559  21.123  0.00  0.00    +0.000 C 
BRANCH  29  30
ATOM     30  O   UNL     1      -7.582  17.308  19.932  0.00  0.00    +0.000 OA
ATOM     31  H   UNL     1      -6.811  16.901  19.493  0.00  0.00    +0.000 HD
ENDBRANCH  29  30
ENDBRANCH  20  29
BRANCH  26  32
ATOM     32  C   UNL     1      -2.185  14.273  24.423  0.00  0.00    +0.000 C 
BRANCH  32  33
ATOM     33  O   UNL     1      -0.834  14.714  24.418  0.00  0.00    +0.000 OA
ATOM     34  H   UNL     1      -0.385  14.309  25.181  0.00  0.00    +0.000 HD
ENDBRANCH  32  33
ENDBRANCH  26  32
TORSDOF 4
ENDMDL
MODEL 8
REMARK VINA RESULT:      -6.5      2.373      7.097
REMARK  Name = 
REMARK  4 active torsions:
REMARK  status: ('A' for Active; 'I' for Inactive)
REMARK    1  A    between atoms: C_20  and  C_21
REMARK    2  A    between atoms: C_21  and  O_22
REMARK    3  A    between atoms: C_28  and  C_29
REMARK    4  A    between atoms: C_29  and  O_30
REMARK                            x       y       z     vdW  Elec       q    Type
REMARK                         _______ _______ _______ _____ _____    ______ ____
ROOT
ATOM      1  O   UNL     1      -4.870  11.385  17.977  0.00  0.00    +0.000 OA
ATOM      2  C   UNL     1      -3.756  11.766  18.319  0.00  0.00    +0.000 C 
ATOM      3  N   UNL     1      -2.676  11.765  17.445  0.00  0.00    +0.000 N 
ATOM      4  C   UNL     1      -1.425  12.342  17.962  0.00  0.00    +0.000 C 
ATOM      5  C   UNL     1      -1.841  12.574  19.341  0.00  0.00    +0.000 A 
ATOM      6  C   UNL     1      -3.227  12.319  19.532  0.00  0.00    +0.000 A 
ATOM      7  C   UNL     1      -3.710  12.766  20.773  0.00  0.00    +0.000 A 
ATOM      8  C   UNL     1      -5.001  12.605  21.315  0.00  0.00    +0.000 A 
ATOM      9  C   UNL     1      -6.190  11.978  20.883  0.00  0.00    +0.000 A 
ATOM     10  C   UNL     1      -7.307  11.913  21.719  0.00  0.00    +0.000 A 
ATOM     11  C   UNL     1      -7.269  12.457  22.995  0.00  0.00    +0.000 A 
ATOM     12  C   UNL     1      -6.129  13.119  23.464  0.00  0.00    +0.000 A 
ATOM     13  C   UNL     1      -5.000  13.225  22.630  0.00  0.00    +0.000 A 
ATOM     14  N   UNL     1      -3.771  13.869  22.883  0.00  0.00    +0.000 N 
ATOM     15  C   UNL     1      -3.101  13.544  21.765  0.00  0.00    +0.000 A 
ATOM     16  C   UNL     1      -1.824  13.929  21.458  0.00  0.00    +0.000 A 
ATOM     17  C   UNL     1      -1.213  13.207  20.434  0.00  0.00    +0.000 A 
ATOM     18  C   UNL     1       0.063  13.798  20.453  0.00  0.00    +0.000 A 
ATOM     19  C   UNL     1       1.388  13.321  20.583  0.00  0.00    +0.000 A 
ATOM     20  C   UNL     1       2.396  14.271  20.855  0.00  0.00    +0.000 A 
ATOM     21  C   UNL     1       2.123  15.631  20.674  0.00  0.00    +0.000 A 
ATOM     22  C   UNL     1       0.813  16.092  20.745  0.00  0.00    +0.000 A 
ATOM     23  C   UNL     1      -0.134  15.103  20.999  0.00  0.00    +0.000 A 
ATOM     24  N   UNL     1      -1.213  15.052  21.902  0.00  0.00    +0.000 N 
ATOM     25  C   UNL     1      -1.284  15.706  23.182  0.00  0.00    +0.000 C 
ATOM     26  C   UNL     1      -1.870  14.855  24.315  0.00  0.00    +0.000 C 
ATOM     27  C   UNL     1      -3.346  14.482  24.114  0.00  0.00    +0.000 C 
ATOM     28  H   UNL     1      -2.813  11.517  16.479  0.00  0.00    +0.000 HD
ENDROOT
BRANCH  20  29
ATOM     29  C   UNL     1       3.639  13.880  21.615  0.00  0.00    +0.000 C 
BRANCH  29  30
ATOM     30  O   UNL     1       3.694  14.616  22.839  0.00  0.00    +0.000 OA
ATOM     31  H   UNL     1       3.772  13.971  23.568  0.00  0.00    +0.000 HD
ENDBRANCH  29  30
ENDBRANCH  20  29
BRANCH  26  32
ATOM     32  C   UNL     1      -1.737  15.624  25.640  0.00  0.00    +0.000 C 
BRANCH  32  33
ATOM     33  O   UNL     1      -0.383  15.619  26.069  0.00  0.00    +0.000 OA
ATOM     34  H   UNL     1      -0.296  16.268  26.790  0.00  0.00    +0.000 HD
ENDBRANCH  32  33
ENDBRANCH  26  32
TORSDOF 4
ENDMDL
MODEL 9
REMARK VINA RESULT:      -6.4      2.307      6.876
REMARK  Name = 
REMARK  4 active torsions:
REMARK  status: ('A' for Active; 'I' for Inactive)
REMARK    1  A    between atoms: C_20  and  C_21
REMARK    2  A    between atoms: C_21  and  O_22
REMARK    3  A    between atoms: C_28  and  C_29
REMARK    4  A    between atoms: C_29  and  O_30
REMARK                            x       y       z     vdW  Elec       q    Type
REMARK                         _______ _______ _______ _____ _____    ______ ____
ROOT
ATOM      1  O   UNL     1      -4.542  10.838  15.177  0.00  0.00    +0.000 OA
ATOM      2  C   UNL     1      -3.695  10.635  16.039  0.00  0.00    +0.000 C 
ATOM      3  N   UNL     1      -2.535   9.916  15.776  0.00  0.00    +0.000 N 
ATOM      4  C   UNL     1      -1.561   9.836  16.877  0.00  0.00    +0.000 C 
ATOM      5  C   UNL     1      -2.348  10.488  17.918  0.00  0.00    +0.000 A 
ATOM      6  C   UNL     1      -3.561  11.033  17.410  0.00  0.00    +0.000 A 
ATOM      7  C   UNL     1      -4.217  11.876  18.322  0.00  0.00    +0.000 A 
ATOM      8  C   UNL     1      -5.467  12.510  18.177  0.00  0.00    +0.000 A 
ATOM      9  C   UNL     1      -6.461  12.532  17.174  0.00  0.00    +0.000 A 
ATOM     10  C   UNL     1      -7.667  13.207  17.378  0.00  0.00    +0.000 A 
ATOM     11  C   UNL     1      -7.916  13.866  18.575  0.00  0.00    +0.000 A 
ATOM     12  C   UNL     1      -6.954  13.905  19.590  0.00  0.00    +0.000 A 
ATOM     13  C   UNL     1      -5.720  13.258  19.398  0.00  0.00    +0.000 A 
ATOM     14  N   UNL     1      -4.607  13.198  20.263  0.00  0.00    +0.000 N 
ATOM     15  C   UNL     1      -3.806  12.381  19.561  0.00  0.00    +0.000 A 
ATOM     16  C   UNL     1      -2.549  11.982  19.929  0.00  0.00    +0.000 A 
ATOM     17  C   UNL     1      -2.047  10.880  19.239  0.00  0.00    +0.000 A 
ATOM     18  C   UNL     1      -0.825  10.711  19.916  0.00  0.00    +0.000 A 
ATOM     19  C   UNL     1      -0.196   9.643  20.597  0.00  0.00    +0.000 A 
ATOM     20  C   UNL     1       0.914   9.957  21.410  0.00  0.00    +0.000 A 
ATOM     21  C   UNL     1       1.536  11.203  21.270  0.00  0.00    +0.000 A 
ATOM     22  C   UNL     1       0.818  12.285  20.770  0.00  0.00    +0.000 A 
ATOM     23  C   UNL     1      -0.505  11.998  20.444  0.00  0.00    +0.000 A 
ATOM     24  N   UNL     1      -1.706  12.678  20.726  0.00  0.00    +0.000 N 
ATOM     25  C   UNL     1      -1.975  13.485  21.887  0.00  0.00    +0.000 C 
ATOM     26  C   UNL     1      -3.358  13.279  22.515  0.00  0.00    +0.000 C 
ATOM     27  C   UNL     1      -4.523  13.704  21.609  0.00  0.00    +0.000 C 
ATOM     28  H   UNL     1      -2.335   9.612  14.838  0.00  0.00    +0.000 HD
ENDROOT
BRANCH  20  29
ATOM     29  C   UNL     1       1.251   9.115  22.615  0.00  0.00    +0.000 C 
BRANCH  29  30
ATOM     30  O   UNL     1       0.546   9.618  23.753  0.00  0.00    +0.000 OA
ATOM     31  H   UNL     1       1.209   9.867  24.424  0.00  0.00    +0.000 HD
ENDBRANCH  29  30
ENDBRANCH  20  29
BRANCH  26  32
ATOM     32  C   UNL     1      -3.439  14.084  23.823  0.00  0.00    +0.000 C 
BRANCH  32  33
ATOM     33  O   UNL     1      -4.701  14.729  23.918  0.00  0.00    +0.000 OA
ATOM     34  H   UNL     1      -5.208  14.513  23.115  0.00  0.00    +0.000 HD
ENDBRANCH  32  33
ENDBRANCH  26  32
TORSDOF 4
ENDMDL
