MODEL 1
REMARK VINA RESULT:      -7.8      0.000      0.000
REMARK  Name = 
REMARK  14 active torsions:
REMARK  status: ('A' for Active; 'I' for Inactive)
REMARK    1  A    between atoms: C_1  and  N_2
REMARK    2  A    between atoms: N_2  and  C_3
REMARK    3  A    between atoms: C_3  and  C_4
REMARK    4  A    between atoms: C_3  and  C_5
REMARK    5  A    between atoms: C_5  and  C_6
REMARK    6  A    between atoms: C_6  and  N_7
REMARK    7  A    between atoms: C_8  and  C_9
REMARK    8  A    between atoms: C_9  and  C_10
REMARK    9  A    between atoms: C_9  and  C_11
REMARK   10  A    between atoms: C_9  and  C_12
REMARK   11  A    between atoms: C_14  and  C_15
REMARK   12  A    between atoms: N_17  and  C_18
REMARK   13  A    between atoms: C_22  and  C_23
REMARK   14  A    between atoms: C_28  and  C_29
REMARK                            x       y       z     vdW  Elec       q    Type
REMARK                         _______ _______ _______ _____ _____    ______ ____
ROOT
ATOM      1  N   UNL     1       3.548   5.112  18.795  0.00  0.00    +0.000 N 
ATOM      2  C   UNL     1       2.743   4.522  19.778  0.00  0.00    +0.000 A 
ATOM      3  C   UNL     1       2.021   5.567  20.356  0.00  0.00    +0.000 A 
ATOM      4  C   UNL     1       2.287   6.774  19.664  0.00  0.00    +0.000 A 
ATOM      5  C   UNL     1       3.230   6.462  18.691  0.00  0.00    +0.000 A 
ATOM      6  C   UNL     1       3.836   7.388  17.679  0.00  0.00    +0.000 C 
ENDROOT
BRANCH   2   7
ATOM      7  C   UNL     1       2.635   3.015  20.109  0.00  0.00    +0.000 C 
ATOM      8  C   UNL     1       3.994   2.413  20.491  0.00  0.00    +0.000 C 
ATOM      9  C   UNL     1       1.714   2.795  21.343  0.00  0.00    +0.000 C 
ATOM     10  C   UNL     1       1.985   2.214  18.962  0.00  0.00    +0.000 C 
ENDBRANCH   2   7
BRANCH   4  11
ATOM     11  C   UNL     1       1.660   8.093  19.801  0.00  0.00    +0.000 C 
ATOM     12  O   UNL     1       1.496   8.573  20.917  0.00  0.00    +0.000 OA
ATOM     13  N   UNL     1       1.243   8.696  18.621  0.00  0.00    +0.000 N 
ATOM     14  H   UNL     1       1.312   8.142  17.778  0.00  0.00    +0.000 HD
BRANCH  13  15
ATOM     15  C   UNL     1       0.562   9.941  18.551  0.00  0.00    +0.000 A 
ATOM     16  C   UNL     1       1.163  11.157  18.903  0.00  0.00    +0.000 A 
ATOM     17  C   UNL     1       0.455  12.356  18.876  0.00  0.00    +0.000 A 
ATOM     18  C   UNL     1      -0.869  12.369  18.476  0.00  0.00    +0.000 A 
ATOM     19  C   UNL     1      -1.499  11.173  18.089  0.00  0.00    +0.000 A 
ATOM     20  C   UNL     1      -0.771   9.963  18.125  0.00  0.00    +0.000 A 
BRANCH  19  21
ATOM     21  C   UNL     1      -2.942  11.187  17.654  0.00  0.00    +0.000 C 
ATOM     22  F   UNL     1      -3.711  12.082  18.339  0.00  0.00    +0.000 F 
ATOM     23  F   UNL     1      -3.085  11.507  16.339  0.00  0.00    +0.000 F 
ATOM     24  F   UNL     1      -3.548   9.979  17.815  0.00  0.00    +0.000 F 
ENDBRANCH  19  21
ENDBRANCH  13  15
ENDBRANCH   4  11
BRANCH   1  25
ATOM     25  C   UNL     1       4.493   4.427  17.914  0.00  0.00    +0.000 C 
BRANCH  25  26
ATOM     26  C   UNL     1       5.988   4.453  18.283  0.00  0.00    +0.000 C 
BRANCH  26  27
ATOM     27  C   UNL     1       6.954   4.549  17.083  0.00  0.00    +0.000 C 
ATOM     28  C   UNL     1       7.146   6.021  16.700  0.00  0.00    +0.000 C 
BRANCH  27  30
ATOM     29  C   UNL     1       6.346   4.455  14.720  0.00  0.00    +0.000 C 
ATOM     30  N   UNL     1       6.413   3.738  15.986  0.00  0.00    +0.000 NA
ATOM     31  H   UNL     1       7.027   2.939  15.844  0.00  0.00    +0.000 HD
ENDBRANCH  27  30
ENDBRANCH  26  27
ENDBRANCH  25  26
ENDBRANCH   1  25
TORSDOF 8
ENDMDL
MODEL 2
REMARK VINA RESULT:      -7.8      2.260      2.721
REMARK  Name = 
REMARK  14 active torsions:
REMARK  status: ('A' for Active; 'I' for Inactive)
REMARK    1  A    between atoms: C_1  and  N_2
REMARK    2  A    between atoms: N_2  and  C_3
REMARK    3  A    between atoms: C_3  and  C_4
REMARK    4  A    between atoms: C_3  and  C_5
REMARK    5  A    between atoms: C_5  and  C_6
REMARK    6  A    between atoms: C_6  and  N_7
REMARK    7  A    between atoms: C_8  and  C_9
REMARK    8  A    between atoms: C_9  and  C_10
REMARK    9  A    between atoms: C_9  and  C_11
REMARK   10  A    between atoms: C_9  and  C_12
REMARK   11  A    between atoms: C_14  and  C_15
REMARK   12  A    between atoms: N_17  and  C_18
REMARK   13  A    between atoms: C_22  and  C_23
REMARK   14  A    between atoms: C_28  and  C_29
REMARK                            x       y       z     vdW  Elec       q    Type
REMARK                         _______ _______ _______ _____ _____    ______ ____
ROOT
ATOM      1  N   UNL     1       2.847   5.451  18.699  0.00  0.00    +0.000 N 
ATOM      2  C   UNL     1       2.260   4.749  19.759  0.00  0.00    +0.000 A 
ATOM      3  C   UNL     1       1.789   5.719  20.644  0.00  0.00    +0.000 A 
ATOM      4  C   UNL     1       1.977   7.008  20.086  0.00  0.00    +0.000 A 
ATOM      5  C   UNL     1       2.624   6.814  18.872  0.00  0.00    +0.000 A 
ATOM      6  C   UNL     1       3.040   7.861  17.883  0.00  0.00    +0.000 C 
ENDROOT
BRANCH   2   7
ATOM      7  C   UNL     1       2.112   3.214  19.887  0.00  0.00    +0.000 C 
ATOM      8  C   UNL     1       3.474   2.515  20.007  0.00  0.00    +0.000 C 
ATOM      9  C   UNL     1       1.336   2.850  21.185  0.00  0.00    +0.000 C 
ATOM     10  C   UNL     1       1.288   2.612  18.731  0.00  0.00    +0.000 C 
ENDBRANCH   2   7
BRANCH   4  11
ATOM     11  C   UNL     1       1.512   8.314  20.566  0.00  0.00    +0.000 C 
ATOM     12  O   UNL     1       1.717   8.642  21.728  0.00  0.00    +0.000 OA
ATOM     13  N   UNL     1       0.810   9.086  19.648  0.00  0.00    +0.000 N 
ATOM     14  H   UNL     1       0.589   8.651  18.762  0.00  0.00    +0.000 HD
BRANCH  13  15
ATOM     15  C   UNL     1       0.228  10.349  19.938  0.00  0.00    +0.000 A 
ATOM     16  C   UNL     1       0.361  11.459  19.093  0.00  0.00    +0.000 A 
ATOM     17  C   UNL     1      -0.175  12.701  19.427  0.00  0.00    +0.000 A 
ATOM     18  C   UNL     1      -0.875  12.856  20.611  0.00  0.00    +0.000 A 
ATOM     19  C   UNL     1      -1.053  11.758  21.472  0.00  0.00    +0.000 A 
ATOM     20  C   UNL     1      -0.501  10.506  21.122  0.00  0.00    +0.000 A 
BRANCH  19  21
ATOM     21  C   UNL     1      -1.816  11.927  22.760  0.00  0.00    +0.000 C 
ATOM     22  F   UNL     1      -1.834  10.804  23.536  0.00  0.00    +0.000 F 
ATOM     23  F   UNL     1      -1.298  12.911  23.545  0.00  0.00    +0.000 F 
ATOM     24  F   UNL     1      -3.121  12.257  22.556  0.00  0.00    +0.000 F 
ENDBRANCH  19  21
ENDBRANCH  13  15
ENDBRANCH   4  11
BRANCH   1  25
ATOM     25  C   UNL     1       3.490   4.875  17.519  0.00  0.00    +0.000 C 
BRANCH  25  26
ATOM     26  C   UNL     1       5.025   4.754  17.507  0.00  0.00    +0.000 C 
BRANCH  26  27
ATOM     27  C   UNL     1       5.729   5.499  16.353  0.00  0.00    +0.000 C 
ATOM     28  C   UNL     1       5.553   4.706  15.052  0.00  0.00    +0.000 C 
BRANCH  27  30
ATOM     29  C   UNL     1       7.377   6.934  17.444  0.00  0.00    +0.000 C 
ATOM     30  N   UNL     1       7.138   5.694  16.718  0.00  0.00    +0.000 NA
ATOM     31  H   UNL     1       7.418   4.931  17.331  0.00  0.00    +0.000 HD
ENDBRANCH  27  30
ENDBRANCH  26  27
ENDBRANCH  25  26
ENDBRANCH   1  25
TORSDOF 8
ENDMDL
MODEL 3
REMARK VINA RESULT:      -7.8      2.073      2.550
REMARK  Name = 
REMARK  14 active torsions:
REMARK  status: ('A' for Active; 'I' for Inactive)
REMARK    1  A    between atoms: C_1  and  N_2
REMARK    2  A    between atoms: N_2  and  C_3
REMARK    3  A    between atoms: C_3  and  C_4
REMARK    4  A    between atoms: C_3  and  C_5
REMARK    5  A    between atoms: C_5  and  C_6
REMARK    6  A    between atoms: C_6  and  N_7
REMARK    7  A    between atoms: C_8  and  C_9
REMARK    8  A    between atoms: C_9  and  C_10
REMARK    9  A    between atoms: C_9  and  C_11
REMARK   10  A    between atoms: C_9  and  C_12
REMARK   11  A    between atoms: C_14  and  C_15
REMARK   12  A    between atoms: N_17  and  C_18
REMARK   13  A    between atoms: C_22  and  C_23
REMARK   14  A    between atoms: C_28  and  C_29
REMARK                            x       y       z     vdW  Elec       q    Type
REMARK                         _______ _______ _______ _____ _____    ______ ____
ROOT
ATOM      1  N   UNL     1       3.295   5.194  18.821  0.00  0.00    +0.000 N 
ATOM      2  C   UNL     1       2.523   4.627  19.842  0.00  0.00    +0.000 A 
ATOM      3  C   UNL     1       1.884   5.695  20.474  0.00  0.00    +0.000 A 
ATOM      4  C   UNL     1       2.163   6.898  19.782  0.00  0.00    +0.000 A 
ATOM      5  C   UNL     1       3.032   6.559  18.751  0.00  0.00    +0.000 A 
ATOM      6  C   UNL     1       3.620   7.471  17.717  0.00  0.00    +0.000 C 
ENDROOT
BRANCH   2   7
ATOM      7  C   UNL     1       2.365   3.121  20.161  0.00  0.00    +0.000 C 
ATOM      8  C   UNL     1       3.711   2.463  20.495  0.00  0.00    +0.000 C 
ATOM      9  C   UNL     1       1.476   2.923  21.422  0.00  0.00    +0.000 C 
ATOM     10  C   UNL     1       1.650   2.359  19.027  0.00  0.00    +0.000 C 
ENDBRANCH   2   7
BRANCH   4  11
ATOM     11  C   UNL     1       1.605   8.242  19.971  0.00  0.00    +0.000 C 
ATOM     12  O   UNL     1       1.436   8.673  21.105  0.00  0.00    +0.000 OA
ATOM     13  N   UNL     1       1.255   8.926  18.814  0.00  0.00    +0.000 N 
ATOM     14  H   UNL     1       1.319   8.412  17.945  0.00  0.00    +0.000 HD
BRANCH  13  15
ATOM     15  C   UNL     1       0.646  10.209  18.791  0.00  0.00    +0.000 A 
ATOM     16  C   UNL     1      -0.743  10.390  18.768  0.00  0.00    +0.000 A 
ATOM     17  C   UNL     1      -1.313  11.659  18.692  0.00  0.00    +0.000 A 
ATOM     18  C   UNL     1      -0.503  12.780  18.655  0.00  0.00    +0.000 A 
ATOM     19  C   UNL     1       0.895  12.640  18.703  0.00  0.00    +0.000 A 
ATOM     20  C   UNL     1       1.460  11.347  18.777  0.00  0.00    +0.000 A 
BRANCH  19  21
ATOM     21  C   UNL     1       1.778  13.861  18.663  0.00  0.00    +0.000 C 
ATOM     22  F   UNL     1       2.547  14.016  19.780  0.00  0.00    +0.000 F 
ATOM     23  F   UNL     1       2.646  13.841  17.615  0.00  0.00    +0.000 F 
ATOM     24  F   UNL     1       1.067  15.015  18.541  0.00  0.00    +0.000 F 
ENDBRANCH  19  21
ENDBRANCH  13  15
ENDBRANCH   4  11
BRANCH   1  25
ATOM     25  C   UNL     1       4.155   4.481  17.878  0.00  0.00    +0.000 C 
BRANCH  25  26
ATOM     26  C   UNL     1       5.665   4.411  18.173  0.00  0.00    +0.000 C 
BRANCH  26  27
ATOM     27  C   UNL     1       6.575   4.424  16.926  0.00  0.00    +0.000 C 
ATOM     28  C   UNL     1       6.768   5.870  16.451  0.00  0.00    +0.000 C 
BRANCH  27  30
ATOM     29  C   UNL     1       6.266   3.990  14.543  0.00  0.00    +0.000 C 
ATOM     30  N   UNL     1       5.971   3.561  15.903  0.00  0.00    +0.000 NA
ATOM     31  H   UNL     1       6.352   2.624  16.009  0.00  0.00    +0.000 HD
ENDBRANCH  27  30
ENDBRANCH  26  27
ENDBRANCH  25  26
ENDBRANCH   1  25
TORSDOF 8
ENDMDL
MODEL 4
REMARK VINA RESULT:      -7.8      2.236      2.792
REMARK  Name = 
REMARK  14 active torsions:
REMARK  status: ('A' for Active; 'I' for Inactive)
REMARK    1  A    between atoms: C_1  and  N_2
REMARK    2  A    between atoms: N_2  and  C_3
REMARK    3  A    between atoms: C_3  and  C_4
REMARK    4  A    between atoms: C_3  and  C_5
REMARK    5  A    between atoms: C_5  and  C_6
REMARK    6  A    between atoms: C_6  and  N_7
REMARK    7  A    between atoms: C_8  and  C_9
REMARK    8  A    between atoms: C_9  and  C_10
REMARK    9  A    between atoms: C_9  and  C_11
REMARK   10  A    between atoms: C_9  and  C_12
REMARK   11  A    between atoms: C_14  and  C_15
REMARK   12  A    between atoms: N_17  and  C_18
REMARK   13  A    between atoms: C_22  and  C_23
REMARK   14  A    between atoms: C_28  and  C_29
REMARK                            x       y       z     vdW  Elec       q    Type
REMARK                         _______ _______ _______ _____ _____    ______ ____
ROOT
ATOM      1  N   UNL     1       2.958   5.285  18.610  0.00  0.00    +0.000 N 
ATOM      2  C   UNL     1       2.303   4.665  19.682  0.00  0.00    +0.000 A 
ATOM      3  C   UNL     1       1.815   5.701  20.480  0.00  0.00    +0.000 A 
ATOM      4  C   UNL     1       2.062   6.947  19.853  0.00  0.00    +0.000 A 
ATOM      5  C   UNL     1       2.762   6.661  18.687  0.00  0.00    +0.000 A 
ATOM      6  C   UNL     1       3.251   7.632  17.656  0.00  0.00    +0.000 C 
ENDROOT
BRANCH   2   7
ATOM      7  C   UNL     1       2.109   3.146  19.900  0.00  0.00    +0.000 C 
ATOM      8  C   UNL     1       3.448   2.419  20.088  0.00  0.00    +0.000 C 
ATOM      9  C   UNL     1       1.300   2.882  21.202  0.00  0.00    +0.000 C 
ATOM     10  C   UNL     1       1.289   2.497  18.766  0.00  0.00    +0.000 C 
ENDBRANCH   2   7
BRANCH   4  11
ATOM     11  C   UNL     1       1.609   8.291  20.225  0.00  0.00    +0.000 C 
ATOM     12  O   UNL     1       1.635   8.636  21.401  0.00  0.00    +0.000 OA
ATOM     13  N   UNL     1       1.124   9.080  19.190  0.00  0.00    +0.000 N 
ATOM     14  H   UNL     1       1.029   8.637  18.286  0.00  0.00    +0.000 HD
BRANCH  13  15
ATOM     15  C   UNL     1       0.586  10.384  19.356  0.00  0.00    +0.000 A 
ATOM     16  C   UNL     1      -0.717  10.615  19.817  0.00  0.00    +0.000 A 
ATOM     17  C   UNL     1      -1.239  11.903  19.920  0.00  0.00    +0.000 A 
ATOM     18  C   UNL     1      -0.459  12.994  19.579  0.00  0.00    +0.000 A 
ATOM     19  C   UNL     1       0.863  12.804  19.139  0.00  0.00    +0.000 A 
ATOM     20  C   UNL     1       1.378  11.492  19.035  0.00  0.00    +0.000 A 
BRANCH  19  21
ATOM     21  C   UNL     1       1.713  13.992  18.768  0.00  0.00    +0.000 C 
ATOM     22  F   UNL     1       2.463  13.799  17.645  0.00  0.00    +0.000 F 
ATOM     23  F   UNL     1       0.970  15.108  18.530  0.00  0.00    +0.000 F 
ATOM     24  F   UNL     1       2.595  14.330  19.749  0.00  0.00    +0.000 F 
ENDBRANCH  19  21
ENDBRANCH  13  15
ENDBRANCH   4  11
BRANCH   1  25
ATOM     25  C   UNL     1       3.641   4.620  17.502  0.00  0.00    +0.000 C 
BRANCH  25  26
ATOM     26  C   UNL     1       5.168   4.442  17.584  0.00  0.00    +0.000 C 
BRANCH  26  27
ATOM     27  C   UNL     1       5.973   5.217  16.520  0.00  0.00    +0.000 C 
ATOM     28  C   UNL     1       5.410   4.903  15.127  0.00  0.00    +0.000 C 
BRANCH  27  30
ATOM     29  C   UNL     1       7.810   4.700  18.044  0.00  0.00    +0.000 C 
ATOM     30  N   UNL     1       7.390   4.858  16.658  0.00  0.00    +0.000 NA
ATOM     31  H   UNL     1       7.541   3.964  16.197  0.00  0.00    +0.000 HD
ENDBRANCH  27  30
ENDBRANCH  26  27
ENDBRANCH  25  26
ENDBRANCH   1  25
TORSDOF 8
ENDMDL
MODEL 5
REMARK VINA RESULT:      -7.7      2.215      2.737
REMARK  Name = 
REMARK  14 active torsions:
REMARK  status: ('A' for Active; 'I' for Inactive)
REMARK    1  A    between atoms: C_1  and  N_2
REMARK    2  A    between atoms: N_2  and  C_3
REMARK    3  A    between atoms: C_3  and  C_4
REMARK    4  A    between atoms: C_3  and  C_5
REMARK    5  A    between atoms: C_5  and  C_6
REMARK    6  A    between atoms: C_6  and  N_7
REMARK    7  A    between atoms: C_8  and  C_9
REMARK    8  A    between atoms: C_9  and  C_10
REMARK    9  A    between atoms: C_9  and  C_11
REMARK   10  A    between atoms: C_9  and  C_12
REMARK   11  A    between atoms: C_14  and  C_15
REMARK   12  A    between atoms: N_17  and  C_18
REMARK   13  A    between atoms: C_22  and  C_23
REMARK   14  A    between atoms: C_28  and  C_29
REMARK                            x       y       z     vdW  Elec       q    Type
REMARK                         _______ _______ _______ _____ _____    ______ ____
ROOT
ATOM      1  N   UNL     1       2.931   5.404  18.627  0.00  0.00    +0.000 N 
ATOM      2  C   UNL     1       2.351   4.685  19.680  0.00  0.00    +0.000 A 
ATOM      3  C   UNL     1       1.880   5.641  20.580  0.00  0.00    +0.000 A 
ATOM      4  C   UNL     1       2.061   6.938  20.040  0.00  0.00    +0.000 A 
ATOM      5  C   UNL     1       2.704   6.763  18.820  0.00  0.00    +0.000 A 
ATOM      6  C   UNL     1       3.111   7.826  17.845  0.00  0.00    +0.000 C 
ENDROOT
BRANCH   2   7
ATOM      7  C   UNL     1       2.210   3.148  19.787  0.00  0.00    +0.000 C 
ATOM      8  C   UNL     1       1.557   2.543  18.536  0.00  0.00    +0.000 C 
ATOM      9  C   UNL     1       3.610   2.480  19.896  0.00  0.00    +0.000 C 
ATOM     10  C   UNL     1       1.450   2.722  21.060  0.00  0.00    +0.000 C 
ENDBRANCH   2   7
BRANCH   4  11
ATOM     11  C   UNL     1       1.593   8.236  20.539  0.00  0.00    +0.000 C 
ATOM     12  O   UNL     1       1.731   8.515  21.724  0.00  0.00    +0.000 OA
ATOM     13  N   UNL     1       0.966   9.057  19.610  0.00  0.00    +0.000 N 
ATOM     14  H   UNL     1       0.794   8.660  18.696  0.00  0.00    +0.000 HD
BRANCH  13  15
ATOM     15  C   UNL     1       0.393  10.321  19.911  0.00  0.00    +0.000 A 
ATOM     16  C   UNL     1       0.565  11.447  19.096  0.00  0.00    +0.000 A 
ATOM     17  C   UNL     1       0.037  12.689  19.442  0.00  0.00    +0.000 A 
ATOM     18  C   UNL     1      -0.695  12.827  20.609  0.00  0.00    +0.000 A 
ATOM     19  C   UNL     1      -0.912  11.714  21.440  0.00  0.00    +0.000 A 
ATOM     20  C   UNL     1      -0.367  10.461  21.078  0.00  0.00    +0.000 A 
BRANCH  19  21
ATOM     21  C   UNL     1      -1.709  11.865  22.710  0.00  0.00    +0.000 C 
ATOM     22  F   UNL     1      -1.285  12.892  23.502  0.00  0.00    +0.000 F 
ATOM     23  F   UNL     1      -3.028  12.102  22.471  0.00  0.00    +0.000 F 
ATOM     24  F   UNL     1      -1.663  10.751  23.491  0.00  0.00    +0.000 F 
ENDBRANCH  19  21
ENDBRANCH  13  15
ENDBRANCH   4  11
BRANCH   1  25
ATOM     25  C   UNL     1       3.571   4.847  17.436  0.00  0.00    +0.000 C 
BRANCH  25  26
ATOM     26  C   UNL     1       5.102   4.682  17.437  0.00  0.00    +0.000 C 
BRANCH  26  27
ATOM     27  C   UNL     1       5.843   5.477  16.341  0.00  0.00    +0.000 C 
ATOM     28  C   UNL     1       5.533   4.864  14.969  0.00  0.00    +0.000 C 
BRANCH  27  30
ATOM     29  C   UNL     1       7.607   4.673  17.827  0.00  0.00    +0.000 C 
ATOM     30  N   UNL     1       7.277   5.476  16.657  0.00  0.00    +0.000 NA
ATOM     31  H   UNL     1       7.779   5.074  15.869  0.00  0.00    +0.000 HD
ENDBRANCH  27  30
ENDBRANCH  26  27
ENDBRANCH  25  26
ENDBRANCH   1  25
TORSDOF 8
ENDMDL
MODEL 6
REMARK VINA RESULT:      -7.7      1.381      3.644
REMARK  Name = 
REMARK  14 active torsions:
REMARK  status: ('A' for Active; 'I' for Inactive)
REMARK    1  A    between atoms: C_1  and  N_2
REMARK    2  A    between atoms: N_2  and  C_3
REMARK    3  A    between atoms: C_3  and  C_4
REMARK    4  A    between atoms: C_3  and  C_5
REMARK    5  A    between atoms: C_5  and  C_6
REMARK    6  A    between atoms: C_6  and  N_7
REMARK    7  A    between atoms: C_8  and  C_9
REMARK    8  A    between atoms: C_9  and  C_10
REMARK    9  A    between atoms: C_9  and  C_11
REMARK   10  A    between atoms: C_9  and  C_12
REMARK   11  A    between atoms: C_14  and  C_15
REMARK   12  A    between atoms: N_17  and  C_18
REMARK   13  A    between atoms: C_22  and  C_23
REMARK   14  A    between atoms: C_28  and  C_29
REMARK                            x       y       z     vdW  Elec       q    Type
REMARK                         _______ _______ _______ _____ _____    ______ ____
ROOT
ATOM      1  N   UNL     1       4.031   5.245  17.256  0.00  0.00    +0.000 N 
ATOM      2  C   UNL     1       5.102   6.138  17.390  0.00  0.00    +0.000 A 
ATOM      3  C   UNL     1       4.543   7.343  17.817  0.00  0.00    +0.000 A 
ATOM      4  C   UNL     1       3.158   7.169  18.058  0.00  0.00    +0.000 A 
ATOM      5  C   UNL     1       2.867   5.854  17.714  0.00  0.00    +0.000 A 
ATOM      6  C   UNL     1       1.540   5.163  17.798  0.00  0.00    +0.000 C 
ENDROOT
BRANCH   2   7
ATOM      7  C   UNL     1       6.602   5.829  17.167  0.00  0.00    +0.000 C 
ATOM      8  C   UNL     1       6.869   5.260  15.767  0.00  0.00    +0.000 C 
ATOM      9  C   UNL     1       7.444   7.134  17.259  0.00  0.00    +0.000 C 
ATOM     10  C   UNL     1       7.170   4.895  18.255  0.00  0.00    +0.000 C 
ENDBRANCH   2   7
BRANCH   4  11
ATOM     11  C   UNL     1       2.186   8.092  18.655  0.00  0.00    +0.000 C 
ATOM     12  O   UNL     1       1.885   7.975  19.836  0.00  0.00    +0.000 OA
ATOM     13  N   UNL     1       1.627   9.029  17.794  0.00  0.00    +0.000 N 
ATOM     14  H   UNL     1       1.856   8.940  16.813  0.00  0.00    +0.000 HD
BRANCH  13  15
ATOM     15  C   UNL     1       0.627   9.967  18.166  0.00  0.00    +0.000 A 
ATOM     16  C   UNL     1       0.900  11.104  18.937  0.00  0.00    +0.000 A 
ATOM     17  C   UNL     1      -0.109  11.979  19.333  0.00  0.00    +0.000 A 
ATOM     18  C   UNL     1      -1.418  11.744  18.948  0.00  0.00    +0.000 A 
ATOM     19  C   UNL     1      -1.727  10.628  18.150  0.00  0.00    +0.000 A 
ATOM     20  C   UNL     1      -0.694   9.747  17.759  0.00  0.00    +0.000 A 
BRANCH  19  21
ATOM     21  C   UNL     1      -3.152  10.373  17.730  0.00  0.00    +0.000 C 
ATOM     22  F   UNL     1      -3.542   9.074  17.881  0.00  0.00    +0.000 F 
ATOM     23  F   UNL     1      -4.044  11.112  18.444  0.00  0.00    +0.000 F 
ATOM     24  F   UNL     1      -3.374  10.677  16.422  0.00  0.00    +0.000 F 
ENDBRANCH  19  21
ENDBRANCH  13  15
ENDBRANCH   4  11
BRANCH   1  25
ATOM     25  C   UNL     1       4.106   3.850  16.826  0.00  0.00    +0.000 C 
BRANCH  25  26
ATOM     26  C   UNL     1       4.535   2.789  17.856  0.00  0.00    +0.000 C 
BRANCH  26  27
ATOM     27  C   UNL     1       3.551   2.581  19.027  0.00  0.00    +0.000 C 
ATOM     28  C   UNL     1       4.331   2.167  20.281  0.00  0.00    +0.000 C 
BRANCH  27  30
ATOM     29  C   UNL     1       1.188   1.965  18.968  0.00  0.00    +0.000 C 
ATOM     30  N   UNL     1       2.551   1.585  18.621  0.00  0.00    +0.000 NA
ATOM     31  H   UNL     1       2.585   1.491  17.608  0.00  0.00    +0.000 HD
ENDBRANCH  27  30
ENDBRANCH  26  27
ENDBRANCH  25  26
ENDBRANCH   1  25
TORSDOF 8
ENDMDL
MODEL 7
REMARK VINA RESULT:      -7.7      1.633      3.860
REMARK  Name = 
REMARK  14 active torsions:
REMARK  status: ('A' for Active; 'I' for Inactive)
REMARK    1  A    between atoms: C_1  and  N_2
REMARK    2  A    between atoms: N_2  and  C_3
REMARK    3  A    between atoms: C_3  and  C_4
REMARK    4  A    between atoms: C_3  and  C_5
REMARK    5  A    between atoms: C_5  and  C_6
REMARK    6  A    between atoms: C_6  and  N_7
REMARK    7  A    between atoms: C_8  and  C_9
REMARK    8  A    between atoms: C_9  and  C_10
REMARK    9  A    between atoms: C_9  and  C_11
REMARK   10  A    between atoms: C_9  and  C_12
REMARK   11  A    between atoms: C_14  and  C_15
REMARK   12  A    between atoms: N_17  and  C_18
REMARK   13  A    between atoms: C_22  and  C_23
REMARK   14  A    between atoms: C_28  and  C_29
REMARK                            x       y       z     vdW  Elec       q    Type
REMARK                         _______ _______ _______ _____ _____    ______ ____
ROOT
ATOM      1  N   UNL     1       3.355   6.088  18.912  0.00  0.00    +0.000 N 
ATOM      2  C   UNL     1       3.925   6.312  17.652  0.00  0.00    +0.000 A 
ATOM      3  C   UNL     1       3.312   7.462  17.156  0.00  0.00    +0.000 A 
ATOM      4  C   UNL     1       2.457   8.013  18.142  0.00  0.00    +0.000 A 
ATOM      5  C   UNL     1       2.511   7.148  19.228  0.00  0.00    +0.000 A 
ATOM      6  C   UNL     1       1.796   7.285  20.539  0.00  0.00    +0.000 C 
ENDROOT
BRANCH   2   7
ATOM      7  C   UNL     1       5.047   5.485  16.980  0.00  0.00    +0.000 C 
ATOM      8  C   UNL     1       4.578   4.069  16.619  0.00  0.00    +0.000 C 
ATOM      9  C   UNL     1       5.476   6.142  15.637  0.00  0.00    +0.000 C 
ATOM     10  C   UNL     1       6.326   5.435  17.841  0.00  0.00    +0.000 C 
ENDBRANCH   2   7
BRANCH   4  11
ATOM     11  C   UNL     1       1.723   9.284  18.144  0.00  0.00    +0.000 C 
ATOM     12  O   UNL     1       2.231  10.278  17.641  0.00  0.00    +0.000 OA
ATOM     13  N   UNL     1       0.488   9.273  18.781  0.00  0.00    +0.000 N 
ATOM     14  H   UNL     1       0.237   8.427  19.274  0.00  0.00    +0.000 HD
BRANCH  13  15
ATOM     15  C   UNL     1      -0.343  10.414  18.942  0.00  0.00    +0.000 A 
ATOM     16  C   UNL     1       0.082  11.579  19.594  0.00  0.00    +0.000 A 
ATOM     17  C   UNL     1      -0.772  12.663  19.785  0.00  0.00    +0.000 A 
ATOM     18  C   UNL     1      -2.070  12.613  19.309  0.00  0.00    +0.000 A 
ATOM     19  C   UNL     1      -2.525  11.472  18.624  0.00  0.00    +0.000 A 
ATOM     20  C   UNL     1      -1.650  10.378  18.441  0.00  0.00    +0.000 A 
BRANCH  19  21
ATOM     21  C   UNL     1      -3.939  11.418  18.106  0.00  0.00    +0.000 C 
ATOM     22  F   UNL     1      -4.833  12.094  18.884  0.00  0.00    +0.000 F 
ATOM     23  F   UNL     1      -4.055  11.951  16.859  0.00  0.00    +0.000 F 
ATOM     24  F   UNL     1      -4.414  10.146  18.016  0.00  0.00    +0.000 F 
ENDBRANCH  19  21
ENDBRANCH  13  15
ENDBRANCH   4  11
BRANCH   1  25
ATOM     25  C   UNL     1       3.667   4.994  19.830  0.00  0.00    +0.000 C 
BRANCH  25  26
ATOM     26  C   UNL     1       2.831   3.704  19.743  0.00  0.00    +0.000 C 
BRANCH  26  27
ATOM     27  C   UNL     1       1.647   3.626  20.730  0.00  0.00    +0.000 C 
ATOM     28  C   UNL     1       2.036   2.746  21.924  0.00  0.00    +0.000 C 
BRANCH  27  30
ATOM     29  C   UNL     1       0.810   2.468  18.749  0.00  0.00    +0.000 C 
ATOM     30  N   UNL     1       0.473   3.123  20.006  0.00  0.00    +0.000 NA
ATOM     31  H   UNL     1       0.010   2.428  20.589  0.00  0.00    +0.000 HD
ENDBRANCH  27  30
ENDBRANCH  26  27
ENDBRANCH  25  26
ENDBRANCH   1  25
TORSDOF 8
ENDMDL
MODEL 8
REMARK VINA RESULT:      -7.7      2.292      2.733
REMARK  Name = 
REMARK  14 active torsions:
REMARK  status: ('A' for Active; 'I' for Inactive)
REMARK    1  A    between atoms: C_1  and  N_2
REMARK    2  A    between atoms: N_2  and  C_3
REMARK    3  A    between atoms: C_3  and  C_4
REMARK    4  A    between atoms: C_3  and  C_5
REMARK    5  A    between atoms: C_5  and  C_6
REMARK    6  A    between atoms: C_6  and  N_7
REMARK    7  A    between atoms: C_8  and  C_9
REMARK    8  A    between atoms: C_9  and  C_10
REMARK    9  A    between atoms: C_9  and  C_11
REMARK   10  A    between atoms: C_9  and  C_12
REMARK   11  A    between atoms: C_14  and  C_15
REMARK   12  A    between atoms: N_17  and  C_18
REMARK   13  A    between atoms: C_22  and  C_23
REMARK   14  A    between atoms: C_28  and  C_29
REMARK                            x       y       z     vdW  Elec       q    Type
REMARK                         _______ _______ _______ _____ _____    ______ ____
ROOT
ATOM      1  N   UNL     1       2.503   5.434  18.763  0.00  0.00    +0.000 N 
ATOM      2  C   UNL     1       2.025   4.743  19.884  0.00  0.00    +0.000 A 
ATOM      3  C   UNL     1       1.697   5.721  20.823  0.00  0.00    +0.000 A 
ATOM      4  C   UNL     1       1.860   7.008  20.253  0.00  0.00    +0.000 A 
ATOM      5  C   UNL     1       2.349   6.802  18.968  0.00  0.00    +0.000 A 
ATOM      6  C   UNL     1       2.676   7.843  17.941  0.00  0.00    +0.000 C 
ENDROOT
BRANCH   2   7
ATOM      7  C   UNL     1       1.842   3.213  20.023  0.00  0.00    +0.000 C 
ATOM      8  C   UNL     1       3.173   2.462  19.885  0.00  0.00    +0.000 C 
ATOM      9  C   UNL     1       1.302   2.857  21.437  0.00  0.00    +0.000 C 
ATOM     10  C   UNL     1       0.797   2.661  19.032  0.00  0.00    +0.000 C 
ENDBRANCH   2   7
BRANCH   4  11
ATOM     11  C   UNL     1       1.501   8.325  20.790  0.00  0.00    +0.000 C 
ATOM     12  O   UNL     1       1.700   8.572  21.973  0.00  0.00    +0.000 OA
ATOM     13  N   UNL     1       0.899   9.204  19.898  0.00  0.00    +0.000 N 
ATOM     14  H   UNL     1       0.666   8.837  18.985  0.00  0.00    +0.000 HD
BRANCH  13  15
ATOM     15  C   UNL     1       0.425  10.498  20.241  0.00  0.00    +0.000 A 
ATOM     16  C   UNL     1       0.866  11.664  19.600  0.00  0.00    +0.000 A 
ATOM     17  C   UNL     1       0.425  12.925  19.992  0.00  0.00    +0.000 A 
ATOM     18  C   UNL     1      -0.485  13.049  21.027  0.00  0.00    +0.000 A 
ATOM     19  C   UNL     1      -0.972  11.901  21.677  0.00  0.00    +0.000 A 
ATOM     20  C   UNL     1      -0.513  10.627  21.271  0.00  0.00    +0.000 A 
BRANCH  19  21
ATOM     21  C   UNL     1      -1.964  12.035  22.804  0.00  0.00    +0.000 C 
ATOM     22  F   UNL     1      -1.680  13.057  23.662  0.00  0.00    +0.000 F 
ATOM     23  F   UNL     1      -3.228  12.267  22.358  0.00  0.00    +0.000 F 
ATOM     24  F   UNL     1      -2.036  10.915  23.573  0.00  0.00    +0.000 F 
ENDBRANCH  19  21
ENDBRANCH  13  15
ENDBRANCH   4  11
BRANCH   1  25
ATOM     25  C   UNL     1       2.978   4.847  17.512  0.00  0.00    +0.000 C 
BRANCH  25  26
ATOM     26  C   UNL     1       4.444   5.081  17.103  0.00  0.00    +0.000 C 
BRANCH  26  27
ATOM     27  C   UNL     1       5.489   4.368  17.988  0.00  0.00    +0.000 C 
ATOM     28  C   UNL     1       5.795   5.236  19.215  0.00  0.00    +0.000 C 
BRANCH  27  30
ATOM     29  C   UNL     1       7.915   4.561  17.780  0.00  0.00    +0.000 C 
ATOM     30  N   UNL     1       6.677   4.092  17.171  0.00  0.00    +0.000 NA
ATOM     31  H   UNL     1       6.764   3.084  17.061  0.00  0.00    +0.000 HD
ENDBRANCH  27  30
ENDBRANCH  26  27
ENDBRANCH  25  26
ENDBRANCH   1  25
TORSDOF 8
ENDMDL
MODEL 9
REMARK VINA RESULT:      -7.7      2.251      2.530
REMARK  Name = 
REMARK  14 active torsions:
REMARK  status: ('A' for Active; 'I' for Inactive)
REMARK    1  A    between atoms: C_1  and  N_2
REMARK    2  A    between atoms: N_2  and  C_3
REMARK    3  A    between atoms: C_3  and  C_4
REMARK    4  A    between atoms: C_3  and  C_5
REMARK    5  A    between atoms: C_5  and  C_6
REMARK    6  A    between atoms: C_6  and  N_7
REMARK    7  A    between atoms: C_8  and  C_9
REMARK    8  A    between atoms: C_9  and  C_10
REMARK    9  A    between atoms: C_9  and  C_11
REMARK   10  A    between atoms: C_9  and  C_12
REMARK   11  A    between atoms: C_14  and  C_15
REMARK   12  A    between atoms: N_17  and  C_18
REMARK   13  A    between atoms: C_22  and  C_23
REMARK   14  A    between atoms: C_28  and  C_29
REMARK                            x       y       z     vdW  Elec       q    Type
REMARK                         _______ _______ _______ _____ _____    ______ ____
ROOT
ATOM      1  N   UNL     1       2.850   5.466  18.750  0.00  0.00    +0.000 N 
ATOM      2  C   UNL     1       2.243   4.758  19.795  0.00  0.00    +0.000 A 
ATOM      3  C   UNL     1       1.759   5.723  20.679  0.00  0.00    +0.000 A 
ATOM      4  C   UNL     1       1.960   7.016  20.134  0.00  0.00    +0.000 A 
ATOM      5  C   UNL     1       2.627   6.828  18.929  0.00  0.00    +0.000 A 
ATOM      6  C   UNL     1       3.062   7.882  17.955  0.00  0.00    +0.000 C 
ENDROOT
BRANCH   2   7
ATOM      7  C   UNL     1       2.089   3.223  19.910  0.00  0.00    +0.000 C 
ATOM      8  C   UNL     1       3.445   2.522  20.079  0.00  0.00    +0.000 C 
ATOM      9  C   UNL     1       1.263   2.853  21.175  0.00  0.00    +0.000 C 
ATOM     10  C   UNL     1       1.310   2.627  18.720  0.00  0.00    +0.000 C 
ENDBRANCH   2   7
BRANCH   4  11
ATOM     11  C   UNL     1       1.490   8.320  20.614  0.00  0.00    +0.000 C 
ATOM     12  O   UNL     1       1.661   8.632  21.787  0.00  0.00    +0.000 OA
ATOM     13  N   UNL     1       0.822   9.108  19.685  0.00  0.00    +0.000 N 
ATOM     14  H   UNL     1       0.627   8.685  18.787  0.00  0.00    +0.000 HD
BRANCH  13  15
ATOM     15  C   UNL     1       0.242  10.372  19.971  0.00  0.00    +0.000 A 
ATOM     16  C   UNL     1       0.391  11.485  19.134  0.00  0.00    +0.000 A 
ATOM     17  C   UNL     1      -0.144  12.727  19.466  0.00  0.00    +0.000 A 
ATOM     18  C   UNL     1      -0.861  12.880  20.640  0.00  0.00    +0.000 A 
ATOM     19  C   UNL     1      -1.057  11.779  21.493  0.00  0.00    +0.000 A 
ATOM     20  C   UNL     1      -0.504  10.526  21.146  0.00  0.00    +0.000 A 
BRANCH  19  21
ATOM     21  C   UNL     1      -1.837  11.945  22.771  0.00  0.00    +0.000 C 
ATOM     22  F   UNL     1      -1.379  12.958  23.563  0.00  0.00    +0.000 F 
ATOM     23  F   UNL     1      -3.151  12.217  22.546  0.00  0.00    +0.000 F 
ATOM     24  F   UNL     1      -1.812  10.828  23.548  0.00  0.00    +0.000 F 
ENDBRANCH  19  21
ENDBRANCH  13  15
ENDBRANCH   4  11
BRANCH   1  25
ATOM     25  C   UNL     1       3.511   4.897  17.577  0.00  0.00    +0.000 C 
BRANCH  25  26
ATOM     26  C   UNL     1       5.017   4.589  17.663  0.00  0.00    +0.000 C 
BRANCH  26  27
ATOM     27  C   UNL     1       5.823   4.911  16.386  0.00  0.00    +0.000 C 
ATOM     28  C   UNL     1       5.240   6.164  15.719  0.00  0.00    +0.000 C 
BRANCH  27  30
ATOM     29  C   UNL     1       6.309   3.997  14.174  0.00  0.00    +0.000 C 
ATOM     30  N   UNL     1       5.796   3.732  15.512  0.00  0.00    +0.000 NA
ATOM     31  H   UNL     1       6.390   3.015  15.922  0.00  0.00    +0.000 HD
ENDBRANCH  27  30
ENDBRANCH  26  27
ENDBRANCH  25  26
ENDBRANCH   1  25
TORSDOF 8
ENDMDL
