MODEL 1
REMARK VINA RESULT:      -7.2      0.000      0.000
REMARK  Name = 
REMARK  4 active torsions:
REMARK  status: ('A' for Active; 'I' for Inactive)
REMARK    1  A    between atoms: C_2  and  C_13
REMARK    2  A    between atoms: N_3  and  N_4
REMARK    3  A    between atoms: C_5  and  C_6
REMARK    4  A    between atoms: C_17  and  N_18
REMARK                            x       y       z     vdW  Elec       q    Type
REMARK                         _______ _______ _______ _____ _____    ______ ____
ROOT
ATOM      1  O   UNL     1       2.276   3.369  16.752  0.00  0.00    +0.000 OA
ATOM      2  C   UNL     1       2.968   3.482  17.764  0.00  0.00    +0.000 C 
ATOM      3  N   UNL     1       4.357   3.439  17.727  0.00  0.00    +0.000 N 
ATOM      4  H   UNL     1       4.883   3.575  18.584  0.00  0.00    +0.000 HD
ENDROOT
BRANCH   2   5
ATOM      5  C   UNL     1       2.392   3.607  19.099  0.00  0.00    +0.000 A 
ATOM      6  S   UNL     1       2.001   2.199  20.008  0.00  0.00    +0.000 S 
ATOM      7  C   UNL     1       1.714   3.104  21.426  0.00  0.00    +0.000 A 
ATOM      8  C   UNL     1       1.858   4.456  21.213  0.00  0.00    +0.000 A 
ATOM      9  C   UNL     1       2.177   4.758  19.849  0.00  0.00    +0.000 A 
BRANCH   9  10
ATOM     10  N   UNL     1       2.269   6.098  19.354  0.00  0.00    +0.000 N 
ATOM     11  C   UNL     1       1.845   7.245  19.995  0.00  0.00    +0.000 A 
ATOM     12  C   UNL     1       2.089   8.333  19.188  0.00  0.00    +0.000 A 
ATOM     13  C   UNL     1       2.721   7.852  18.023  0.00  0.00    +0.000 A 
ATOM     14  C   UNL     1       2.871   6.490  18.173  0.00  0.00    +0.000 A 
ENDBRANCH   9  10
ENDBRANCH   2   5
BRANCH   3  15
ATOM     15  N   UNL     1       5.007   3.140  16.569  0.00  0.00    +0.000 NA
ATOM     16  C   UNL     1       5.931   3.948  16.135  0.00  0.00    +0.000 C 
BRANCH  16  17
ATOM     17  C   UNL     1       6.517   5.118  16.818  0.00  0.00    +0.000 A 
ATOM     18  C   UNL     1       6.164   6.426  16.461  0.00  0.00    +0.000 A 
ATOM     19  C   UNL     1       6.815   7.506  17.055  0.00  0.00    +0.000 A 
ATOM     20  C   UNL     1       7.771   7.277  18.044  0.00  0.00    +0.000 A 
ATOM     21 CL   UNL     1       8.601   8.608  18.747  0.00  0.00    +0.000 Cl
ATOM     22  C   UNL     1       8.061   5.977  18.461  0.00  0.00    +0.000 A 
ATOM     23  C   UNL     1       7.431   4.891  17.848  0.00  0.00    +0.000 A 
ENDBRANCH  16  17
ENDBRANCH   3  15
TORSDOF 4
ENDMDL
MODEL 2
REMARK VINA RESULT:      -6.9      0.235      1.322
REMARK  Name = 
REMARK  4 active torsions:
REMARK  status: ('A' for Active; 'I' for Inactive)
REMARK    1  A    between atoms: C_2  and  C_13
REMARK    2  A    between atoms: N_3  and  N_4
REMARK    3  A    between atoms: C_5  and  C_6
REMARK    4  A    between atoms: C_17  and  N_18
REMARK                            x       y       z     vdW  Elec       q    Type
REMARK                         _______ _______ _______ _____ _____    ______ ____
ROOT
ATOM      1  O   UNL     1       2.185   3.387  16.871  0.00  0.00    +0.000 OA
ATOM      2  C   UNL     1       2.940   3.487  17.838  0.00  0.00    +0.000 C 
ATOM      3  N   UNL     1       4.321   3.362  17.724  0.00  0.00    +0.000 N 
ATOM      4  H   UNL     1       4.902   3.491  18.545  0.00  0.00    +0.000 HD
ENDROOT
BRANCH   2   5
ATOM      5  C   UNL     1       2.451   3.682  19.199  0.00  0.00    +0.000 A 
ATOM      6  S   UNL     1       2.106   2.323  20.198  0.00  0.00    +0.000 S 
ATOM      7  C   UNL     1       1.917   3.298  21.585  0.00  0.00    +0.000 A 
ATOM      8  C   UNL     1       2.058   4.636  21.299  0.00  0.00    +0.000 A 
ATOM      9  C   UNL     1       2.293   4.869  19.905  0.00  0.00    +0.000 A 
BRANCH   9  10
ATOM     10  N   UNL     1       2.365   6.184  19.341  0.00  0.00    +0.000 N 
ATOM     11  C   UNL     1       2.980   6.541  18.158  0.00  0.00    +0.000 A 
ATOM     12  C   UNL     1       2.849   7.899  17.970  0.00  0.00    +0.000 A 
ATOM     13  C   UNL     1       2.095   8.396  19.053  0.00  0.00    +0.000 A 
ATOM     14  C   UNL     1       1.763   7.320  19.848  0.00  0.00    +0.000 A 
ENDBRANCH   9  10
ENDBRANCH   2   5
BRANCH   3  15
ATOM     15  N   UNL     1       4.884   2.994  16.541  0.00  0.00    +0.000 NA
ATOM     16  C   UNL     1       5.841   3.722  16.042  0.00  0.00    +0.000 C 
BRANCH  16  17
ATOM     17  C   UNL     1       6.548   4.856  16.669  0.00  0.00    +0.000 A 
ATOM     18  C   UNL     1       7.482   4.658  17.695  0.00  0.00    +0.000 A 
ATOM     19  C   UNL     1       8.052   5.758  18.335  0.00  0.00    +0.000 A 
ATOM     20  C   UNL     1       7.733   7.047  17.908  0.00  0.00    +0.000 A 
ATOM     21 CL   UNL     1       8.405   8.402  18.724  0.00  0.00    +0.000 Cl
ATOM     22  C   UNL     1       6.869   7.242  16.830  0.00  0.00    +0.000 A 
ATOM     23  C   UNL     1       6.275   6.143  16.204  0.00  0.00    +0.000 A 
ENDBRANCH  16  17
ENDBRANCH   3  15
TORSDOF 4
ENDMDL
MODEL 3
REMARK VINA RESULT:      -6.8      2.725      3.403
REMARK  Name = 
REMARK  4 active torsions:
REMARK  status: ('A' for Active; 'I' for Inactive)
REMARK    1  A    between atoms: C_2  and  C_13
REMARK    2  A    between atoms: N_3  and  N_4
REMARK    3  A    between atoms: C_5  and  C_6
REMARK    4  A    between atoms: C_17  and  N_18
REMARK                            x       y       z     vdW  Elec       q    Type
REMARK                         _______ _______ _______ _____ _____    ______ ____
ROOT
ATOM      1  O   UNL     1       5.236   5.832  19.713  0.00  0.00    +0.000 OA
ATOM      2  C   UNL     1       5.024   4.710  19.254  0.00  0.00    +0.000 C 
ATOM      3  N   UNL     1       6.023   3.945  18.662  0.00  0.00    +0.000 N 
ATOM      4  H   UNL     1       5.806   3.011  18.333  0.00  0.00    +0.000 HD
ENDROOT
BRANCH   2   5
ATOM      5  C   UNL     1       3.695   4.108  19.232  0.00  0.00    +0.000 A 
ATOM      6  S   UNL     1       3.520   2.397  19.207  0.00  0.00    +0.000 S 
ATOM      7  C   UNL     1       1.840   2.490  19.488  0.00  0.00    +0.000 A 
ATOM      8  C   UNL     1       1.398   3.792  19.550  0.00  0.00    +0.000 A 
ATOM      9  C   UNL     1       2.456   4.732  19.327  0.00  0.00    +0.000 A 
BRANCH   9  10
ATOM     10  N   UNL     1       2.230   6.144  19.232  0.00  0.00    +0.000 N 
ATOM     11  C   UNL     1       1.882   6.994  20.263  0.00  0.00    +0.000 A 
ATOM     12  C   UNL     1       1.737   8.270  19.769  0.00  0.00    +0.000 A 
ATOM     13  C   UNL     1       2.043   8.220  18.394  0.00  0.00    +0.000 A 
ATOM     14  C   UNL     1       2.397   6.920  18.101  0.00  0.00    +0.000 A 
ENDBRANCH   9  10
ENDBRANCH   2   5
BRANCH   3  15
ATOM     15  N   UNL     1       7.262   4.470  18.453  0.00  0.00    +0.000 NA
ATOM     16  C   UNL     1       7.694   4.606  17.233  0.00  0.00    +0.000 C 
BRANCH  16  17
ATOM     17  C   UNL     1       6.950   4.410  15.973  0.00  0.00    +0.000 A 
ATOM     18  C   UNL     1       5.750   3.687  15.937  0.00  0.00    +0.000 A 
ATOM     19  C   UNL     1       5.131   3.433  14.714  0.00  0.00    +0.000 A 
ATOM     20  C   UNL     1       5.679   3.952  13.541  0.00  0.00    +0.000 A 
ATOM     21 CL   UNL     1       4.937   3.605  12.031  0.00  0.00    +0.000 Cl
ATOM     22  C   UNL     1       6.827   4.745  13.587  0.00  0.00    +0.000 A 
ATOM     23  C   UNL     1       7.466   4.979  14.807  0.00  0.00    +0.000 A 
ENDBRANCH  16  17
ENDBRANCH   3  15
TORSDOF 4
ENDMDL
MODEL 4
REMARK VINA RESULT:      -6.8      3.066      4.521
REMARK  Name = 
REMARK  4 active torsions:
REMARK  status: ('A' for Active; 'I' for Inactive)
REMARK    1  A    between atoms: C_2  and  C_13
REMARK    2  A    between atoms: N_3  and  N_4
REMARK    3  A    between atoms: C_5  and  C_6
REMARK    4  A    between atoms: C_17  and  N_18
REMARK                            x       y       z     vdW  Elec       q    Type
REMARK                         _______ _______ _______ _____ _____    ______ ____
ROOT
ATOM      1  O   UNL     1       1.531   6.167  20.771  0.00  0.00    +0.000 OA
ATOM      2  C   UNL     1       2.233   6.628  19.872  0.00  0.00    +0.000 C 
ATOM      3  N   UNL     1       3.321   5.939  19.346  0.00  0.00    +0.000 N 
ATOM      4  H   UNL     1       3.845   6.347  18.580  0.00  0.00    +0.000 HD
ENDROOT
BRANCH   2   5
ATOM      5  C   UNL     1       2.027   7.964  19.321  0.00  0.00    +0.000 A 
ATOM      6  S   UNL     1       2.642   8.362  17.764  0.00  0.00    +0.000 S 
ATOM      7  C   UNL     1       1.790   9.840  17.724  0.00  0.00    +0.000 A 
ATOM      8  C   UNL     1       1.089  10.063  18.887  0.00  0.00    +0.000 A 
ATOM      9  C   UNL     1       1.284   9.015  19.845  0.00  0.00    +0.000 A 
BRANCH   9  10
ATOM     10  N   UNL     1       0.749   9.071  21.173  0.00  0.00    +0.000 N 
ATOM     11  C   UNL     1      -0.556   8.821  21.547  0.00  0.00    +0.000 A 
ATOM     12  C   UNL     1      -0.680   8.996  22.907  0.00  0.00    +0.000 A 
ATOM     13  C   UNL     1       0.598   9.327  23.400  0.00  0.00    +0.000 A 
ATOM     14  C   UNL     1       1.466   9.311  22.329  0.00  0.00    +0.000 A 
ENDBRANCH   9  10
ENDBRANCH   2   5
BRANCH   3  15
ATOM     15  N   UNL     1       3.729   4.766  19.904  0.00  0.00    +0.000 NA
ATOM     16  C   UNL     1       4.514   3.982  19.224  0.00  0.00    +0.000 C 
BRANCH  16  17
ATOM     17  C   UNL     1       5.187   4.253  17.938  0.00  0.00    +0.000 A 
ATOM     18  C   UNL     1       4.513   4.112  16.717  0.00  0.00    +0.000 A 
ATOM     19  C   UNL     1       5.208   4.274  15.520  0.00  0.00    +0.000 A 
ATOM     20  C   UNL     1       6.555   4.635  15.546  0.00  0.00    +0.000 A 
ATOM     21 CL   UNL     1       7.421   4.796  14.070  0.00  0.00    +0.000 Cl
ATOM     22  C   UNL     1       7.204   4.860  16.761  0.00  0.00    +0.000 A 
ATOM     23  C   UNL     1       6.518   4.672  17.964  0.00  0.00    +0.000 A 
ENDBRANCH  16  17
ENDBRANCH   3  15
TORSDOF 4
ENDMDL
MODEL 5
REMARK VINA RESULT:      -6.8      2.830      5.832
REMARK  Name = 
REMARK  4 active torsions:
REMARK  status: ('A' for Active; 'I' for Inactive)
REMARK    1  A    between atoms: C_2  and  C_13
REMARK    2  A    between atoms: N_3  and  N_4
REMARK    3  A    between atoms: C_5  and  C_6
REMARK    4  A    between atoms: C_17  and  N_18
REMARK                            x       y       z     vdW  Elec       q    Type
REMARK                         _______ _______ _______ _____ _____    ______ ____
ROOT
ATOM      1  O   UNL     1       1.556   5.316  17.487  0.00  0.00    +0.000 OA
ATOM      2  C   UNL     1       2.429   5.568  18.317  0.00  0.00    +0.000 C 
ATOM      3  N   UNL     1       2.989   6.834  18.452  0.00  0.00    +0.000 N 
ATOM      4  H   UNL     1       3.679   6.999  19.176  0.00  0.00    +0.000 HD
ENDROOT
BRANCH   2   5
ATOM      5  C   UNL     1       3.002   4.547  19.189  0.00  0.00    +0.000 A 
ATOM      6  S   UNL     1       2.156   4.041  20.599  0.00  0.00    +0.000 S 
ATOM      7  C   UNL     1       3.225   2.737  20.862  0.00  0.00    +0.000 A 
ATOM      8  C   UNL     1       4.240   2.707  19.933  0.00  0.00    +0.000 A 
ATOM      9  C   UNL     1       4.158   3.797  19.007  0.00  0.00    +0.000 A 
BRANCH   9  10
ATOM     10  N   UNL     1       5.160   4.047  18.015  0.00  0.00    +0.000 N 
ATOM     11  C   UNL     1       5.057   3.805  16.660  0.00  0.00    +0.000 A 
ATOM     12  C   UNL     1       6.236   4.160  16.045  0.00  0.00    +0.000 A 
ATOM     13  C   UNL     1       7.087   4.675  17.044  0.00  0.00    +0.000 A 
ATOM     14  C   UNL     1       6.386   4.649  18.230  0.00  0.00    +0.000 A 
ENDBRANCH   9  10
ENDBRANCH   2   5
BRANCH   3  15
ATOM     15  N   UNL     1       2.674   7.824  17.572  0.00  0.00    +0.000 NA
ATOM     16  C   UNL     1       1.880   8.782  17.954  0.00  0.00    +0.000 C 
BRANCH  16  17
ATOM     17  C   UNL     1       1.365   9.055  19.310  0.00  0.00    +0.000 A 
ATOM     18  C   UNL     1       1.668   8.215  20.391  0.00  0.00    +0.000 A 
ATOM     19  C   UNL     1       1.079   8.445  21.633  0.00  0.00    +0.000 A 
ATOM     20  C   UNL     1       0.239   9.544  21.807  0.00  0.00    +0.000 A 
ATOM     21 CL   UNL     1      -0.518   9.803  23.328  0.00  0.00    +0.000 Cl
ATOM     22  C   UNL     1       0.005  10.429  20.754  0.00  0.00    +0.000 A 
ATOM     23  C   UNL     1       0.572  10.188  19.499  0.00  0.00    +0.000 A 
ENDBRANCH  16  17
ENDBRANCH   3  15
TORSDOF 4
ENDMDL
MODEL 6
REMARK VINA RESULT:      -6.7      3.198      6.196
REMARK  Name = 
REMARK  4 active torsions:
REMARK  status: ('A' for Active; 'I' for Inactive)
REMARK    1  A    between atoms: C_2  and  C_13
REMARK    2  A    between atoms: N_3  and  N_4
REMARK    3  A    between atoms: C_5  and  C_6
REMARK    4  A    between atoms: C_17  and  N_18
REMARK                            x       y       z     vdW  Elec       q    Type
REMARK                         _______ _______ _______ _____ _____    ______ ____
ROOT
ATOM      1  O   UNL     1       4.147   6.677  16.965  0.00  0.00    +0.000 OA
ATOM      2  C   UNL     1       3.310   6.530  17.856  0.00  0.00    +0.000 C 
ATOM      3  N   UNL     1       2.319   7.471  18.112  0.00  0.00    +0.000 N 
ATOM      4  H   UNL     1       1.630   7.286  18.833  0.00  0.00    +0.000 HD
ENDROOT
BRANCH   2   5
ATOM      5  C   UNL     1       3.323   5.388  18.765  0.00  0.00    +0.000 A 
ATOM      6  S   UNL     1       1.871   4.878  19.534  0.00  0.00    +0.000 S 
ATOM      7  C   UNL     1       2.593   3.444  20.111  0.00  0.00    +0.000 A 
ATOM      8  C   UNL     1       3.927   3.367  19.777  0.00  0.00    +0.000 A 
ATOM      9  C   UNL     1       4.372   4.526  19.063  0.00  0.00    +0.000 A 
BRANCH   9  10
ATOM     10  N   UNL     1       5.743   4.733  18.701  0.00  0.00    +0.000 N 
ATOM     11  C   UNL     1       6.381   4.250  17.577  0.00  0.00    +0.000 A 
ATOM     12  C   UNL     1       7.699   4.648  17.597  0.00  0.00    +0.000 A 
ATOM     13  C   UNL     1       7.877   5.436  18.751  0.00  0.00    +0.000 A 
ATOM     14  C   UNL     1       6.653   5.521  19.381  0.00  0.00    +0.000 A 
ENDBRANCH   9  10
ENDBRANCH   2   5
BRANCH   3  15
ATOM     15  N   UNL     1       2.315   8.665  17.457  0.00  0.00    +0.000 NA
ATOM     16  C   UNL     1       1.626   9.654  17.948  0.00  0.00    +0.000 C 
BRANCH  16  17
ATOM     17  C   UNL     1       0.936   9.729  19.251  0.00  0.00    +0.000 A 
ATOM     18  C   UNL     1      -0.116  10.628  19.471  0.00  0.00    +0.000 A 
ATOM     19  C   UNL     1      -0.674  10.745  20.743  0.00  0.00    +0.000 A 
ATOM     20  C   UNL     1      -0.220   9.923  21.774  0.00  0.00    +0.000 A 
ATOM     21 CL   UNL     1      -0.880  10.096  23.352  0.00  0.00    +0.000 Cl
ATOM     22  C   UNL     1       0.769   8.968  21.535  0.00  0.00    +0.000 A 
ATOM     23  C   UNL     1       1.349   8.866  20.268  0.00  0.00    +0.000 A 
ENDBRANCH  16  17
ENDBRANCH   3  15
TORSDOF 4
ENDMDL
MODEL 7
REMARK VINA RESULT:      -6.7      2.975      3.772
REMARK  Name = 
REMARK  4 active torsions:
REMARK  status: ('A' for Active; 'I' for Inactive)
REMARK    1  A    between atoms: C_2  and  C_13
REMARK    2  A    between atoms: N_3  and  N_4
REMARK    3  A    between atoms: C_5  and  C_6
REMARK    4  A    between atoms: C_17  and  N_18
REMARK                            x       y       z     vdW  Elec       q    Type
REMARK                         _______ _______ _______ _____ _____    ______ ____
ROOT
ATOM      1  O   UNL     1       5.586   5.197  19.771  0.00  0.00    +0.000 OA
ATOM      2  C   UNL     1       5.192   4.392  18.928  0.00  0.00    +0.000 C 
ATOM      3  N   UNL     1       5.955   4.035  17.822  0.00  0.00    +0.000 N 
ATOM      4  H   UNL     1       5.601   3.339  17.175  0.00  0.00    +0.000 HD
ENDROOT
BRANCH   2   5
ATOM      5  C   UNL     1       3.864   3.789  18.979  0.00  0.00    +0.000 A 
ATOM      6  S   UNL     1       3.686   2.080  18.883  0.00  0.00    +0.000 S 
ATOM      7  C   UNL     1       2.032   2.155  19.297  0.00  0.00    +0.000 A 
ATOM      8  C   UNL     1       1.599   3.452  19.456  0.00  0.00    +0.000 A 
ATOM      9  C   UNL     1       2.637   4.404  19.199  0.00  0.00    +0.000 A 
BRANCH   9  10
ATOM     10  N   UNL     1       2.406   5.818  19.192  0.00  0.00    +0.000 N 
ATOM     11  C   UNL     1       2.496   6.663  18.104  0.00  0.00    +0.000 A 
ATOM     12  C   UNL     1       2.220   7.950  18.505  0.00  0.00    +0.000 A 
ATOM     13  C   UNL     1       1.911   7.899  19.879  0.00  0.00    +0.000 A 
ATOM     14  C   UNL     1       1.976   6.577  20.264  0.00  0.00    +0.000 A 
ENDBRANCH   9  10
ENDBRANCH   2   5
BRANCH   3  15
ATOM     15  N   UNL     1       7.132   4.669  17.562  0.00  0.00    +0.000 NA
ATOM     16  C   UNL     1       7.519   4.804  16.327  0.00  0.00    +0.000 C 
BRANCH  16  17
ATOM     17  C   UNL     1       6.767   4.496  15.095  0.00  0.00    +0.000 A 
ATOM     18  C   UNL     1       5.395   4.207  15.128  0.00  0.00    +0.000 A 
ATOM     19  C   UNL     1       4.741   3.818  13.960  0.00  0.00    +0.000 A 
ATOM     20  C   UNL     1       5.443   3.777  12.755  0.00  0.00    +0.000 A 
ATOM     21 CL   UNL     1       4.644   3.258  11.325  0.00  0.00    +0.000 Cl
ATOM     22  C   UNL     1       6.787   4.148  12.707  0.00  0.00    +0.000 A 
ATOM     23  C   UNL     1       7.454   4.512  13.880  0.00  0.00    +0.000 A 
ENDBRANCH  16  17
ENDBRANCH   3  15
TORSDOF 4
ENDMDL
MODEL 8
REMARK VINA RESULT:      -6.7      2.833      5.770
REMARK  Name = 
REMARK  4 active torsions:
REMARK  status: ('A' for Active; 'I' for Inactive)
REMARK    1  A    between atoms: C_2  and  C_13
REMARK    2  A    between atoms: N_3  and  N_4
REMARK    3  A    between atoms: C_5  and  C_6
REMARK    4  A    between atoms: C_17  and  N_18
REMARK                            x       y       z     vdW  Elec       q    Type
REMARK                         _______ _______ _______ _____ _____    ______ ____
ROOT
ATOM      1  O   UNL     1       1.608   5.439  17.464  0.00  0.00    +0.000 OA
ATOM      2  C   UNL     1       2.460   5.662  18.324  0.00  0.00    +0.000 C 
ATOM      3  N   UNL     1       3.033   6.917  18.499  0.00  0.00    +0.000 N 
ATOM      4  H   UNL     1       3.705   7.058  19.246  0.00  0.00    +0.000 HD
ENDROOT
BRANCH   2   5
ATOM      5  C   UNL     1       2.993   4.617  19.192  0.00  0.00    +0.000 A 
ATOM      6  S   UNL     1       2.118   4.125  20.590  0.00  0.00    +0.000 S 
ATOM      7  C   UNL     1       3.143   2.786  20.851  0.00  0.00    +0.000 A 
ATOM      8  C   UNL     1       4.166   2.732  19.931  0.00  0.00    +0.000 A 
ATOM      9  C   UNL     1       4.127   3.833  19.015  0.00  0.00    +0.000 A 
BRANCH   9  10
ATOM     10  N   UNL     1       5.146   4.060  18.034  0.00  0.00    +0.000 N 
ATOM     11  C   UNL     1       5.059   3.805  16.680  0.00  0.00    +0.000 A 
ATOM     12  C   UNL     1       6.251   4.139  16.078  0.00  0.00    +0.000 A 
ATOM     13  C   UNL     1       7.093   4.655  17.084  0.00  0.00    +0.000 A 
ATOM     14  C   UNL     1       6.375   4.650  18.261  0.00  0.00    +0.000 A 
ENDBRANCH   9  10
ENDBRANCH   2   5
BRANCH   3  15
ATOM     15  N   UNL     1       2.758   7.928  17.629  0.00  0.00    +0.000 NA
ATOM     16  C   UNL     1       1.894   8.839  17.971  0.00  0.00    +0.000 C 
BRANCH  16  17
ATOM     17  C   UNL     1       1.247   9.039  19.283  0.00  0.00    +0.000 A 
ATOM     18  C   UNL     1       0.199   9.954  19.450  0.00  0.00    +0.000 A 
ATOM     19  C   UNL     1      -0.317  10.192  20.723  0.00  0.00    +0.000 A 
ATOM     20  C   UNL     1       0.174   9.474  21.813  0.00  0.00    +0.000 A 
ATOM     21 CL   UNL     1      -0.435   9.798  23.387  0.00  0.00    +0.000 Cl
ATOM     22  C   UNL     1       1.158   8.501  21.634  0.00  0.00    +0.000 A 
ATOM     23  C   UNL     1       1.697   8.278  20.363  0.00  0.00    +0.000 A 
ENDBRANCH  16  17
ENDBRANCH   3  15
TORSDOF 4
ENDMDL
MODEL 9
REMARK VINA RESULT:      -6.6      4.793      6.874
REMARK  Name = 
REMARK  4 active torsions:
REMARK  status: ('A' for Active; 'I' for Inactive)
REMARK    1  A    between atoms: C_2  and  C_13
REMARK    2  A    between atoms: N_3  and  N_4
REMARK    3  A    between atoms: C_5  and  C_6
REMARK    4  A    between atoms: C_17  and  N_18
REMARK                            x       y       z     vdW  Elec       q    Type
REMARK                         _______ _______ _______ _____ _____    ______ ____
ROOT
ATOM      1  O   UNL     1       2.070  11.127  18.073  0.00  0.00    +0.000 OA
ATOM      2  C   UNL     1       1.440  10.291  18.721  0.00  0.00    +0.000 C 
ATOM      3  N   UNL     1       1.657   8.924  18.589  0.00  0.00    +0.000 N 
ATOM      4  H   UNL     1       1.139   8.278  19.174  0.00  0.00    +0.000 HD
ENDROOT
BRANCH   2   5
ATOM      5  C   UNL     1       0.366  10.656  19.640  0.00  0.00    +0.000 A 
ATOM      6  S   UNL     1       0.691  10.848  21.319  0.00  0.00    +0.000 S 
ATOM      7  C   UNL     1      -0.848  11.521  21.615  0.00  0.00    +0.000 A 
ATOM      8  C   UNL     1      -1.624  11.557  20.479  0.00  0.00    +0.000 A 
ATOM      9  C   UNL     1      -0.952  10.988  19.348  0.00  0.00    +0.000 A 
BRANCH   9  10
ATOM     10  N   UNL     1      -1.590  10.810  18.078  0.00  0.00    +0.000 N 
ATOM     11  C   UNL     1      -1.661   9.641  17.347  0.00  0.00    +0.000 A 
ATOM     12  C   UNL     1      -2.339   9.880  16.174  0.00  0.00    +0.000 A 
ATOM     13  C   UNL     1      -2.737  11.232  16.192  0.00  0.00    +0.000 A 
ATOM     14  C   UNL     1      -2.316  11.765  17.392  0.00  0.00    +0.000 A 
ENDBRANCH   9  10
ENDBRANCH   2   5
BRANCH   3  15
ATOM     15  N   UNL     1       2.499   8.449  17.630  0.00  0.00    +0.000 NA
ATOM     16  C   UNL     1       2.885   7.208  17.685  0.00  0.00    +0.000 C 
BRANCH  16  17
ATOM     17  C   UNL     1       2.406   6.141  18.585  0.00  0.00    +0.000 A 
ATOM     18  C   UNL     1       2.430   6.293  19.978  0.00  0.00    +0.000 A 
ATOM     19  C   UNL     1       2.068   5.226  20.798  0.00  0.00    +0.000 A 
ATOM     20  C   UNL     1       1.627   4.033  20.226  0.00  0.00    +0.000 A 
ATOM     21 CL   UNL     1       1.220   2.705  21.239  0.00  0.00    +0.000 Cl
ATOM     22  C   UNL     1       1.522   3.910  18.840  0.00  0.00    +0.000 A 
ATOM     23  C   UNL     1       1.909   4.968  18.014  0.00  0.00    +0.000 A 
ENDBRANCH  16  17
ENDBRANCH   3  15
TORSDOF 4
ENDMDL
