MODEL 1
REMARK VINA RESULT:      -7.4      0.000      0.000
REMARK  Name = 
REMARK  8 active torsions:
REMARK  status: ('A' for Active; 'I' for Inactive)
REMARK    1  A    between atoms: C_1  and  O_2
REMARK    2  A    between atoms: O_2  and  C_3
REMARK    3  A    between atoms: C_3  and  C_5
REMARK    4  A    between atoms: C_6  and  C_7
REMARK    5  A    between atoms: C_9  and  S_10
REMARK    6  A    between atoms: S_10  and  C_11
REMARK    7  A    between atoms: C_13  and  C_14
REMARK    8  A    between atoms: C_18  and  N_19
REMARK                            x       y       z     vdW  Elec       q    Type
REMARK                         _______ _______ _______ _____ _____    ______ ____
ROOT
ATOM      1  C   UNL     1       2.754   3.875  19.140  0.00  0.00    +0.000 C 
ATOM      2  C   UNL     1       2.358   4.409  20.319  0.00  0.00    +0.000 C 
ATOM      3  C   UNL     1       2.108   3.669  21.609  0.00  0.00    +0.000 C 
ATOM      4  N   UNL     1       2.148   5.769  20.476  0.00  0.00    +0.000 NA
ATOM      5  C   UNL     1       2.181   6.505  19.417  0.00  0.00    +0.000 C 
ATOM      6  N   UNL     1       2.418   6.071  18.154  0.00  0.00    +0.000 N 
ATOM      7  C   UNL     1       2.972   4.749  17.931  0.00  0.00    +0.000 C 
ATOM      8  H   UNL     1       2.670   6.790  17.488  0.00  0.00    +0.000 HD
ENDROOT
BRANCH   7   9
ATOM      9  C   UNL     1       4.437   4.912  17.535  0.00  0.00    +0.000 A 
ATOM     10  C   UNL     1       4.911   4.459  16.289  0.00  0.00    +0.000 A 
ATOM     11  C   UNL     1       6.271   4.502  15.973  0.00  0.00    +0.000 A 
ATOM     12  C   UNL     1       7.187   5.002  16.897  0.00  0.00    +0.000 A 
ATOM     13  C   UNL     1       6.728   5.484  18.128  0.00  0.00    +0.000 A 
ATOM     14  C   UNL     1       5.361   5.449  18.448  0.00  0.00    +0.000 A 
BRANCH  13  15
ATOM     15  N   UNL     1       7.690   6.009  19.107  0.00  0.00    +0.000 N 
ATOM     16  O   UNL     1       8.336   7.020  18.794  0.00  0.00    +0.000 OA
ATOM     17  O   UNL     1       7.800   5.407  20.186  0.00  0.00    +0.000 OA
ENDBRANCH  13  15
ENDBRANCH   7   9
BRANCH   1  18
ATOM     18  C   UNL     1       2.994   2.422  18.946  0.00  0.00    +0.000 C 
ATOM     19  O   UNL     1       3.938   1.793  19.396  0.00  0.00    +0.000 OA
BRANCH  18  21
ATOM     20  C   UNL     1       0.688   2.071  18.699  0.00  0.00    +0.000 C 
ATOM     21  O   UNL     1       2.007   1.882  18.180  0.00  0.00    +0.000 OA
ENDBRANCH  18  21
ENDBRANCH   1  18
BRANCH   5  22
ATOM     22  S   UNL     1       1.940   8.233  19.534  0.00  0.00    +0.000 S 
ATOM     23  C   UNL     1       2.226   8.729  17.819  0.00  0.00    +0.000 C 
ENDBRANCH   5  22
TORSDOF 5
ENDMDL
MODEL 2
REMARK VINA RESULT:      -7.4      0.513      1.123
REMARK  Name = 
REMARK  8 active torsions:
REMARK  status: ('A' for Active; 'I' for Inactive)
REMARK    1  A    between atoms: C_1  and  O_2
REMARK    2  A    between atoms: O_2  and  C_3
REMARK    3  A    between atoms: C_3  and  C_5
REMARK    4  A    between atoms: C_6  and  C_7
REMARK    5  A    between atoms: C_9  and  S_10
REMARK    6  A    between atoms: S_10  and  C_11
REMARK    7  A    between atoms: C_13  and  C_14
REMARK    8  A    between atoms: C_18  and  N_19
REMARK                            x       y       z     vdW  Elec       q    Type
REMARK                         _______ _______ _______ _____ _____    ______ ____
ROOT
ATOM      1  C   UNL     1       2.562   3.881  19.044  0.00  0.00    +0.000 C 
ATOM      2  C   UNL     1       2.164   4.423  20.219  0.00  0.00    +0.000 C 
ATOM      3  C   UNL     1       1.826   3.683  21.489  0.00  0.00    +0.000 C 
ATOM      4  N   UNL     1       2.037   5.792  20.391  0.00  0.00    +0.000 NA
ATOM      5  C   UNL     1       2.150   6.538  19.345  0.00  0.00    +0.000 C 
ATOM      6  N   UNL     1       2.399   6.107  18.083  0.00  0.00    +0.000 N 
ATOM      7  C   UNL     1       2.874   4.756  17.856  0.00  0.00    +0.000 C 
ATOM      8  H   UNL     1       2.717   6.818  17.437  0.00  0.00    +0.000 HD
ENDROOT
BRANCH   7   9
ATOM      9  C   UNL     1       4.359   4.830  17.508  0.00  0.00    +0.000 A 
ATOM     10  C   UNL     1       4.858   4.269  16.318  0.00  0.00    +0.000 A 
ATOM     11  C   UNL     1       6.229   4.234  16.054  0.00  0.00    +0.000 A 
ATOM     12  C   UNL     1       7.132   4.762  16.976  0.00  0.00    +0.000 A 
ATOM     13  C   UNL     1       6.649   5.350  18.151  0.00  0.00    +0.000 A 
ATOM     14  C   UNL     1       5.271   5.395  18.418  0.00  0.00    +0.000 A 
BRANCH  13  15
ATOM     15  N   UNL     1       7.596   5.906  19.127  0.00  0.00    +0.000 N 
ATOM     16  O   UNL     1       8.255   6.901  18.789  0.00  0.00    +0.000 OA
ATOM     17  O   UNL     1       7.682   5.344  20.229  0.00  0.00    +0.000 OA
ENDBRANCH  13  15
ENDBRANCH   7   9
BRANCH   1  18
ATOM     18  C   UNL     1       2.715   2.418  18.835  0.00  0.00    +0.000 C 
ATOM     19  O   UNL     1       1.801   1.623  18.696  0.00  0.00    +0.000 OA
BRANCH  18  21
ATOM     20  C   UNL     1       4.601   1.888  20.126  0.00  0.00    +0.000 C 
ATOM     21  O   UNL     1       4.034   2.081  18.827  0.00  0.00    +0.000 OA
ENDBRANCH  18  21
ENDBRANCH   1  18
BRANCH   5  22
ATOM     22  S   UNL     1       2.016   8.277  19.483  0.00  0.00    +0.000 S 
ATOM     23  C   UNL     1       1.929   8.745  17.739  0.00  0.00    +0.000 C 
ENDBRANCH   5  22
TORSDOF 5
ENDMDL
MODEL 3
REMARK VINA RESULT:      -7.4      1.938      2.254
REMARK  Name = 
REMARK  8 active torsions:
REMARK  status: ('A' for Active; 'I' for Inactive)
REMARK    1  A    between atoms: C_1  and  O_2
REMARK    2  A    between atoms: O_2  and  C_3
REMARK    3  A    between atoms: C_3  and  C_5
REMARK    4  A    between atoms: C_6  and  C_7
REMARK    5  A    between atoms: C_9  and  S_10
REMARK    6  A    between atoms: S_10  and  C_11
REMARK    7  A    between atoms: C_13  and  C_14
REMARK    8  A    between atoms: C_18  and  N_19
REMARK                            x       y       z     vdW  Elec       q    Type
REMARK                         _______ _______ _______ _____ _____    ______ ____
ROOT
ATOM      1  C   UNL     1       2.873   3.919  19.179  0.00  0.00    +0.000 C 
ATOM      2  C   UNL     1       2.407   4.437  20.339  0.00  0.00    +0.000 C 
ATOM      3  C   UNL     1       2.111   3.685  21.612  0.00  0.00    +0.000 C 
ATOM      4  N   UNL     1       2.155   5.791  20.491  0.00  0.00    +0.000 NA
ATOM      5  C   UNL     1       2.222   6.533  19.438  0.00  0.00    +0.000 C 
ATOM      6  N   UNL     1       2.532   6.112  18.186  0.00  0.00    +0.000 N 
ATOM      7  C   UNL     1       3.128   4.805  17.985  0.00  0.00    +0.000 C 
ATOM      8  H   UNL     1       2.798   6.841  17.537  0.00  0.00    +0.000 HD
ENDROOT
BRANCH   7   9
ATOM      9  C   UNL     1       4.607   5.006  17.663  0.00  0.00    +0.000 A 
ATOM     10  C   UNL     1       5.497   5.532  18.618  0.00  0.00    +0.000 A 
ATOM     11  C   UNL     1       6.823   5.825  18.288  0.00  0.00    +0.000 A 
ATOM     12  C   UNL     1       7.287   5.594  16.994  0.00  0.00    +0.000 A 
ATOM     13  C   UNL     1       6.423   5.043  16.041  0.00  0.00    +0.000 A 
ATOM     14  C   UNL     1       5.091   4.740  16.370  0.00  0.00    +0.000 A 
BRANCH  13  15
ATOM     15  N   UNL     1       6.907   4.800  14.675  0.00  0.00    +0.000 N 
ATOM     16  O   UNL     1       7.849   5.496  14.266  0.00  0.00    +0.000 OA
ATOM     17  O   UNL     1       6.343   3.917  14.013  0.00  0.00    +0.000 OA
ENDBRANCH  13  15
ENDBRANCH   7   9
BRANCH   1  18
ATOM     18  C   UNL     1       3.158   2.474  18.991  0.00  0.00    +0.000 C 
ATOM     19  O   UNL     1       4.112   1.873  19.458  0.00  0.00    +0.000 OA
BRANCH  18  21
ATOM     20  C   UNL     1       0.863   2.108  18.673  0.00  0.00    +0.000 C 
ATOM     21  O   UNL     1       2.201   1.905  18.209  0.00  0.00    +0.000 OA
ENDBRANCH  18  21
ENDBRANCH   1  18
BRANCH   5  22
ATOM     22  S   UNL     1       1.933   8.254  19.550  0.00  0.00    +0.000 S 
ATOM     23  C   UNL     1       2.004   8.721  17.805  0.00  0.00    +0.000 C 
ENDBRANCH   5  22
TORSDOF 5
ENDMDL
MODEL 4
REMARK VINA RESULT:      -7.3      3.357      5.315
REMARK  Name = 
REMARK  8 active torsions:
REMARK  status: ('A' for Active; 'I' for Inactive)
REMARK    1  A    between atoms: C_1  and  O_2
REMARK    2  A    between atoms: O_2  and  C_3
REMARK    3  A    between atoms: C_3  and  C_5
REMARK    4  A    between atoms: C_6  and  C_7
REMARK    5  A    between atoms: C_9  and  S_10
REMARK    6  A    between atoms: S_10  and  C_11
REMARK    7  A    between atoms: C_13  and  C_14
REMARK    8  A    between atoms: C_18  and  N_19
REMARK                            x       y       z     vdW  Elec       q    Type
REMARK                         _______ _______ _______ _____ _____    ______ ____
ROOT
ATOM      1  C   UNL     1       2.662   4.550  19.212  0.00  0.00    +0.000 C 
ATOM      2  C   UNL     1       2.867   3.783  18.116  0.00  0.00    +0.000 C 
ATOM      3  C   UNL     1       2.202   2.468  17.795  0.00  0.00    +0.000 C 
ATOM      4  N   UNL     1       3.744   4.156  17.111  0.00  0.00    +0.000 NA
ATOM      5  C   UNL     1       4.492   5.186  17.322  0.00  0.00    +0.000 C 
ATOM      6  N   UNL     1       4.492   5.952  18.441  0.00  0.00    +0.000 N 
ATOM      7  C   UNL     1       3.401   5.853  19.391  0.00  0.00    +0.000 C 
ATOM      8  H   UNL     1       4.935   6.857  18.347  0.00  0.00    +0.000 HD
ENDROOT
BRANCH   7   9
ATOM      9  C   UNL     1       2.525   7.093  19.235  0.00  0.00    +0.000 A 
ATOM     10  C   UNL     1       2.409   7.753  17.997  0.00  0.00    +0.000 A 
ATOM     11  C   UNL     1       1.702   8.953  17.880  0.00  0.00    +0.000 A 
ATOM     12  C   UNL     1       1.092   9.516  19.000  0.00  0.00    +0.000 A 
ATOM     13  C   UNL     1       1.172   8.856  20.231  0.00  0.00    +0.000 A 
ATOM     14  C   UNL     1       1.876   7.647  20.353  0.00  0.00    +0.000 A 
BRANCH  13  15
ATOM     15  N   UNL     1       0.534   9.447  21.416  0.00  0.00    +0.000 N 
ATOM     16  O   UNL     1      -0.424   8.839  21.918  0.00  0.00    +0.000 OA
ATOM     17  O   UNL     1       0.989  10.520  21.840  0.00  0.00    +0.000 OA
ENDBRANCH  13  15
ENDBRANCH   7   9
BRANCH   1  18
ATOM     18  C   UNL     1       1.723   4.178  20.300  0.00  0.00    +0.000 C 
ATOM     19  O   UNL     1       0.506   4.153  20.209  0.00  0.00    +0.000 OA
BRANCH  18  21
ATOM     20  C   UNL     1       2.649   2.474  21.619  0.00  0.00    +0.000 C 
ATOM     21  O   UNL     1       2.414   3.872  21.432  0.00  0.00    +0.000 OA
ENDBRANCH  18  21
ENDBRANCH   1  18
BRANCH   5  22
ATOM     22  S   UNL     1       5.615   5.729  16.096  0.00  0.00    +0.000 S 
ATOM     23  C   UNL     1       6.989   4.586  16.369  0.00  0.00    +0.000 C 
ENDBRANCH   5  22
TORSDOF 5
ENDMDL
MODEL 5
REMARK VINA RESULT:      -7.2      3.367      5.126
REMARK  Name = 
REMARK  8 active torsions:
REMARK  status: ('A' for Active; 'I' for Inactive)
REMARK    1  A    between atoms: C_1  and  O_2
REMARK    2  A    between atoms: O_2  and  C_3
REMARK    3  A    between atoms: C_3  and  C_5
REMARK    4  A    between atoms: C_6  and  C_7
REMARK    5  A    between atoms: C_9  and  S_10
REMARK    6  A    between atoms: S_10  and  C_11
REMARK    7  A    between atoms: C_13  and  C_14
REMARK    8  A    between atoms: C_18  and  N_19
REMARK                            x       y       z     vdW  Elec       q    Type
REMARK                         _______ _______ _______ _____ _____    ______ ____
ROOT
ATOM      1  C   UNL     1       2.729   4.126  19.226  0.00  0.00    +0.000 C 
ATOM      2  C   UNL     1       3.354   3.428  18.249  0.00  0.00    +0.000 C 
ATOM      3  C   UNL     1       2.860   2.173  17.576  0.00  0.00    +0.000 C 
ATOM      4  N   UNL     1       4.572   3.828  17.726  0.00  0.00    +0.000 NA
ATOM      5  C   UNL     1       5.183   4.803  18.310  0.00  0.00    +0.000 C 
ATOM      6  N   UNL     1       4.735   5.488  19.391  0.00  0.00    +0.000 N 
ATOM      7  C   UNL     1       3.348   5.375  19.801  0.00  0.00    +0.000 C 
ATOM      8  H   UNL     1       5.191   6.375  19.562  0.00  0.00    +0.000 HD
ENDROOT
BRANCH   7   9
ATOM      9  C   UNL     1       2.633   6.664  19.404  0.00  0.00    +0.000 A 
ATOM     10  C   UNL     1       2.694   7.158  18.088  0.00  0.00    +0.000 A 
ATOM     11  C   UNL     1       2.139   8.395  17.751  0.00  0.00    +0.000 A 
ATOM     12  C   UNL     1       1.506   9.165  18.727  0.00  0.00    +0.000 A 
ATOM     13  C   UNL     1       1.410   8.674  20.034  0.00  0.00    +0.000 A 
ATOM     14  C   UNL     1       1.961   7.428  20.376  0.00  0.00    +0.000 A 
BRANCH  13  15
ATOM     15  N   UNL     1       0.747   9.483  21.066  0.00  0.00    +0.000 N 
ATOM     16  O   UNL     1       1.372   9.702  22.115  0.00  0.00    +0.000 OA
ATOM     17  O   UNL     1      -0.398   9.894  20.829  0.00  0.00    +0.000 OA
ENDBRANCH  13  15
ENDBRANCH   7   9
BRANCH   1  18
ATOM     18  C   UNL     1       1.419   3.724  19.800  0.00  0.00    +0.000 C 
ATOM     19  O   UNL     1       0.443   3.370  19.160  0.00  0.00    +0.000 OA
BRANCH  18  21
ATOM     20  C   UNL     1       1.746   2.583  21.824  0.00  0.00    +0.000 C 
ATOM     21  O   UNL     1       1.454   3.815  21.158  0.00  0.00    +0.000 OA
ENDBRANCH  18  21
ENDBRANCH   1  18
BRANCH   5  22
ATOM     22  S   UNL     1       6.719   5.375  17.700  0.00  0.00    +0.000 S 
ATOM     23  C   UNL     1       7.572   5.761  19.246  0.00  0.00    +0.000 C 
ENDBRANCH   5  22
TORSDOF 5
ENDMDL
MODEL 6
REMARK VINA RESULT:      -7.2      1.932      2.442
REMARK  Name = 
REMARK  8 active torsions:
REMARK  status: ('A' for Active; 'I' for Inactive)
REMARK    1  A    between atoms: C_1  and  O_2
REMARK    2  A    between atoms: O_2  and  C_3
REMARK    3  A    between atoms: C_3  and  C_5
REMARK    4  A    between atoms: C_6  and  C_7
REMARK    5  A    between atoms: C_9  and  S_10
REMARK    6  A    between atoms: S_10  and  C_11
REMARK    7  A    between atoms: C_13  and  C_14
REMARK    8  A    between atoms: C_18  and  N_19
REMARK                            x       y       z     vdW  Elec       q    Type
REMARK                         _______ _______ _______ _____ _____    ______ ____
ROOT
ATOM      1  C   UNL     1       2.388   3.950  18.866  0.00  0.00    +0.000 C 
ATOM      2  C   UNL     1       1.867   4.328  20.056  0.00  0.00    +0.000 C 
ATOM      3  C   UNL     1       1.366   3.423  21.153  0.00  0.00    +0.000 C 
ATOM      4  N   UNL     1       1.750   5.661  20.417  0.00  0.00    +0.000 NA
ATOM      5  C   UNL     1       2.002   6.548  19.516  0.00  0.00    +0.000 C 
ATOM      6  N   UNL     1       2.388   6.299  18.240  0.00  0.00    +0.000 N 
ATOM      7  C   UNL     1       2.857   4.978  17.866  0.00  0.00    +0.000 C 
ATOM      8  H   UNL     1       2.796   7.084  17.748  0.00  0.00    +0.000 HD
ENDROOT
BRANCH   7   9
ATOM      9  C   UNL     1       4.373   5.044  17.704  0.00  0.00    +0.000 A 
ATOM     10  C   UNL     1       5.204   5.443  18.767  0.00  0.00    +0.000 A 
ATOM     11  C   UNL     1       6.579   5.616  18.586  0.00  0.00    +0.000 A 
ATOM     12  C   UNL     1       7.152   5.389  17.335  0.00  0.00    +0.000 A 
ATOM     13  C   UNL     1       6.344   4.962  16.276  0.00  0.00    +0.000 A 
ATOM     14  C   UNL     1       4.963   4.781  16.454  0.00  0.00    +0.000 A 
BRANCH  13  15
ATOM     15  N   UNL     1       6.943   4.725  14.955  0.00  0.00    +0.000 N 
ATOM     16  O   UNL     1       7.897   5.442  14.618  0.00  0.00    +0.000 OA
ATOM     17  O   UNL     1       6.456   3.825  14.255  0.00  0.00    +0.000 OA
ENDBRANCH  13  15
ENDBRANCH   7   9
BRANCH   1  18
ATOM     18  C   UNL     1       2.533   2.530  18.456  0.00  0.00    +0.000 C 
ATOM     19  O   UNL     1       2.203   2.066  17.377  0.00  0.00    +0.000 OA
BRANCH  18  21
ATOM     20  C   UNL     1       4.500   1.964  19.603  0.00  0.00    +0.000 C 
ATOM     21  O   UNL     1       3.085   1.804  19.467  0.00  0.00    +0.000 OA
ENDBRANCH  18  21
ENDBRANCH   1  18
BRANCH   5  22
ATOM     22  S   UNL     1       1.892   8.251  19.898  0.00  0.00    +0.000 S 
ATOM     23  C   UNL     1       1.905   8.969  18.239  0.00  0.00    +0.000 C 
ENDBRANCH   5  22
TORSDOF 5
ENDMDL
MODEL 7
REMARK VINA RESULT:      -7.1      2.062      2.638
REMARK  Name = 
REMARK  8 active torsions:
REMARK  status: ('A' for Active; 'I' for Inactive)
REMARK    1  A    between atoms: C_1  and  O_2
REMARK    2  A    between atoms: O_2  and  C_3
REMARK    3  A    between atoms: C_3  and  C_5
REMARK    4  A    between atoms: C_6  and  C_7
REMARK    5  A    between atoms: C_9  and  S_10
REMARK    6  A    between atoms: S_10  and  C_11
REMARK    7  A    between atoms: C_13  and  C_14
REMARK    8  A    between atoms: C_18  and  N_19
REMARK                            x       y       z     vdW  Elec       q    Type
REMARK                         _______ _______ _______ _____ _____    ______ ____
ROOT
ATOM      1  C   UNL     1       3.070   3.886  19.265  0.00  0.00    +0.000 C 
ATOM      2  C   UNL     1       2.571   4.433  20.398  0.00  0.00    +0.000 C 
ATOM      3  C   UNL     1       2.358   3.739  21.720  0.00  0.00    +0.000 C 
ATOM      4  N   UNL     1       2.201   5.766  20.469  0.00  0.00    +0.000 NA
ATOM      5  C   UNL     1       2.190   6.443  19.371  0.00  0.00    +0.000 C 
ATOM      6  N   UNL     1       2.523   5.972  18.144  0.00  0.00    +0.000 N 
ATOM      7  C   UNL     1       3.232   4.714  18.014  0.00  0.00    +0.000 C 
ATOM      8  H   UNL     1       2.715   6.680  17.446  0.00  0.00    +0.000 HD
ENDROOT
BRANCH   7   9
ATOM      9  C   UNL     1       4.683   5.025  17.656  0.00  0.00    +0.000 A 
ATOM     10  C   UNL     1       5.531   5.691  18.561  0.00  0.00    +0.000 A 
ATOM     11  C   UNL     1       6.821   6.080  18.191  0.00  0.00    +0.000 A 
ATOM     12  C   UNL     1       7.292   5.806  16.908  0.00  0.00    +0.000 A 
ATOM     13  C   UNL     1       6.472   5.118  16.007  0.00  0.00    +0.000 A 
ATOM     14  C   UNL     1       5.177   4.719  16.375  0.00  0.00    +0.000 A 
BRANCH  13  15
ATOM     15  N   UNL     1       6.963   4.830  14.652  0.00  0.00    +0.000 N 
ATOM     16  O   UNL     1       6.435   3.891  14.036  0.00  0.00    +0.000 OA
ATOM     17  O   UNL     1       7.876   5.540  14.207  0.00  0.00    +0.000 OA
ENDBRANCH  13  15
ENDBRANCH   7   9
BRANCH   1  18
ATOM     18  C   UNL     1       3.482   2.463  19.162  0.00  0.00    +0.000 C 
ATOM     19  O   UNL     1       2.792   1.554  18.732  0.00  0.00    +0.000 OA
BRANCH  18  21
ATOM     20  C   UNL     1       4.868   1.413  20.737  0.00  0.00    +0.000 C 
ATOM     21  O   UNL     1       4.752   2.308  19.628  0.00  0.00    +0.000 OA
ENDBRANCH  18  21
ENDBRANCH   1  18
BRANCH   5  22
ATOM     22  S   UNL     1       1.748   8.135  19.381  0.00  0.00    +0.000 S 
ATOM     23  C   UNL     1       2.399   8.661  17.779  0.00  0.00    +0.000 C 
ENDBRANCH   5  22
TORSDOF 5
ENDMDL
MODEL 8
REMARK VINA RESULT:      -7.0      3.131      5.061
REMARK  Name = 
REMARK  8 active torsions:
REMARK  status: ('A' for Active; 'I' for Inactive)
REMARK    1  A    between atoms: C_1  and  O_2
REMARK    2  A    between atoms: O_2  and  C_3
REMARK    3  A    between atoms: C_3  and  C_5
REMARK    4  A    between atoms: C_6  and  C_7
REMARK    5  A    between atoms: C_9  and  S_10
REMARK    6  A    between atoms: S_10  and  C_11
REMARK    7  A    between atoms: C_13  and  C_14
REMARK    8  A    between atoms: C_18  and  N_19
REMARK                            x       y       z     vdW  Elec       q    Type
REMARK                         _______ _______ _______ _____ _____    ______ ____
ROOT
ATOM      1  C   UNL     1       3.370   4.294  18.042  0.00  0.00    +0.000 C 
ATOM      2  C   UNL     1       4.412   4.106  17.199  0.00  0.00    +0.000 C 
ATOM      3  C   UNL     1       4.412   3.295  15.928  0.00  0.00    +0.000 C 
ATOM      4  N   UNL     1       5.650   4.686  17.421  0.00  0.00    +0.000 NA
ATOM      5  C   UNL     1       5.837   5.285  18.548  0.00  0.00    +0.000 C 
ATOM      6  N   UNL     1       4.922   5.414  19.541  0.00  0.00    +0.000 N 
ATOM      7  C   UNL     1       3.521   5.143  19.279  0.00  0.00    +0.000 C 
ATOM      8  H   UNL     1       5.129   6.123  20.232  0.00  0.00    +0.000 HD
ENDROOT
BRANCH   7   9
ATOM      9  C   UNL     1       2.787   6.480  19.212  0.00  0.00    +0.000 A 
ATOM     10  C   UNL     1       2.852   7.291  18.063  0.00  0.00    +0.000 A 
ATOM     11  C   UNL     1       2.278   8.564  18.042  0.00  0.00    +0.000 A 
ATOM     12  C   UNL     1       1.624   9.054  19.172  0.00  0.00    +0.000 A 
ATOM     13  C   UNL     1       1.524   8.248  20.311  0.00  0.00    +0.000 A 
ATOM     14  C   UNL     1       2.094   6.964  20.335  0.00  0.00    +0.000 A 
BRANCH  13  15
ATOM     15  N   UNL     1       0.839   8.761  21.506  0.00  0.00    +0.000 N 
ATOM     16  O   UNL     1       1.506   9.427  22.312  0.00  0.00    +0.000 OA
ATOM     17  O   UNL     1      -0.365   8.493  21.638  0.00  0.00    +0.000 OA
ENDBRANCH  13  15
ENDBRANCH   7   9
BRANCH   1  18
ATOM     18  C   UNL     1       2.030   3.691  17.825  0.00  0.00    +0.000 C 
ATOM     19  O   UNL     1       1.141   4.167  17.139  0.00  0.00    +0.000 OA
BRANCH  18  21
ATOM     20  C   UNL     1       1.038   2.574  19.634  0.00  0.00    +0.000 C 
ATOM     21  O   UNL     1       1.925   2.521  18.513  0.00  0.00    +0.000 OA
ENDBRANCH  18  21
ENDBRANCH   1  18
BRANCH   5  22
ATOM     22  S   UNL     1       7.368   6.055  18.896  0.00  0.00    +0.000 S 
ATOM     23  C   UNL     1       7.472   7.230  17.526  0.00  0.00    +0.000 C 
ENDBRANCH   5  22
TORSDOF 5
ENDMDL
MODEL 9
REMARK VINA RESULT:      -6.8      3.329      5.769
REMARK  Name = 
REMARK  8 active torsions:
REMARK  status: ('A' for Active; 'I' for Inactive)
REMARK    1  A    between atoms: C_1  and  O_2
REMARK    2  A    between atoms: O_2  and  C_3
REMARK    3  A    between atoms: C_3  and  C_5
REMARK    4  A    between atoms: C_6  and  C_7
REMARK    5  A    between atoms: C_9  and  S_10
REMARK    6  A    between atoms: S_10  and  C_11
REMARK    7  A    between atoms: C_13  and  C_14
REMARK    8  A    between atoms: C_18  and  N_19
REMARK                            x       y       z     vdW  Elec       q    Type
REMARK                         _______ _______ _______ _____ _____    ______ ____
ROOT
ATOM      1  C   UNL     1       5.276   5.631  17.630  0.00  0.00    +0.000 C 
ATOM      2  C   UNL     1       6.169   4.857  18.291  0.00  0.00    +0.000 C 
ATOM      3  C   UNL     1       7.672   4.982  18.260  0.00  0.00    +0.000 C 
ATOM      4  N   UNL     1       5.772   3.824  19.123  0.00  0.00    +0.000 NA
ATOM      5  C   UNL     1       4.521   3.508  19.129  0.00  0.00    +0.000 C 
ATOM      6  N   UNL     1       3.546   4.107  18.400  0.00  0.00    +0.000 N 
ATOM      7  C   UNL     1       3.794   5.388  17.767  0.00  0.00    +0.000 C 
ATOM      8  H   UNL     1       2.600   3.925  18.709  0.00  0.00    +0.000 HD
ENDROOT
BRANCH   7   9
ATOM      9  C   UNL     1       3.057   6.459  18.566  0.00  0.00    +0.000 A 
ATOM     10  C   UNL     1       2.657   6.231  19.896  0.00  0.00    +0.000 A 
ATOM     11  C   UNL     1       1.882   7.165  20.590  0.00  0.00    +0.000 A 
ATOM     12  C   UNL     1       1.493   8.349  19.966  0.00  0.00    +0.000 A 
ATOM     13  C   UNL     1       1.908   8.605  18.655  0.00  0.00    +0.000 A 
ATOM     14  C   UNL     1       2.693   7.673  17.955  0.00  0.00    +0.000 A 
BRANCH  13  15
ATOM     15  N   UNL     1       1.498   9.850  17.992  0.00  0.00    +0.000 N 
ATOM     16  O   UNL     1       0.285  10.110  17.954  0.00  0.00    +0.000 OA
ATOM     17  O   UNL     1       2.387  10.565  17.507  0.00  0.00    +0.000 OA
ENDBRANCH  13  15
ENDBRANCH   7   9
BRANCH   1  18
ATOM     18  C   UNL     1       5.674   6.750  16.738  0.00  0.00    +0.000 C 
ATOM     19  O   UNL     1       6.295   7.743  17.079  0.00  0.00    +0.000 OA
BRANCH  18  21
ATOM     20  C   UNL     1       5.826   5.373  14.845  0.00  0.00    +0.000 C 
ATOM     21  O   UNL     1       5.237   6.516  15.470  0.00  0.00    +0.000 OA
ENDBRANCH  18  21
ENDBRANCH   1  18
BRANCH   5  22
ATOM     22  S   UNL     1       3.939   2.225  20.165  0.00  0.00    +0.000 S 
ATOM     23  C   UNL     1       2.155   2.497  20.066  0.00  0.00    +0.000 C 
ENDBRANCH   5  22
TORSDOF 5
ENDMDL
