MODEL 1
REMARK VINA RESULT:      -9.2      0.000      0.000
REMARK  Name = 
REMARK  5 active torsions:
REMARK  status: ('A' for Active; 'I' for Inactive)
REMARK    1  A    between atoms: C_2  and  O_3
REMARK    2  A    between atoms: C_2  and  C_4
REMARK    3  A    between atoms: C_7  and  C_8
REMARK    4  A    between atoms: C_12  and  C_13
REMARK    5  A    between atoms: C_18  and  N_19
REMARK                            x       y       z     vdW  Elec       q    Type
REMARK                         _______ _______ _______ _____ _____    ______ ____
ROOT
ATOM      1  C   UNL     1       3.289   5.440  18.693  0.00  0.00    +0.000 A 
ATOM      2  C   UNL     1       2.802   4.374  19.471  0.00  0.00    +0.000 A 
ATOM      3  C   UNL     1       1.901   4.582  20.518  0.00  0.00    +0.000 A 
ATOM      4  C   UNL     1       1.471   5.869  20.817  0.00  0.00    +0.000 A 
ATOM      5  C   UNL     1       1.955   6.955  20.082  0.00  0.00    +0.000 A 
ATOM      6  C   UNL     1       2.865   6.735  19.036  0.00  0.00    +0.000 A 
ENDROOT
BRANCH   5   7
ATOM      7  C   UNL     1       1.468   8.312  20.353  0.00  0.00    +0.000 A 
ATOM      8  C   UNL     1       1.104   8.617  21.600  0.00  0.00    +0.000 A 
ATOM      9  C   UNL     1       0.608   9.945  21.975  0.00  0.00    +0.000 A 
ATOM     10  O   UNL     1       0.267  10.175  23.129  0.00  0.00    +0.000 OA
ATOM     11  C   UNL     1       0.539  10.992  20.949  0.00  0.00    +0.000 A 
ATOM     12  C   UNL     1       0.850  10.868  19.646  0.00  0.00    +0.000 A 
ATOM     13  S   UNL     1       1.413   9.341  18.983  0.00  0.00    +0.000 S 
BRANCH  12  14
ATOM     14  N   UNL     1       0.688  11.986  18.809  0.00  0.00    +0.000 N 
ATOM     15  C   UNL     1       1.807  12.893  18.462  0.00  0.00    +0.000 C 
ATOM     16  C   UNL     1       1.686  14.228  19.209  0.00  0.00    +0.000 C 
ATOM     17  O   UNL     1       0.419  14.854  18.949  0.00  0.00    +0.000 OA
ATOM     18  C   UNL     1      -0.650  13.997  19.378  0.00  0.00    +0.000 C 
ATOM     19  C   UNL     1      -0.627  12.646  18.640  0.00  0.00    +0.000 C 
ENDBRANCH  12  14
ENDBRANCH   5   7
BRANCH   1  23
ATOM     20  C   UNL     1       5.885   4.793  15.311  0.00  0.00    +0.000 A 
ATOM     21  C   UNL     1       5.488   6.084  15.662  0.00  0.00    +0.000 A 
ATOM     22  C   UNL     1       4.640   6.281  16.755  0.00  0.00    +0.000 A 
ATOM     23  C   UNL     1       4.158   5.202  17.518  0.00  0.00    +0.000 A 
ATOM     24  C   UNL     1       4.581   3.910  17.153  0.00  0.00    +0.000 A 
ATOM     25  C   UNL     1       5.449   3.706  16.074  0.00  0.00    +0.000 A 
BRANCH  20  27
ATOM     26  O   UNL     1       7.700   5.410  13.904  0.00  0.00    +0.000 OA
ATOM     27  C   UNL     1       6.798   4.629  14.156  0.00  0.00    +0.000 C 
BRANCH  27  28
ATOM     28  O   UNL     1       6.504   3.562  13.383  0.00  0.00    +0.000 OA
ATOM     29  H   UNL     1       6.894   3.585  12.490  0.00  0.00    +0.000 HD
ENDBRANCH  27  28
ENDBRANCH  20  27
ENDBRANCH   1  23
TORSDOF 5
ENDMDL
MODEL 2
REMARK VINA RESULT:      -9.1      0.114      1.098
REMARK  Name = 
REMARK  5 active torsions:
REMARK  status: ('A' for Active; 'I' for Inactive)
REMARK    1  A    between atoms: C_2  and  O_3
REMARK    2  A    between atoms: C_2  and  C_4
REMARK    3  A    between atoms: C_7  and  C_8
REMARK    4  A    between atoms: C_12  and  C_13
REMARK    5  A    between atoms: C_18  and  N_19
REMARK                            x       y       z     vdW  Elec       q    Type
REMARK                         _______ _______ _______ _____ _____    ______ ____
ROOT
ATOM      1  C   UNL     1       3.318   5.535  18.715  0.00  0.00    +0.000 A 
ATOM      2  C   UNL     1       2.847   4.451  19.478  0.00  0.00    +0.000 A 
ATOM      3  C   UNL     1       1.934   4.629  20.520  0.00  0.00    +0.000 A 
ATOM      4  C   UNL     1       1.475   5.904  20.829  0.00  0.00    +0.000 A 
ATOM      5  C   UNL     1       1.943   7.007  20.109  0.00  0.00    +0.000 A 
ATOM      6  C   UNL     1       2.866   6.817  19.069  0.00  0.00    +0.000 A 
ENDROOT
BRANCH   5   7
ATOM      7  C   UNL     1       1.426   8.351  20.391  0.00  0.00    +0.000 A 
ATOM      8  C   UNL     1       1.054   8.638  21.640  0.00  0.00    +0.000 A 
ATOM      9  C   UNL     1       0.529   9.951  22.026  0.00  0.00    +0.000 A 
ATOM     10  O   UNL     1       0.181  10.164  23.180  0.00  0.00    +0.000 OA
ATOM     11  C   UNL     1       0.438  11.005  21.007  0.00  0.00    +0.000 A 
ATOM     12  C   UNL     1       0.754  10.898  19.704  0.00  0.00    +0.000 A 
ATOM     13  S   UNL     1       1.351   9.390  19.029  0.00  0.00    +0.000 S 
BRANCH  12  14
ATOM     14  N   UNL     1       0.569  12.020  18.876  0.00  0.00    +0.000 N 
ATOM     15  C   UNL     1       1.681  12.918  18.488  0.00  0.00    +0.000 C 
ATOM     16  C   UNL     1       1.600  14.253  19.242  0.00  0.00    +0.000 C 
ATOM     17  O   UNL     1       0.329  14.889  19.032  0.00  0.00    +0.000 OA
ATOM     18  C   UNL     1      -0.730  14.040  19.500  0.00  0.00    +0.000 C 
ATOM     19  C   UNL     1      -0.747  12.691  18.760  0.00  0.00    +0.000 C 
ENDBRANCH  12  14
ENDBRANCH   5   7
BRANCH   1  23
ATOM     20  C   UNL     1       5.825   4.882  15.268  0.00  0.00    +0.000 A 
ATOM     21  C   UNL     1       5.362   3.802  16.022  0.00  0.00    +0.000 A 
ATOM     22  C   UNL     1       4.557   4.026  17.141  0.00  0.00    +0.000 A 
ATOM     23  C   UNL     1       4.201   5.327  17.545  0.00  0.00    +0.000 A 
ATOM     24  C   UNL     1       4.669   6.398  16.763  0.00  0.00    +0.000 A 
ATOM     25  C   UNL     1       5.456   6.182  15.626  0.00  0.00    +0.000 A 
BRANCH  20  27
ATOM     26  O   UNL     1       6.432   3.686  13.304  0.00  0.00    +0.000 OA
ATOM     27  C   UNL     1       6.662   4.600  14.078  0.00  0.00    +0.000 C 
BRANCH  27  28
ATOM     28  O   UNL     1       7.729   5.419  13.962  0.00  0.00    +0.000 OA
ATOM     29  H   UNL     1       7.649   6.098  13.267  0.00  0.00    +0.000 HD
ENDBRANCH  27  28
ENDBRANCH  20  27
ENDBRANCH   1  23
TORSDOF 5
ENDMDL
MODEL 3
REMARK VINA RESULT:      -8.4      3.189      4.329
REMARK  Name = 
REMARK  5 active torsions:
REMARK  status: ('A' for Active; 'I' for Inactive)
REMARK    1  A    between atoms: C_2  and  O_3
REMARK    2  A    between atoms: C_2  and  C_4
REMARK    3  A    between atoms: C_7  and  C_8
REMARK    4  A    between atoms: C_12  and  C_13
REMARK    5  A    between atoms: C_18  and  N_19
REMARK                            x       y       z     vdW  Elec       q    Type
REMARK                         _______ _______ _______ _____ _____    ______ ____
ROOT
ATOM      1  C   UNL     1       2.566   7.014  18.935  0.00  0.00    +0.000 A 
ATOM      2  C   UNL     1       2.828   7.673  17.720  0.00  0.00    +0.000 A 
ATOM      3  C   UNL     1       2.359   8.965  17.471  0.00  0.00    +0.000 A 
ATOM      4  C   UNL     1       1.606   9.627  18.434  0.00  0.00    +0.000 A 
ATOM      5  C   UNL     1       1.305   8.991  19.642  0.00  0.00    +0.000 A 
ATOM      6  C   UNL     1       1.775   7.690  19.878  0.00  0.00    +0.000 A 
ENDROOT
BRANCH   5   7
ATOM      7  C   UNL     1       0.557   9.699  20.687  0.00  0.00    +0.000 A 
ATOM      8  C   UNL     1       0.714   9.310  21.953  0.00  0.00    +0.000 A 
ATOM      9  C   UNL     1       0.016   9.953  23.070  0.00  0.00    +0.000 A 
ATOM     10  O   UNL     1       0.177   9.550  24.215  0.00  0.00    +0.000 OA
ATOM     11  C   UNL     1      -0.866  11.093  22.792  0.00  0.00    +0.000 A 
ATOM     12  C   UNL     1      -1.156  11.615  21.586  0.00  0.00    +0.000 A 
ATOM     13  S   UNL     1      -0.463  10.953  20.114  0.00  0.00    +0.000 S 
BRANCH  12  14
ATOM     14  N   UNL     1      -2.054  12.695  21.522  0.00  0.00    +0.000 N 
ATOM     15  C   UNL     1      -2.745  13.231  22.717  0.00  0.00    +0.000 C 
ATOM     16  C   UNL     1      -4.224  12.824  22.729  0.00  0.00    +0.000 C 
ATOM     17  O   UNL     1      -4.886  13.242  21.524  0.00  0.00    +0.000 OA
ATOM     18  C   UNL     1      -4.258  12.637  20.382  0.00  0.00    +0.000 C 
ATOM     19  C   UNL     1      -2.775  13.033  20.273  0.00  0.00    +0.000 C 
ENDBRANCH  12  14
ENDBRANCH   5   7
BRANCH   1  23
ATOM     20  C   UNL     1       4.209   3.117  19.776  0.00  0.00    +0.000 A 
ATOM     21  C   UNL     1       3.058   3.556  20.432  0.00  0.00    +0.000 A 
ATOM     22  C   UNL     1       2.539   4.824  20.157  0.00  0.00    +0.000 A 
ATOM     23  C   UNL     1       3.156   5.689  19.234  0.00  0.00    +0.000 A 
ATOM     24  C   UNL     1       4.308   5.219  18.577  0.00  0.00    +0.000 A 
ATOM     25  C   UNL     1       4.821   3.942  18.829  0.00  0.00    +0.000 A 
BRANCH  20  27
ATOM     26  O   UNL     1       5.255   1.473  21.140  0.00  0.00    +0.000 OA
ATOM     27  C   UNL     1       4.717   1.759  20.084  0.00  0.00    +0.000 C 
BRANCH  27  28
ATOM     28  O   UNL     1       4.571   0.884  19.066  0.00  0.00    +0.000 OA
ATOM     29  H   UNL     1       3.695   0.461  19.013  0.00  0.00    +0.000 HD
ENDBRANCH  27  28
ENDBRANCH  20  27
ENDBRANCH   1  23
TORSDOF 5
ENDMDL
MODEL 4
REMARK VINA RESULT:      -8.4      3.108      9.625
REMARK  Name = 
REMARK  5 active torsions:
REMARK  status: ('A' for Active; 'I' for Inactive)
REMARK    1  A    between atoms: C_2  and  O_3
REMARK    2  A    between atoms: C_2  and  C_4
REMARK    3  A    between atoms: C_7  and  C_8
REMARK    4  A    between atoms: C_12  and  C_13
REMARK    5  A    between atoms: C_18  and  N_19
REMARK                            x       y       z     vdW  Elec       q    Type
REMARK                         _______ _______ _______ _____ _____    ______ ____
ROOT
ATOM      1  C   UNL     1       0.565  10.236  19.945  0.00  0.00    +0.000 A 
ATOM      2  C   UNL     1       0.825  10.912  18.738  0.00  0.00    +0.000 A 
ATOM      3  C   UNL     1       1.604  10.339  17.730  0.00  0.00    +0.000 A 
ATOM      4  C   UNL     1       2.150   9.074  17.910  0.00  0.00    +0.000 A 
ATOM      5  C   UNL     1       1.934   8.385  19.108  0.00  0.00    +0.000 A 
ATOM      6  C   UNL     1       1.156   8.973  20.117  0.00  0.00    +0.000 A 
ENDROOT
BRANCH   5   7
ATOM      7  C   UNL     1       2.461   7.028  19.289  0.00  0.00    +0.000 A 
ATOM      8  C   UNL     1       1.949   6.274  20.263  0.00  0.00    +0.000 A 
ATOM      9  C   UNL     1       2.403   4.904  20.524  0.00  0.00    +0.000 A 
ATOM     10  O   UNL     1       1.916   4.255  21.441  0.00  0.00    +0.000 OA
ATOM     11  C   UNL     1       3.439   4.325  19.660  0.00  0.00    +0.000 A 
ATOM     12  C   UNL     1       4.077   4.933  18.644  0.00  0.00    +0.000 A 
ATOM     13  S   UNL     1       3.716   6.595  18.203  0.00  0.00    +0.000 S 
BRANCH  12  14
ATOM     14  N   UNL     1       5.068   4.216  17.950  0.00  0.00    +0.000 N 
ATOM     15  C   UNL     1       6.515   4.479  18.126  0.00  0.00    +0.000 C 
ATOM     16  C   UNL     1       7.093   5.216  16.911  0.00  0.00    +0.000 C 
ATOM     17  O   UNL     1       6.848   4.486  15.698  0.00  0.00    +0.000 OA
ATOM     18  C   UNL     1       5.435   4.324  15.498  0.00  0.00    +0.000 C 
ATOM     19  C   UNL     1       4.783   3.551  16.657  0.00  0.00    +0.000 C 
ENDBRANCH  12  14
ENDBRANCH   5   7
BRANCH   1  23
ATOM     20  C   UNL     1      -2.165  11.863  22.860  0.00  0.00    +0.000 A 
ATOM     21  C   UNL     1      -2.133  12.369  21.560  0.00  0.00    +0.000 A 
ATOM     22  C   UNL     1      -1.239  11.840  20.626  0.00  0.00    +0.000 A 
ATOM     23  C   UNL     1      -0.348  10.803  20.963  0.00  0.00    +0.000 A 
ATOM     24  C   UNL     1      -0.407  10.301  22.276  0.00  0.00    +0.000 A 
ATOM     25  C   UNL     1      -1.316  10.809  23.211  0.00  0.00    +0.000 A 
BRANCH  20  27
ATOM     26  O   UNL     1      -4.077  11.809  24.273  0.00  0.00    +0.000 OA
ATOM     27  C   UNL     1      -3.139  12.440  23.815  0.00  0.00    +0.000 C 
BRANCH  27  28
ATOM     28  O   UNL     1      -2.918  13.744  24.090  0.00  0.00    +0.000 OA
ATOM     29  H   UNL     1      -3.623  14.349  23.794  0.00  0.00    +0.000 HD
ENDBRANCH  27  28
ENDBRANCH  20  27
ENDBRANCH   1  23
TORSDOF 5
ENDMDL
MODEL 5
REMARK VINA RESULT:      -8.4      1.398      1.958
REMARK  Name = 
REMARK  5 active torsions:
REMARK  status: ('A' for Active; 'I' for Inactive)
REMARK    1  A    between atoms: C_2  and  O_3
REMARK    2  A    between atoms: C_2  and  C_4
REMARK    3  A    between atoms: C_7  and  C_8
REMARK    4  A    between atoms: C_12  and  C_13
REMARK    5  A    between atoms: C_18  and  N_19
REMARK                            x       y       z     vdW  Elec       q    Type
REMARK                         _______ _______ _______ _____ _____    ______ ____
ROOT
ATOM      1  C   UNL     1       3.570   5.246  18.722  0.00  0.00    +0.000 A 
ATOM      2  C   UNL     1       3.234   4.111  19.481  0.00  0.00    +0.000 A 
ATOM      3  C   UNL     1       2.332   4.181  20.547  0.00  0.00    +0.000 A 
ATOM      4  C   UNL     1       1.751   5.397  20.884  0.00  0.00    +0.000 A 
ATOM      5  C   UNL     1       2.083   6.551  20.168  0.00  0.00    +0.000 A 
ATOM      6  C   UNL     1       2.995   6.470  19.104  0.00  0.00    +0.000 A 
ENDROOT
BRANCH   5   7
ATOM      7  C   UNL     1       1.436   7.831  20.480  0.00  0.00    +0.000 A 
ATOM      8  C   UNL     1       1.435   8.248  21.747  0.00  0.00    +0.000 A 
ATOM      9  C   UNL     1       0.820   9.512  22.162  0.00  0.00    +0.000 A 
ATOM     10  O   UNL     1       0.827   9.847  23.340  0.00  0.00    +0.000 OA
ATOM     11  C   UNL     1       0.208  10.371  21.140  0.00  0.00    +0.000 A 
ATOM     12  C   UNL     1       0.103  10.112  19.824  0.00  0.00    +0.000 A 
ATOM     13  S   UNL     1       0.731   8.624  19.133  0.00  0.00    +0.000 S 
BRANCH  12  14
ATOM     14  N   UNL     1      -0.549  11.053  19.006  0.00  0.00    +0.000 N 
ATOM     15  C   UNL     1      -1.067  12.339  19.525  0.00  0.00    +0.000 C 
ATOM     16  C   UNL     1      -2.597  12.315  19.631  0.00  0.00    +0.000 C 
ATOM     17  O   UNL     1      -3.199  11.992  18.367  0.00  0.00    +0.000 OA
ATOM     18  C   UNL     1      -2.755  10.699  17.926  0.00  0.00    +0.000 C 
ATOM     19  C   UNL     1      -1.227  10.652  17.751  0.00  0.00    +0.000 C 
ENDBRANCH  12  14
ENDBRANCH   5   7
BRANCH   1  23
ATOM     20  C   UNL     1       6.046   4.896  15.209  0.00  0.00    +0.000 A 
ATOM     21  C   UNL     1       5.724   3.767  15.964  0.00  0.00    +0.000 A 
ATOM     22  C   UNL     1       4.927   3.894  17.105  0.00  0.00    +0.000 A 
ATOM     23  C   UNL     1       4.441   5.144  17.530  0.00  0.00    +0.000 A 
ATOM     24  C   UNL     1       4.769   6.266  16.746  0.00  0.00    +0.000 A 
ATOM     25  C   UNL     1       5.546   6.145  15.589  0.00  0.00    +0.000 A 
BRANCH  20  27
ATOM     26  O   UNL     1       7.756   5.497  13.671  0.00  0.00    +0.000 OA
ATOM     27  C   UNL     1       6.878   4.716  13.997  0.00  0.00    +0.000 C 
BRANCH  27  28
ATOM     28  O   UNL     1       6.540   3.633  13.265  0.00  0.00    +0.000 OA
ATOM     29  H   UNL     1       7.277   3.225  12.775  0.00  0.00    +0.000 HD
ENDBRANCH  27  28
ENDBRANCH  20  27
ENDBRANCH   1  23
TORSDOF 5
ENDMDL
MODEL 6
REMARK VINA RESULT:      -8.4      1.852      2.567
REMARK  Name = 
REMARK  5 active torsions:
REMARK  status: ('A' for Active; 'I' for Inactive)
REMARK    1  A    between atoms: C_2  and  O_3
REMARK    2  A    between atoms: C_2  and  C_4
REMARK    3  A    between atoms: C_7  and  C_8
REMARK    4  A    between atoms: C_12  and  C_13
REMARK    5  A    between atoms: C_18  and  N_19
REMARK                            x       y       z     vdW  Elec       q    Type
REMARK                         _______ _______ _______ _____ _____    ______ ____
ROOT
ATOM      1  C   UNL     1       3.132   6.139  18.690  0.00  0.00    +0.000 A 
ATOM      2  C   UNL     1       2.696   5.222  19.663  0.00  0.00    +0.000 A 
ATOM      3  C   UNL     1       1.792   5.588  20.663  0.00  0.00    +0.000 A 
ATOM      4  C   UNL     1       1.309   6.889  20.718  0.00  0.00    +0.000 A 
ATOM      5  C   UNL     1       1.742   7.834  19.784  0.00  0.00    +0.000 A 
ATOM      6  C   UNL     1       2.656   7.457  18.787  0.00  0.00    +0.000 A 
ENDROOT
BRANCH   5   7
ATOM      7  C   UNL     1       1.199   9.197  19.799  0.00  0.00    +0.000 A 
ATOM      8  C   UNL     1       1.711  10.093  18.953  0.00  0.00    +0.000 A 
ATOM      9  C   UNL     1       1.236  11.478  18.887  0.00  0.00    +0.000 A 
ATOM     10  O   UNL     1       1.748  12.272  18.107  0.00  0.00    +0.000 OA
ATOM     11  C   UNL     1       0.131  11.891  19.761  0.00  0.00    +0.000 A 
ATOM     12  C   UNL     1      -0.498  11.136  20.680  0.00  0.00    +0.000 A 
ATOM     13  S   UNL     1      -0.042   9.461  20.953  0.00  0.00    +0.000 S 
BRANCH  12  14
ATOM     14  N   UNL     1      -1.520  11.725  21.446  0.00  0.00    +0.000 N 
ATOM     15  C   UNL     1      -2.550  12.611  20.856  0.00  0.00    +0.000 C 
ATOM     16  C   UNL     1      -2.294  14.077  21.228  0.00  0.00    +0.000 C 
ATOM     17  O   UNL     1      -2.228  14.245  22.654  0.00  0.00    +0.000 OA
ATOM     18  C   UNL     1      -1.162  13.449  23.194  0.00  0.00    +0.000 C 
ATOM     19  C   UNL     1      -1.367  11.952  22.902  0.00  0.00    +0.000 C 
ENDBRANCH  12  14
ENDBRANCH   5   7
BRANCH   1  23
ATOM     20  C   UNL     1       5.742   4.954  15.469  0.00  0.00    +0.000 A 
ATOM     21  C   UNL     1       5.471   6.304  15.700  0.00  0.00    +0.000 A 
ATOM     22  C   UNL     1       4.618   6.675  16.742  0.00  0.00    +0.000 A 
ATOM     23  C   UNL     1       4.005   5.717  17.571  0.00  0.00    +0.000 A 
ATOM     24  C   UNL     1       4.303   4.364  17.326  0.00  0.00    +0.000 A 
ATOM     25  C   UNL     1       5.175   3.984  16.299  0.00  0.00    +0.000 A 
BRANCH  20  27
ATOM     26  O   UNL     1       7.621   5.295  14.050  0.00  0.00    +0.000 OA
ATOM     27  C   UNL     1       6.666   4.604  14.365  0.00  0.00    +0.000 C 
BRANCH  27  28
ATOM     28  O   UNL     1       6.321   3.474  13.710  0.00  0.00    +0.000 OA
ATOM     29  H   UNL     1       5.629   2.944  14.146  0.00  0.00    +0.000 HD
ENDBRANCH  27  28
ENDBRANCH  20  27
ENDBRANCH   1  23
TORSDOF 5
ENDMDL
MODEL 7
REMARK VINA RESULT:      -8.2      3.211      4.333
REMARK  Name = 
REMARK  5 active torsions:
REMARK  status: ('A' for Active; 'I' for Inactive)
REMARK    1  A    between atoms: C_2  and  O_3
REMARK    2  A    between atoms: C_2  and  C_4
REMARK    3  A    between atoms: C_7  and  C_8
REMARK    4  A    between atoms: C_12  and  C_13
REMARK    5  A    between atoms: C_18  and  N_19
REMARK                            x       y       z     vdW  Elec       q    Type
REMARK                         _______ _______ _______ _____ _____    ______ ____
ROOT
ATOM      1  C   UNL     1       2.459   7.216  18.956  0.00  0.00    +0.000 A 
ATOM      2  C   UNL     1       2.732   7.901  17.758  0.00  0.00    +0.000 A 
ATOM      3  C   UNL     1       2.258   9.195  17.529  0.00  0.00    +0.000 A 
ATOM      4  C   UNL     1       1.489   9.832  18.495  0.00  0.00    +0.000 A 
ATOM      5  C   UNL     1       1.175   9.171  19.685  0.00  0.00    +0.000 A 
ATOM      6  C   UNL     1       1.651   7.868  19.902  0.00  0.00    +0.000 A 
ENDROOT
BRANCH   5   7
ATOM      7  C   UNL     1       0.409   9.853  20.735  0.00  0.00    +0.000 A 
ATOM      8  C   UNL     1       0.541   9.430  21.992  0.00  0.00    +0.000 A 
ATOM      9  C   UNL     1      -0.176  10.045  23.113  0.00  0.00    +0.000 A 
ATOM     10  O   UNL     1      -0.038   9.612  24.250  0.00  0.00    +0.000 OA
ATOM     11  C   UNL     1      -1.051  11.194  22.848  0.00  0.00    +0.000 A 
ATOM     12  C   UNL     1      -1.316  11.749  21.651  0.00  0.00    +0.000 A 
ATOM     13  S   UNL     1      -0.597  11.124  20.175  0.00  0.00    +0.000 S 
BRANCH  12  14
ATOM     14  N   UNL     1      -2.211  12.833  21.599  0.00  0.00    +0.000 N 
ATOM     15  C   UNL     1      -1.800  14.223  21.902  0.00  0.00    +0.000 C 
ATOM     16  C   UNL     1      -2.331  14.669  23.271  0.00  0.00    +0.000 C 
ATOM     17  O   UNL     1      -3.760  14.530  23.341  0.00  0.00    +0.000 OA
ATOM     18  C   UNL     1      -4.131  13.158  23.137  0.00  0.00    +0.000 C 
ATOM     19  C   UNL     1      -3.671  12.643  21.761  0.00  0.00    +0.000 C 
ENDBRANCH  12  14
ENDBRANCH   5   7
BRANCH   1  23
ATOM     20  C   UNL     1       4.120   3.313  19.732  0.00  0.00    +0.000 A 
ATOM     21  C   UNL     1       2.889   3.680  20.280  0.00  0.00    +0.000 A 
ATOM     22  C   UNL     1       2.365   4.951  20.028  0.00  0.00    +0.000 A 
ATOM     23  C   UNL     1       3.053   5.889  19.236  0.00  0.00    +0.000 A 
ATOM     24  C   UNL     1       4.285   5.492  18.685  0.00  0.00    +0.000 A 
ATOM     25  C   UNL     1       4.807   4.213  18.913  0.00  0.00    +0.000 A 
BRANCH  20  27
ATOM     26  O   UNL     1       5.185   1.647  21.054  0.00  0.00    +0.000 OA
ATOM     27  C   UNL     1       4.632   1.951  20.010  0.00  0.00    +0.000 C 
BRANCH  27  28
ATOM     28  O   UNL     1       4.475   1.093  18.979  0.00  0.00    +0.000 OA
ATOM     29  H   UNL     1       4.605   1.487  18.097  0.00  0.00    +0.000 HD
ENDBRANCH  27  28
ENDBRANCH  20  27
ENDBRANCH   1  23
TORSDOF 5
ENDMDL
MODEL 8
REMARK VINA RESULT:      -8.2      3.069      4.087
REMARK  Name = 
REMARK  5 active torsions:
REMARK  status: ('A' for Active; 'I' for Inactive)
REMARK    1  A    between atoms: C_2  and  O_3
REMARK    2  A    between atoms: C_2  and  C_4
REMARK    3  A    between atoms: C_7  and  C_8
REMARK    4  A    between atoms: C_12  and  C_13
REMARK    5  A    between atoms: C_18  and  N_19
REMARK                            x       y       z     vdW  Elec       q    Type
REMARK                         _______ _______ _______ _____ _____    ______ ____
ROOT
ATOM      1  C   UNL     1       2.514   6.955  19.045  0.00  0.00    +0.000 A 
ATOM      2  C   UNL     1       2.745   7.623  17.829  0.00  0.00    +0.000 A 
ATOM      3  C   UNL     1       2.253   8.909  17.593  0.00  0.00    +0.000 A 
ATOM      4  C   UNL     1       1.507   9.556  18.570  0.00  0.00    +0.000 A 
ATOM      5  C   UNL     1       1.234   8.911  19.780  0.00  0.00    +0.000 A 
ATOM      6  C   UNL     1       1.728   7.616  20.004  0.00  0.00    +0.000 A 
ENDROOT
BRANCH   5   7
ATOM      7  C   UNL     1       0.493   9.603  20.841  0.00  0.00    +0.000 A 
ATOM      8  C   UNL     1       0.659   9.196  22.100  0.00  0.00    +0.000 A 
ATOM      9  C   UNL     1      -0.032   9.823  23.231  0.00  0.00    +0.000 A 
ATOM     10  O   UNL     1       0.137   9.405  24.369  0.00  0.00    +0.000 OA
ATOM     11  C   UNL     1      -0.918  10.966  22.974  0.00  0.00    +0.000 A 
ATOM     12  C   UNL     1      -1.216  11.504  21.778  0.00  0.00    +0.000 A 
ATOM     13  S   UNL     1      -0.532  10.864  20.292  0.00  0.00    +0.000 S 
BRANCH  12  14
ATOM     14  N   UNL     1      -2.116  12.585  21.735  0.00  0.00    +0.000 N 
ATOM     15  C   UNL     1      -2.391  13.346  20.495  0.00  0.00    +0.000 C 
ATOM     16  C   UNL     1      -1.722  14.726  20.535  0.00  0.00    +0.000 C 
ATOM     17  O   UNL     1      -2.135  15.468  21.695  0.00  0.00    +0.000 OA
ATOM     18  C   UNL     1      -1.775  14.755  22.889  0.00  0.00    +0.000 C 
ATOM     19  C   UNL     1      -2.443  13.370  22.948  0.00  0.00    +0.000 C 
ENDBRANCH  12  14
ENDBRANCH   5   7
BRANCH   1  23
ATOM     20  C   UNL     1       4.235   3.080  19.829  0.00  0.00    +0.000 A 
ATOM     21  C   UNL     1       2.979   3.413  20.339  0.00  0.00    +0.000 A 
ATOM     22  C   UNL     1       2.435   4.675  20.085  0.00  0.00    +0.000 A 
ATOM     23  C   UNL     1       3.128   5.638  19.329  0.00  0.00    +0.000 A 
ATOM     24  C   UNL     1       4.387   5.275  18.816  0.00  0.00    +0.000 A 
ATOM     25  C   UNL     1       4.929   4.005  19.045  0.00  0.00    +0.000 A 
BRANCH  20  27
ATOM     26  O   UNL     1       5.358   1.441  21.136  0.00  0.00    +0.000 OA
ATOM     27  C   UNL     1       4.768   1.726  20.107  0.00  0.00    +0.000 C 
BRANCH  27  28
ATOM     28  O   UNL     1       4.583   0.854  19.094  0.00  0.00    +0.000 OA
ATOM     29  H   UNL     1       4.540   1.259  18.208  0.00  0.00    +0.000 HD
ENDBRANCH  27  28
ENDBRANCH  20  27
ENDBRANCH   1  23
TORSDOF 5
ENDMDL
MODEL 9
REMARK VINA RESULT:      -8.1      1.943      2.869
REMARK  Name = 
REMARK  5 active torsions:
REMARK  status: ('A' for Active; 'I' for Inactive)
REMARK    1  A    between atoms: C_2  and  O_3
REMARK    2  A    between atoms: C_2  and  C_4
REMARK    3  A    between atoms: C_7  and  C_8
REMARK    4  A    between atoms: C_12  and  C_13
REMARK    5  A    between atoms: C_18  and  N_19
REMARK                            x       y       z     vdW  Elec       q    Type
REMARK                         _______ _______ _______ _____ _____    ______ ____
ROOT
ATOM      1  C   UNL     1       3.057   6.313  18.805  0.00  0.00    +0.000 A 
ATOM      2  C   UNL     1       2.621   5.387  19.770  0.00  0.00    +0.000 A 
ATOM      3  C   UNL     1       1.701   5.738  20.761  0.00  0.00    +0.000 A 
ATOM      4  C   UNL     1       1.201   7.033  20.815  0.00  0.00    +0.000 A 
ATOM      5  C   UNL     1       1.633   7.987  19.889  0.00  0.00    +0.000 A 
ATOM      6  C   UNL     1       2.563   7.625  18.901  0.00  0.00    +0.000 A 
ENDROOT
BRANCH   5   7
ATOM      7  C   UNL     1       1.072   9.343  19.902  0.00  0.00    +0.000 A 
ATOM      8  C   UNL     1       1.562  10.239  19.045  0.00  0.00    +0.000 A 
ATOM      9  C   UNL     1       1.068  11.618  18.977  0.00  0.00    +0.000 A 
ATOM     10  O   UNL     1       1.560  12.414  18.186  0.00  0.00    +0.000 OA
ATOM     11  C   UNL     1      -0.031  12.022  19.862  0.00  0.00    +0.000 A 
ATOM     12  C   UNL     1      -0.638  11.264  20.793  0.00  0.00    +0.000 A 
ATOM     13  S   UNL     1      -0.158   9.598  21.070  0.00  0.00    +0.000 S 
BRANCH  12  14
ATOM     14  N   UNL     1      -1.659  11.845  21.568  0.00  0.00    +0.000 N 
ATOM     15  C   UNL     1      -2.716  12.701  20.984  0.00  0.00    +0.000 C 
ATOM     16  C   UNL     1      -2.484  14.178  21.329  0.00  0.00    +0.000 C 
ATOM     17  O   UNL     1      -2.396  14.370  22.750  0.00  0.00    +0.000 OA
ATOM     18  C   UNL     1      -1.305  13.603  23.283  0.00  0.00    +0.000 C 
ATOM     19  C   UNL     1      -1.484  12.098  23.017  0.00  0.00    +0.000 C 
ENDBRANCH  12  14
ENDBRANCH   5   7
BRANCH   1  23
ATOM     20  C   UNL     1       5.580   5.097  15.526  0.00  0.00    +0.000 A 
ATOM     21  C   UNL     1       4.843   4.152  16.241  0.00  0.00    +0.000 A 
ATOM     22  C   UNL     1       4.035   4.556  17.307  0.00  0.00    +0.000 A 
ATOM     23  C   UNL     1       3.947   5.906  17.695  0.00  0.00    +0.000 A 
ATOM     24  C   UNL     1       4.690   6.843  16.952  0.00  0.00    +0.000 A 
ATOM     25  C   UNL     1       5.483   6.449  15.868  0.00  0.00    +0.000 A 
BRANCH  20  27
ATOM     26  O   UNL     1       6.103   3.682  13.688  0.00  0.00    +0.000 OA
ATOM     27  C   UNL     1       6.411   4.629  14.393  0.00  0.00    +0.000 C 
BRANCH  27  28
ATOM     28  O   UNL     1       7.563   5.318  14.246  0.00  0.00    +0.000 OA
ATOM     29  H   UNL     1       8.283   4.823  13.816  0.00  0.00    +0.000 HD
ENDBRANCH  27  28
ENDBRANCH  20  27
ENDBRANCH   1  23
TORSDOF 5
ENDMDL
