MODEL 1
REMARK VINA RESULT:      -7.5      0.000      0.000
REMARK  Name = 
REMARK  3 active torsions:
REMARK  status: ('A' for Active; 'I' for Inactive)
REMARK    1  A    between atoms: C_1  and  C_2
REMARK    2  A    between atoms: N_9  and  C_10
REMARK    3  A    between atoms: C_18  and  C_19
REMARK                            x       y       z     vdW  Elec       q    Type
REMARK                         _______ _______ _______ _____ _____    ______ ____
ROOT
ATOM      1  C   UNL     1       5.361   3.825  16.019  0.00  0.00    +0.000 C 
ATOM      2  C   UNL     1       4.418   4.181  17.111  0.00  0.00    +0.000 A 
ATOM      3  N   UNL     1       3.605   3.244  17.689  0.00  0.00    +0.000 N 
ATOM      4  C   UNL     1       2.846   3.820  18.662  0.00  0.00    +0.000 A 
ATOM      5  N   UNL     1       1.958   3.139  19.399  0.00  0.00    +0.000 NA
ATOM      6  C   UNL     1       1.342   3.935  20.277  0.00  0.00    +0.000 A 
ATOM      7  N   UNL     1       1.516   5.254  20.446  0.00  0.00    +0.000 NA
ATOM      8  C   UNL     1       2.405   5.928  19.665  0.00  0.00    +0.000 A 
ATOM      9  N   UNL     1       2.545   7.315  19.822  0.00  0.00    +0.000 N 
ATOM     10  C   UNL     1       3.149   5.176  18.723  0.00  0.00    +0.000 A 
ATOM     11  C   UNL     1       4.165   5.406  17.722  0.00  0.00    +0.000 A 
ATOM     12  C   UNL     1       4.859   6.666  17.338  0.00  0.00    +0.000 C 
ATOM     13  H   UNL     1       3.547   2.265  17.449  0.00  0.00    +0.000 HD
ATOM     14  H   UNL     1       3.326   7.699  19.321  0.00  0.00    +0.000 HD
ENDROOT
BRANCH   9  15
ATOM     15  C   UNL     1       1.589   8.282  20.191  0.00  0.00    +0.000 A 
ATOM     16  C   UNL     1       1.077   9.138  19.200  0.00  0.00    +0.000 A 
ATOM     17  C   UNL     1       0.131  10.118  19.508  0.00  0.00    +0.000 A 
ATOM     18  C   UNL     1      -0.307  10.273  20.821  0.00  0.00    +0.000 A 
ATOM     19  C   UNL     1       0.211   9.453  21.816  0.00  0.00    +0.000 A 
ATOM     20 CL   UNL     1      -0.317   9.641  23.445  0.00  0.00    +0.000 Cl
ATOM     21  C   UNL     1       1.153   8.473  21.507  0.00  0.00    +0.000 A 
ENDBRANCH   9  15
TORSDOF 1
ENDMDL
MODEL 2
REMARK VINA RESULT:      -7.5      4.502      7.839
REMARK  Name = 
REMARK  3 active torsions:
REMARK  status: ('A' for Active; 'I' for Inactive)
REMARK    1  A    between atoms: C_1  and  C_2
REMARK    2  A    between atoms: N_9  and  C_10
REMARK    3  A    between atoms: C_18  and  C_19
REMARK                            x       y       z     vdW  Elec       q    Type
REMARK                         _______ _______ _______ _____ _____    ______ ____
ROOT
ATOM      1  C   UNL     1       1.768   5.029  20.219  0.00  0.00    +0.000 C 
ATOM      2  C   UNL     1       3.063   4.915  19.498  0.00  0.00    +0.000 A 
ATOM      3  N   UNL     1       4.235   5.344  20.059  0.00  0.00    +0.000 N 
ATOM      4  C   UNL     1       5.271   5.122  19.204  0.00  0.00    +0.000 A 
ATOM      5  N   UNL     1       6.541   5.441  19.491  0.00  0.00    +0.000 NA
ATOM      6  C   UNL     1       7.361   5.127  18.486  0.00  0.00    +0.000 A 
ATOM      7  N   UNL     1       7.034   4.583  17.304  0.00  0.00    +0.000 NA
ATOM      8  C   UNL     1       5.733   4.293  17.026  0.00  0.00    +0.000 A 
ATOM      9  N   UNL     1       5.399   3.765  15.770  0.00  0.00    +0.000 N 
ATOM     10  C   UNL     1       4.776   4.546  18.039  0.00  0.00    +0.000 A 
ATOM     11  C   UNL     1       3.350   4.412  18.233  0.00  0.00    +0.000 A 
ATOM     12  C   UNL     1       2.310   3.867  17.317  0.00  0.00    +0.000 C 
ATOM     13  H   UNL     1       4.348   5.771  20.967  0.00  0.00    +0.000 HD
ATOM     14  H   UNL     1       4.451   3.438  15.711  0.00  0.00    +0.000 HD
ENDROOT
BRANCH   9  15
ATOM     15  C   UNL     1       5.992   3.988  14.512  0.00  0.00    +0.000 A 
ATOM     16  C   UNL     1       5.498   3.286  13.399  0.00  0.00    +0.000 A 
ATOM     17  C   UNL     1       6.049   3.463  12.128  0.00  0.00    +0.000 A 
ATOM     18  C   UNL     1       7.122   4.334  11.951  0.00  0.00    +0.000 A 
ATOM     19  C   UNL     1       7.639   5.013  13.047  0.00  0.00    +0.000 A 
ATOM     20 CL   UNL     1       8.970   6.087  12.841  0.00  0.00    +0.000 Cl
ATOM     21  C   UNL     1       7.085   4.838  14.314  0.00  0.00    +0.000 A 
ENDBRANCH   9  15
TORSDOF 1
ENDMDL
MODEL 3
REMARK VINA RESULT:      -7.4      1.006      1.126
REMARK  Name = 
REMARK  3 active torsions:
REMARK  status: ('A' for Active; 'I' for Inactive)
REMARK    1  A    between atoms: C_1  and  C_2
REMARK    2  A    between atoms: N_9  and  C_10
REMARK    3  A    between atoms: C_18  and  C_19
REMARK                            x       y       z     vdW  Elec       q    Type
REMARK                         _______ _______ _______ _____ _____    ______ ____
ROOT
ATOM      1  C   UNL     1       5.971   3.730  15.218  0.00  0.00    +0.000 C 
ATOM      2  C   UNL     1       5.075   4.124  16.337  0.00  0.00    +0.000 A 
ATOM      3  N   UNL     1       4.452   3.190  17.119  0.00  0.00    +0.000 N 
ATOM      4  C   UNL     1       3.698   3.806  18.072  0.00  0.00    +0.000 A 
ATOM      5  N   UNL     1       2.977   3.137  18.982  0.00  0.00    +0.000 NA
ATOM      6  C   UNL     1       2.326   3.971  19.796  0.00  0.00    +0.000 A 
ATOM      7  N   UNL     1       2.323   5.312  19.759  0.00  0.00    +0.000 NA
ATOM      8  C   UNL     1       3.042   5.967  18.807  0.00  0.00    +0.000 A 
ATOM      9  N   UNL     1       2.995   7.368  18.752  0.00  0.00    +0.000 N 
ATOM     10  C   UNL     1       3.809   5.182  17.911  0.00  0.00    +0.000 A 
ATOM     11  C   UNL     1       4.700   5.385  16.792  0.00  0.00    +0.000 A 
ATOM     12  C   UNL     1       5.174   6.651  16.167  0.00  0.00    +0.000 C 
ATOM     13  H   UNL     1       4.516   2.187  17.026  0.00  0.00    +0.000 HD
ATOM     14  H   UNL     1       3.672   7.769  18.127  0.00  0.00    +0.000 HD
ENDROOT
BRANCH   9  15
ATOM     15  C   UNL     1       1.944   8.248  19.074  0.00  0.00    +0.000 A 
ATOM     16  C   UNL     1       1.408   9.060  18.060  0.00  0.00    +0.000 A 
ATOM     17  C   UNL     1       0.368   9.954  18.321  0.00  0.00    +0.000 A 
ATOM     18  C   UNL     1      -0.143  10.068  19.612  0.00  0.00    +0.000 A 
ATOM     19  C   UNL     1       0.396   9.293  20.631  0.00  0.00    +0.000 A 
ATOM     20 CL   UNL     1      -0.222   9.431  22.233  0.00  0.00    +0.000 Cl
ATOM     21  C   UNL     1       1.432   8.398  20.368  0.00  0.00    +0.000 A 
ENDBRANCH   9  15
TORSDOF 1
ENDMDL
MODEL 4
REMARK VINA RESULT:      -7.4      4.514      7.572
REMARK  Name = 
REMARK  3 active torsions:
REMARK  status: ('A' for Active; 'I' for Inactive)
REMARK    1  A    between atoms: C_1  and  C_2
REMARK    2  A    between atoms: N_9  and  C_10
REMARK    3  A    between atoms: C_18  and  C_19
REMARK                            x       y       z     vdW  Elec       q    Type
REMARK                         _______ _______ _______ _____ _____    ______ ____
ROOT
ATOM      1  C   UNL     1       1.287   2.629  20.082  0.00  0.00    +0.000 C 
ATOM      2  C   UNL     1       2.147   3.511  19.250  0.00  0.00    +0.000 A 
ATOM      3  N   UNL     1       2.004   4.871  19.264  0.00  0.00    +0.000 N 
ATOM      4  C   UNL     1       2.911   5.445  18.425  0.00  0.00    +0.000 A 
ATOM      5  N   UNL     1       3.003   6.769  18.240  0.00  0.00    +0.000 NA
ATOM      6  C   UNL     1       3.965   7.072  17.366  0.00  0.00    +0.000 A 
ATOM      7  N   UNL     1       4.763   6.222  16.701  0.00  0.00    +0.000 NA
ATOM      8  C   UNL     1       4.631   4.880  16.887  0.00  0.00    +0.000 A 
ATOM      9  N   UNL     1       5.441   4.001  16.153  0.00  0.00    +0.000 N 
ATOM     10  C   UNL     1       3.665   4.442  17.827  0.00  0.00    +0.000 A 
ATOM     11  C   UNL     1       3.172   3.194  18.362  0.00  0.00    +0.000 A 
ATOM     12  C   UNL     1       3.600   1.797  18.077  0.00  0.00    +0.000 C 
ATOM     13  H   UNL     1       1.332   5.401  19.800  0.00  0.00    +0.000 HD
ATOM     14  H   UNL     1       5.386   3.048  16.466  0.00  0.00    +0.000 HD
ENDROOT
BRANCH   9  15
ATOM     15  C   UNL     1       5.965   4.131  14.853  0.00  0.00    +0.000 A 
ATOM     16  C   UNL     1       5.364   3.411  13.806  0.00  0.00    +0.000 A 
ATOM     17  C   UNL     1       5.843   3.498  12.498  0.00  0.00    +0.000 A 
ATOM     18  C   UNL     1       6.950   4.294  12.215  0.00  0.00    +0.000 A 
ATOM     19  C   UNL     1       7.574   4.989  13.243  0.00  0.00    +0.000 A 
ATOM     20 CL   UNL     1       8.948   5.971  12.907  0.00  0.00    +0.000 Cl
ATOM     21  C   UNL     1       7.091   4.905  14.549  0.00  0.00    +0.000 A 
ENDBRANCH   9  15
TORSDOF 1
ENDMDL
MODEL 5
REMARK VINA RESULT:      -7.4      4.098      6.007
REMARK  Name = 
REMARK  3 active torsions:
REMARK  status: ('A' for Active; 'I' for Inactive)
REMARK    1  A    between atoms: C_1  and  C_2
REMARK    2  A    between atoms: N_9  and  C_10
REMARK    3  A    between atoms: C_18  and  C_19
REMARK                            x       y       z     vdW  Elec       q    Type
REMARK                         _______ _______ _______ _____ _____    ______ ____
ROOT
ATOM      1  C   UNL     1       7.618   4.487  11.957  0.00  0.00    +0.000 C 
ATOM      2  C   UNL     1       7.094   4.758  13.321  0.00  0.00    +0.000 A 
ATOM      3  N   UNL     1       7.801   5.500  14.227  0.00  0.00    +0.000 N 
ATOM      4  C   UNL     1       7.103   5.607  15.391  0.00  0.00    +0.000 A 
ATOM      5  N   UNL     1       7.554   6.282  16.457  0.00  0.00    +0.000 NA
ATOM      6  C   UNL     1       6.686   6.228  17.470  0.00  0.00    +0.000 A 
ATOM      7  N   UNL     1       5.509   5.586  17.504  0.00  0.00    +0.000 NA
ATOM      8  C   UNL     1       5.086   4.885  16.416  0.00  0.00    +0.000 A 
ATOM      9  N   UNL     1       3.873   4.182  16.480  0.00  0.00    +0.000 N 
ATOM     10  C   UNL     1       5.910   4.906  15.264  0.00  0.00    +0.000 A 
ATOM     11  C   UNL     1       5.905   4.360  13.926  0.00  0.00    +0.000 A 
ATOM     12  C   UNL     1       4.884   3.519  13.242  0.00  0.00    +0.000 C 
ATOM     13  H   UNL     1       8.711   5.916  14.086  0.00  0.00    +0.000 HD
ATOM     14  H   UNL     1       3.567   3.827  15.591  0.00  0.00    +0.000 HD
ENDROOT
BRANCH   9  15
ATOM     15  C   UNL     1       3.254   3.550  17.575  0.00  0.00    +0.000 A 
ATOM     16  C   UNL     1       3.499   2.183  17.793  0.00  0.00    +0.000 A 
ATOM     17  C   UNL     1       2.909   1.502  18.861  0.00  0.00    +0.000 A 
ATOM     18  C   UNL     1       2.045   2.175  19.721  0.00  0.00    +0.000 A 
ATOM     19  C   UNL     1       1.771   3.519  19.502  0.00  0.00    +0.000 A 
ATOM     20 CL   UNL     1       0.698   4.359  20.555  0.00  0.00    +0.000 Cl
ATOM     21  C   UNL     1       2.363   4.198  18.438  0.00  0.00    +0.000 A 
ENDBRANCH   9  15
TORSDOF 1
ENDMDL
MODEL 6
REMARK VINA RESULT:      -7.4      4.436      7.525
REMARK  Name = 
REMARK  3 active torsions:
REMARK  status: ('A' for Active; 'I' for Inactive)
REMARK    1  A    between atoms: C_1  and  C_2
REMARK    2  A    between atoms: N_9  and  C_10
REMARK    3  A    between atoms: C_18  and  C_19
REMARK                            x       y       z     vdW  Elec       q    Type
REMARK                         _______ _______ _______ _____ _____    ______ ____
ROOT
ATOM      1  C   UNL     1       1.353   3.194  20.574  0.00  0.00    +0.000 C 
ATOM      2  C   UNL     1       2.184   3.991  19.634  0.00  0.00    +0.000 A 
ATOM      3  N   UNL     1       2.040   5.347  19.522  0.00  0.00    +0.000 N 
ATOM      4  C   UNL     1       2.919   5.836  18.603  0.00  0.00    +0.000 A 
ATOM      5  N   UNL     1       3.003   7.136  18.289  0.00  0.00    +0.000 NA
ATOM      6  C   UNL     1       3.936   7.352  17.359  0.00  0.00    +0.000 A 
ATOM      7  N   UNL     1       4.711   6.441  16.752  0.00  0.00    +0.000 NA
ATOM      8  C   UNL     1       4.587   5.123  17.070  0.00  0.00    +0.000 A 
ATOM      9  N   UNL     1       5.373   4.176  16.396  0.00  0.00    +0.000 N 
ATOM     10  C   UNL     1       3.654   4.779  18.079  0.00  0.00    +0.000 A 
ATOM     11  C   UNL     1       3.179   3.589  18.747  0.00  0.00    +0.000 A 
ATOM     12  C   UNL     1       3.600   2.170  18.581  0.00  0.00    +0.000 C 
ATOM     13  H   UNL     1       1.386   5.927  20.027  0.00  0.00    +0.000 HD
ATOM     14  H   UNL     1       5.329   3.258  16.801  0.00  0.00    +0.000 HD
ENDROOT
BRANCH   9  15
ATOM     15  C   UNL     1       5.854   4.181  15.073  0.00  0.00    +0.000 A 
ATOM     16  C   UNL     1       7.055   4.855  14.792  0.00  0.00    +0.000 A 
ATOM     17  C   UNL     1       7.577   4.897  13.498  0.00  0.00    +0.000 A 
ATOM     18  C   UNL     1       6.894   4.279  12.453  0.00  0.00    +0.000 A 
ATOM     19  C   UNL     1       5.691   3.633  12.709  0.00  0.00    +0.000 A 
ATOM     20 CL   UNL     1       4.834   2.872  11.424  0.00  0.00    +0.000 Cl
ATOM     21  C   UNL     1       5.173   3.589  14.003  0.00  0.00    +0.000 A 
ENDBRANCH   9  15
TORSDOF 1
ENDMDL
MODEL 7
REMARK VINA RESULT:      -7.3      4.044      7.032
REMARK  Name = 
REMARK  3 active torsions:
REMARK  status: ('A' for Active; 'I' for Inactive)
REMARK    1  A    between atoms: C_1  and  C_2
REMARK    2  A    between atoms: N_9  and  C_10
REMARK    3  A    between atoms: C_18  and  C_19
REMARK                            x       y       z     vdW  Elec       q    Type
REMARK                         _______ _______ _______ _____ _____    ______ ____
ROOT
ATOM      1  C   UNL     1       1.702   2.695  21.693  0.00  0.00    +0.000 C 
ATOM      2  C   UNL     1       2.314   3.620  20.703  0.00  0.00    +0.000 A 
ATOM      3  N   UNL     1       1.825   4.882  20.503  0.00  0.00    +0.000 N 
ATOM      4  C   UNL     1       2.562   5.524  19.554  0.00  0.00    +0.000 A 
ATOM      5  N   UNL     1       2.311   6.779  19.157  0.00  0.00    +0.000 NA
ATOM      6  C   UNL     1       3.172   7.172  18.214  0.00  0.00    +0.000 A 
ATOM      7  N   UNL     1       4.167   6.458  17.669  0.00  0.00    +0.000 NA
ATOM      8  C   UNL     1       4.384   5.175  18.071  0.00  0.00    +0.000 A 
ATOM      9  N   UNL     1       5.401   4.425  17.461  0.00  0.00    +0.000 N 
ATOM     10  C   UNL     1       3.555   4.664  19.100  0.00  0.00    +0.000 A 
ATOM     11  C   UNL     1       3.394   3.436  19.844  0.00  0.00    +0.000 A 
ATOM     12  C   UNL     1       4.171   2.167  19.771  0.00  0.00    +0.000 C 
ATOM     13  H   UNL     1       1.034   5.302  20.969  0.00  0.00    +0.000 HD
ATOM     14  H   UNL     1       5.590   3.554  17.924  0.00  0.00    +0.000 HD
ENDROOT
BRANCH   9  15
ATOM     15  C   UNL     1       5.886   4.471  16.140  0.00  0.00    +0.000 A 
ATOM     16  C   UNL     1       7.131   5.077  15.899  0.00  0.00    +0.000 A 
ATOM     17  C   UNL     1       7.661   5.156  14.609  0.00  0.00    +0.000 A 
ATOM     18  C   UNL     1       6.942   4.646  13.531  0.00  0.00    +0.000 A 
ATOM     19  C   UNL     1       5.697   4.070  13.749  0.00  0.00    +0.000 A 
ATOM     20 CL   UNL     1       4.796   3.443  12.422  0.00  0.00    +0.000 Cl
ATOM     21  C   UNL     1       5.172   3.989  15.038  0.00  0.00    +0.000 A 
ENDBRANCH   9  15
TORSDOF 1
ENDMDL
MODEL 8
REMARK VINA RESULT:      -7.3      3.413      6.649
REMARK  Name = 
REMARK  3 active torsions:
REMARK  status: ('A' for Active; 'I' for Inactive)
REMARK    1  A    between atoms: C_1  and  C_2
REMARK    2  A    between atoms: N_9  and  C_10
REMARK    3  A    between atoms: C_18  and  C_19
REMARK                            x       y       z     vdW  Elec       q    Type
REMARK                         _______ _______ _______ _____ _____    ______ ____
ROOT
ATOM      1  C   UNL     1       0.801   9.416  20.980  0.00  0.00    +0.000 C 
ATOM      2  C   UNL     1       1.414   8.150  20.502  0.00  0.00    +0.000 A 
ATOM      3  N   UNL     1       1.399   7.013  21.264  0.00  0.00    +0.000 N 
ATOM      4  C   UNL     1       2.015   5.996  20.599  0.00  0.00    +0.000 A 
ATOM      5  N   UNL     1       2.146   4.763  21.106  0.00  0.00    +0.000 NA
ATOM      6  C   UNL     1       2.792   3.956  20.261  0.00  0.00    +0.000 A 
ATOM      7  N   UNL     1       3.295   4.268  19.057  0.00  0.00    +0.000 NA
ATOM      8  C   UNL     1       3.173   5.536  18.577  0.00  0.00    +0.000 A 
ATOM      9  N   UNL     1       3.742   5.859  17.336  0.00  0.00    +0.000 N 
ATOM     10  C   UNL     1       2.466   6.471  19.373  0.00  0.00    +0.000 A 
ATOM     11  C   UNL     1       2.075   7.860  19.311  0.00  0.00    +0.000 A 
ATOM     12  C   UNL     1       2.298   8.868  18.237  0.00  0.00    +0.000 C 
ATOM     13  H   UNL     1       1.002   6.912  22.187  0.00  0.00    +0.000 HD
ATOM     14  H   UNL     1       3.470   6.764  16.993  0.00  0.00    +0.000 HD
ENDROOT
BRANCH   9  15
ATOM     15  C   UNL     1       4.901   5.353  16.717  0.00  0.00    +0.000 A 
ATOM     16  C   UNL     1       6.123   5.428  17.406  0.00  0.00    +0.000 A 
ATOM     17  C   UNL     1       7.305   4.946  16.840  0.00  0.00    +0.000 A 
ATOM     18  C   UNL     1       7.289   4.397  15.559  0.00  0.00    +0.000 A 
ATOM     19  C   UNL     1       6.094   4.344  14.854  0.00  0.00    +0.000 A 
ATOM     20 CL   UNL     1       6.063   3.675  13.267  0.00  0.00    +0.000 Cl
ATOM     21  C   UNL     1       4.914   4.821  15.422  0.00  0.00    +0.000 A 
ENDBRANCH   9  15
TORSDOF 1
ENDMDL
MODEL 9
REMARK VINA RESULT:      -7.2      3.171      6.493
REMARK  Name = 
REMARK  3 active torsions:
REMARK  status: ('A' for Active; 'I' for Inactive)
REMARK    1  A    between atoms: C_1  and  C_2
REMARK    2  A    between atoms: N_9  and  C_10
REMARK    3  A    between atoms: C_18  and  C_19
REMARK                            x       y       z     vdW  Elec       q    Type
REMARK                         _______ _______ _______ _____ _____    ______ ____
ROOT
ATOM      1  C   UNL     1      -0.774  11.735  20.488  0.00  0.00    +0.000 C 
ATOM      2  C   UNL     1       0.106  10.642  19.999  0.00  0.00    +0.000 A 
ATOM      3  N   UNL     1       0.742  10.720  18.790  0.00  0.00    +0.000 N 
ATOM      4  C   UNL     1       1.489   9.600  18.582  0.00  0.00    +0.000 A 
ATOM      5  N   UNL     1       2.223   9.404  17.478  0.00  0.00    +0.000 NA
ATOM      6  C   UNL     1       2.854   8.228  17.516  0.00  0.00    +0.000 A 
ATOM      7  N   UNL     1       2.795   7.300  18.483  0.00  0.00    +0.000 NA
ATOM      8  C   UNL     1       2.019   7.512  19.582  0.00  0.00    +0.000 A 
ATOM      9  N   UNL     1       1.932   6.515  20.565  0.00  0.00    +0.000 N 
ATOM     10  C   UNL     1       1.334   8.749  19.670  0.00  0.00    +0.000 A 
ATOM     11  C   UNL     1       0.443   9.424  20.585  0.00  0.00    +0.000 A 
ATOM     12  C   UNL     1      -0.079   8.984  21.908  0.00  0.00    +0.000 C 
ATOM     13  H   UNL     1       0.683  11.478  18.126  0.00  0.00    +0.000 HD
ATOM     14  H   UNL     1       1.470   6.818  21.404  0.00  0.00    +0.000 HD
ENDROOT
BRANCH   9  15
ATOM     15  C   UNL     1       1.992   5.114  20.436  0.00  0.00    +0.000 A 
ATOM     16  C   UNL     1       0.790   4.392  20.347  0.00  0.00    +0.000 A 
ATOM     17  C   UNL     1       0.788   3.001  20.222  0.00  0.00    +0.000 A 
ATOM     18  C   UNL     1       1.994   2.303  20.204  0.00  0.00    +0.000 A 
ATOM     19  C   UNL     1       3.189   3.001  20.321  0.00  0.00    +0.000 A 
ATOM     20 CL   UNL     1       4.686   2.148  20.309  0.00  0.00    +0.000 Cl
ATOM     21  C   UNL     1       3.190   4.389  20.442  0.00  0.00    +0.000 A 
ENDBRANCH   9  15
TORSDOF 1
ENDMDL
