MODEL 1
REMARK VINA RESULT:      -8.0      0.000      0.000
REMARK  Name = 
REMARK  2 active torsions:
REMARK  status: ('A' for Active; 'I' for Inactive)
REMARK    1  A    between atoms: C_1  and  C_2
REMARK    2  A    between atoms: N_4  and  C_5
REMARK                            x       y       z     vdW  Elec       q    Type
REMARK                         _______ _______ _______ _____ _____    ______ ____
ROOT
ATOM      1  C   UNL     1       4.412   4.693  18.453  0.00  0.00    +0.000 A 
ATOM      2  N   UNL     1       4.017   3.763  19.364  0.00  0.00    +0.000 NA
ATOM      3  C   UNL     1       3.063   4.061  20.267  0.00  0.00    +0.000 A 
ATOM      4  N   UNL     1       2.758   3.080  21.191  0.00  0.00    +0.000 N 
ATOM      5  N   UNL     1       2.410   5.222  20.389  0.00  0.00    +0.000 NA
ATOM      6  C   UNL     1       2.753   6.137  19.458  0.00  0.00    +0.000 A 
ATOM      7  C   UNL     1       3.735   5.908  18.512  0.00  0.00    +0.000 A 
ATOM      8  O   UNL     1       3.865   6.984  17.688  0.00  0.00    +0.000 OA
ATOM      9  C   UNL     1       2.949   7.904  18.095  0.00  0.00    +0.000 A 
ATOM     10  N   UNL     1       2.783   9.086  17.473  0.00  0.00    +0.000 NA
ATOM     11  C   UNL     1       1.809   9.845  18.032  0.00  0.00    +0.000 A 
ATOM     12  C   UNL     1       1.044   9.497  19.141  0.00  0.00    +0.000 A 
ATOM     13 CL   UNL     1      -0.150  10.573  19.747  0.00  0.00    +0.000 Cl
ATOM     14  C   UNL     1       1.254   8.265  19.756  0.00  0.00    +0.000 A 
ATOM     15  C   UNL     1       2.243   7.433  19.204  0.00  0.00    +0.000 A 
ATOM     16  H   UNL     1       3.539   2.446  21.288  0.00  0.00    +0.000 HD
ATOM     17  H   UNL     1       2.388   3.498  22.033  0.00  0.00    +0.000 HD
ENDROOT
BRANCH   1  21
ATOM     18  C   UNL     1       7.116   7.127  17.459  0.00  0.00    +0.000 C 
ATOM     19  C   UNL     1       7.418   5.729  16.914  0.00  0.00    +0.000 C 
ATOM     20  C   UNL     1       6.788   4.620  17.795  0.00  0.00    +0.000 C 
ATOM     21  N   UNL     1       5.369   4.408  17.509  0.00  0.00    +0.000 N 
ATOM     22  C   UNL     1       5.002   4.300  16.097  0.00  0.00    +0.000 C 
ATOM     23  C   UNL     1       5.623   5.457  15.281  0.00  0.00    +0.000 C 
ATOM     24  N   UNL     1       7.075   5.617  15.475  0.00  0.00    +0.000 NA
ATOM     25  H   UNL     1       7.391   6.452  14.983  0.00  0.00    +0.000 HD
ENDBRANCH   1  21
TORSDOF 1
ENDMDL
MODEL 2
REMARK VINA RESULT:      -7.7      3.743      6.208
REMARK  Name = 
REMARK  2 active torsions:
REMARK  status: ('A' for Active; 'I' for Inactive)
REMARK    1  A    between atoms: C_1  and  C_2
REMARK    2  A    between atoms: N_4  and  C_5
REMARK                            x       y       z     vdW  Elec       q    Type
REMARK                         _______ _______ _______ _____ _____    ______ ____
ROOT
ATOM      1  C   UNL     1       5.188   4.549  19.046  0.00  0.00    +0.000 A 
ATOM      2  N   UNL     1       6.238   5.008  19.780  0.00  0.00    +0.000 NA
ATOM      3  C   UNL     1       7.412   5.284  19.182  0.00  0.00    +0.000 A 
ATOM      4  N   UNL     1       8.444   5.694  20.006  0.00  0.00    +0.000 N 
ATOM      5  N   UNL     1       7.698   5.166  17.880  0.00  0.00    +0.000 NA
ATOM      6  C   UNL     1       6.649   4.762  17.132  0.00  0.00    +0.000 A 
ATOM      7  C   UNL     1       5.420   4.443  17.678  0.00  0.00    +0.000 A 
ATOM      8  O   UNL     1       4.540   4.088  16.700  0.00  0.00    +0.000 OA
ATOM      9  C   UNL     1       5.204   4.197  15.517  0.00  0.00    +0.000 A 
ATOM     10  N   UNL     1       4.616   3.948  14.331  0.00  0.00    +0.000 NA
ATOM     11  C   UNL     1       5.451   4.129  13.279  0.00  0.00    +0.000 A 
ATOM     12  C   UNL     1       6.786   4.513  13.359  0.00  0.00    +0.000 A 
ATOM     13 CL   UNL     1       7.727   4.691  11.933  0.00  0.00    +0.000 Cl
ATOM     14  C   UNL     1       7.354   4.754  14.608  0.00  0.00    +0.000 A 
ATOM     15  C   UNL     1       6.524   4.596  15.731  0.00  0.00    +0.000 A 
ATOM     16  H   UNL     1       8.280   5.367  20.948  0.00  0.00    +0.000 HD
ATOM     17  H   UNL     1       9.335   5.473  19.584  0.00  0.00    +0.000 HD
ENDROOT
BRANCH   1  21
ATOM     18  C   UNL     1       2.979   1.690  17.965  0.00  0.00    +0.000 C 
ATOM     19  C   UNL     1       2.492   2.279  19.292  0.00  0.00    +0.000 C 
ATOM     20  C   UNL     1       3.651   2.928  20.092  0.00  0.00    +0.000 C 
ATOM     21  N   UNL     1       3.973   4.277  19.628  0.00  0.00    +0.000 N 
ATOM     22  C   UNL     1       2.839   5.179  19.423  0.00  0.00    +0.000 C 
ATOM     23  C   UNL     1       1.739   4.490  18.582  0.00  0.00    +0.000 C 
ATOM     24  N   UNL     1       1.325   3.173  19.098  0.00  0.00    +0.000 NA
ATOM     25  H   UNL     1       0.672   2.745  18.444  0.00  0.00    +0.000 HD
ENDBRANCH   1  21
TORSDOF 1
ENDMDL
MODEL 3
REMARK VINA RESULT:      -7.7      2.362      4.511
REMARK  Name = 
REMARK  2 active torsions:
REMARK  status: ('A' for Active; 'I' for Inactive)
REMARK    1  A    between atoms: C_1  and  C_2
REMARK    2  A    between atoms: N_4  and  C_5
REMARK                            x       y       z     vdW  Elec       q    Type
REMARK                         _______ _______ _______ _____ _____    ______ ____
ROOT
ATOM      1  C   UNL     1       4.364   6.793  17.460  0.00  0.00    +0.000 A 
ATOM      2  N   UNL     1       3.602   7.920  17.446  0.00  0.00    +0.000 NA
ATOM      3  C   UNL     1       2.477   7.986  18.183  0.00  0.00    +0.000 A 
ATOM      4  N   UNL     1       1.732   9.144  18.072  0.00  0.00    +0.000 N 
ATOM      5  N   UNL     1       1.984   7.032  18.981  0.00  0.00    +0.000 NA
ATOM      6  C   UNL     1       2.758   5.928  19.046  0.00  0.00    +0.000 A 
ATOM      7  C   UNL     1       3.915   5.782  18.305  0.00  0.00    +0.000 A 
ATOM      8  O   UNL     1       4.509   4.586  18.575  0.00  0.00    +0.000 OA
ATOM      9  C   UNL     1       3.738   3.968  19.510  0.00  0.00    +0.000 A 
ATOM     10  N   UNL     1       4.053   2.767  20.031  0.00  0.00    +0.000 NA
ATOM     11  C   UNL     1       3.158   2.339  20.954  0.00  0.00    +0.000 A 
ATOM     12  C   UNL     1       2.009   3.019  21.347  0.00  0.00    +0.000 A 
ATOM     13 CL   UNL     1       0.958   2.343  22.524  0.00  0.00    +0.000 Cl
ATOM     14  C   UNL     1       1.719   4.256  20.776  0.00  0.00    +0.000 A 
ATOM     15  C   UNL     1       2.627   4.752  19.825  0.00  0.00    +0.000 A 
ATOM     16  H   UNL     1       1.934   9.598  17.192  0.00  0.00    +0.000 HD
ATOM     17  H   UNL     1       0.763   8.957  18.289  0.00  0.00    +0.000 HD
ENDROOT
BRANCH   1  21
ATOM     18  C   UNL     1       5.445   3.656  15.666  0.00  0.00    +0.000 C 
ATOM     19  C   UNL     1       6.291   4.853  15.223  0.00  0.00    +0.000 C 
ATOM     20  C   UNL     1       5.516   6.189  15.364  0.00  0.00    +0.000 C 
ATOM     21  N   UNL     1       5.527   6.706  16.732  0.00  0.00    +0.000 N 
ATOM     22  C   UNL     1       6.824   6.719  17.409  0.00  0.00    +0.000 C 
ATOM     23  C   UNL     1       7.525   5.348  17.270  0.00  0.00    +0.000 C 
ATOM     24  N   UNL     1       7.618   4.859  15.883  0.00  0.00    +0.000 NA
ATOM     25  H   UNL     1       8.004   3.916  15.883  0.00  0.00    +0.000 HD
ENDBRANCH   1  21
TORSDOF 1
ENDMDL
MODEL 4
REMARK VINA RESULT:      -7.4      1.187      1.506
REMARK  Name = 
REMARK  2 active torsions:
REMARK  status: ('A' for Active; 'I' for Inactive)
REMARK    1  A    between atoms: C_1  and  C_2
REMARK    2  A    between atoms: N_4  and  C_5
REMARK                            x       y       z     vdW  Elec       q    Type
REMARK                         _______ _______ _______ _____ _____    ______ ____
ROOT
ATOM      1  C   UNL     1       3.992   5.075  18.150  0.00  0.00    +0.000 A 
ATOM      2  N   UNL     1       3.966   3.899  18.835  0.00  0.00    +0.000 NA
ATOM      3  C   UNL     1       3.289   3.807  19.995  0.00  0.00    +0.000 A 
ATOM      4  N   UNL     1       3.357   2.595  20.656  0.00  0.00    +0.000 N 
ATOM      5  N   UNL     1       2.592   4.777  20.597  0.00  0.00    +0.000 NA
ATOM      6  C   UNL     1       2.565   5.934  19.902  0.00  0.00    +0.000 A 
ATOM      7  C   UNL     1       3.250   6.108  18.714  0.00  0.00    +0.000 A 
ATOM      8  O   UNL     1       3.035   7.358  18.216  0.00  0.00    +0.000 OA
ATOM      9  C   UNL     1       2.193   7.985  19.082  0.00  0.00    +0.000 A 
ATOM     10  N   UNL     1       1.744   9.238  18.877  0.00  0.00    +0.000 NA
ATOM     11  C   UNL     1       0.906   9.665  19.852  0.00  0.00    +0.000 A 
ATOM     12  C   UNL     1       0.529   8.937  20.976  0.00  0.00    +0.000 A 
ATOM     13 CL   UNL     1      -0.536   9.618  22.138  0.00  0.00    +0.000 Cl
ATOM     14  C   UNL     1       1.022   7.646  21.150  0.00  0.00    +0.000 A 
ATOM     15  C   UNL     1       1.883   7.149  20.156  0.00  0.00    +0.000 A 
ATOM     16  H   UNL     1       4.189   2.096  20.372  0.00  0.00    +0.000 HD
ATOM     17  H   UNL     1       3.208   2.729  21.646  0.00  0.00    +0.000 HD
ENDROOT
BRANCH   1  21
ATOM     18  C   UNL     1       7.698   4.476  17.788  0.00  0.00    +0.000 C 
ATOM     19  C   UNL     1       7.025   4.554  16.415  0.00  0.00    +0.000 C 
ATOM     20  C   UNL     1       5.537   4.123  16.479  0.00  0.00    +0.000 C 
ATOM     21  N   UNL     1       4.659   5.191  16.953  0.00  0.00    +0.000 N 
ATOM     22  C   UNL     1       4.851   6.507  16.342  0.00  0.00    +0.000 C 
ATOM     23  C   UNL     1       6.347   6.898  16.349  0.00  0.00    +0.000 C 
ATOM     24  N   UNL     1       7.238   5.874  15.775  0.00  0.00    +0.000 NA
ATOM     25  H   UNL     1       8.208   6.162  15.901  0.00  0.00    +0.000 HD
ENDBRANCH   1  21
TORSDOF 1
ENDMDL
MODEL 5
REMARK VINA RESULT:      -7.2      0.978      1.021
REMARK  Name = 
REMARK  2 active torsions:
REMARK  status: ('A' for Active; 'I' for Inactive)
REMARK    1  A    between atoms: C_1  and  C_2
REMARK    2  A    between atoms: N_4  and  C_5
REMARK                            x       y       z     vdW  Elec       q    Type
REMARK                         _______ _______ _______ _____ _____    ______ ____
ROOT
ATOM      1  C   UNL     1       3.876   5.292  18.626  0.00  0.00    +0.000 A 
ATOM      2  N   UNL     1       3.525   4.369  19.561  0.00  0.00    +0.000 NA
ATOM      3  C   UNL     1       2.624   4.678  20.513  0.00  0.00    +0.000 A 
ATOM      4  N   UNL     1       2.363   3.703  21.457  0.00  0.00    +0.000 N 
ATOM      5  N   UNL     1       1.987   5.844  20.666  0.00  0.00    +0.000 NA
ATOM      6  C   UNL     1       2.286   6.753  19.714  0.00  0.00    +0.000 A 
ATOM      7  C   UNL     1       3.213   6.512  18.717  0.00  0.00    +0.000 A 
ATOM      8  O   UNL     1       3.305   7.585  17.881  0.00  0.00    +0.000 OA
ATOM      9  C   UNL     1       2.419   8.513  18.334  0.00  0.00    +0.000 A 
ATOM     10  N   UNL     1       2.228   9.694  17.718  0.00  0.00    +0.000 NA
ATOM     11  C   UNL     1       1.292  10.463  18.326  0.00  0.00    +0.000 A 
ATOM     12  C   UNL     1       0.586  10.125  19.476  0.00  0.00    +0.000 A 
ATOM     13 CL   UNL     1      -0.565  11.211  20.142  0.00  0.00    +0.000 Cl
ATOM     14  C   UNL     1       0.821   8.894  20.084  0.00  0.00    +0.000 A 
ATOM     15  C   UNL     1       1.771   8.051  19.482  0.00  0.00    +0.000 A 
ATOM     16  H   UNL     1       3.143   3.063  21.514  0.00  0.00    +0.000 HD
ATOM     17  H   UNL     1       2.043   4.126  22.316  0.00  0.00    +0.000 HD
ENDROOT
BRANCH   1  21
ATOM     18  C   UNL     1       7.582   5.912  18.954  0.00  0.00    +0.000 C 
ATOM     19  C   UNL     1       7.285   5.034  17.736  0.00  0.00    +0.000 C 
ATOM     20  C   UNL     1       5.980   4.216  17.921  0.00  0.00    +0.000 C 
ATOM     21  N   UNL     1       4.779   4.997  17.632  0.00  0.00    +0.000 N 
ATOM     22  C   UNL     1       4.796   5.780  16.396  0.00  0.00    +0.000 C 
ATOM     23  C   UNL     1       6.100   6.606  16.293  0.00  0.00    +0.000 C 
ATOM     24  N   UNL     1       7.329   5.813  16.475  0.00  0.00    +0.000 NA
ATOM     25  H   UNL     1       8.134   6.438  16.488  0.00  0.00    +0.000 HD
ENDBRANCH   1  21
TORSDOF 1
ENDMDL
MODEL 6
REMARK VINA RESULT:      -7.2      3.717      6.334
REMARK  Name = 
REMARK  2 active torsions:
REMARK  status: ('A' for Active; 'I' for Inactive)
REMARK    1  A    between atoms: C_1  and  C_2
REMARK    2  A    between atoms: N_4  and  C_5
REMARK                            x       y       z     vdW  Elec       q    Type
REMARK                         _______ _______ _______ _____ _____    ______ ____
ROOT
ATOM      1  C   UNL     1       4.924   3.926  18.591  0.00  0.00    +0.000 A 
ATOM      2  N   UNL     1       5.720   4.509  19.528  0.00  0.00    +0.000 NA
ATOM      3  C   UNL     1       6.861   5.123  19.162  0.00  0.00    +0.000 A 
ATOM      4  N   UNL     1       7.638   5.642  20.179  0.00  0.00    +0.000 N 
ATOM      5  N   UNL     1       7.341   5.247  17.919  0.00  0.00    +0.000 NA
ATOM      6  C   UNL     1       6.536   4.720  16.973  0.00  0.00    +0.000 A 
ATOM      7  C   UNL     1       5.360   4.060  17.276  0.00  0.00    +0.000 A 
ATOM      8  O   UNL     1       4.736   3.648  16.137  0.00  0.00    +0.000 OA
ATOM      9  C   UNL     1       5.507   4.061  15.095  0.00  0.00    +0.000 A 
ATOM     10  N   UNL     1       5.166   3.846  13.811  0.00  0.00    +0.000 NA
ATOM     11  C   UNL     1       6.067   4.351  12.933  0.00  0.00    +0.000 A 
ATOM     12  C   UNL     1       7.243   5.014  13.267  0.00  0.00    +0.000 A 
ATOM     13 CL   UNL     1       8.297   5.590  12.040  0.00  0.00    +0.000 Cl
ATOM     14  C   UNL     1       7.558   5.209  14.610  0.00  0.00    +0.000 A 
ATOM     15  C   UNL     1       6.647   4.718  15.561  0.00  0.00    +0.000 A 
ATOM     16  H   UNL     1       7.432   5.164  21.046  0.00  0.00    +0.000 HD
ATOM     17  H   UNL     1       8.605   5.688  19.890  0.00  0.00    +0.000 HD
ENDROOT
BRANCH   1  21
ATOM     18  C   UNL     1       2.092   5.713  20.325  0.00  0.00    +0.000 C 
ATOM     19  C   UNL     1       1.633   4.349  19.804  0.00  0.00    +0.000 C 
ATOM     20  C   UNL     1       2.458   3.898  18.570  0.00  0.00    +0.000 C 
ATOM     21  N   UNL     1       3.745   3.309  18.936  0.00  0.00    +0.000 N 
ATOM     22  C   UNL     1       3.721   2.312  20.007  0.00  0.00    +0.000 C 
ATOM     23  C   UNL     1       2.924   2.838  21.223  0.00  0.00    +0.000 C 
ATOM     24  N   UNL     1       1.578   3.338  20.888  0.00  0.00    +0.000 NA
ATOM     25  H   UNL     1       1.156   3.751  21.718  0.00  0.00    +0.000 HD
ENDBRANCH   1  21
TORSDOF 1
ENDMDL
MODEL 7
REMARK VINA RESULT:      -7.1      1.735      4.283
REMARK  Name = 
REMARK  2 active torsions:
REMARK  status: ('A' for Active; 'I' for Inactive)
REMARK    1  A    between atoms: C_1  and  C_2
REMARK    2  A    between atoms: N_4  and  C_5
REMARK                            x       y       z     vdW  Elec       q    Type
REMARK                         _______ _______ _______ _____ _____    ______ ____
ROOT
ATOM      1  C   UNL     1       4.206   4.404  17.693  0.00  0.00    +0.000 A 
ATOM      2  N   UNL     1       5.104   4.515  16.677  0.00  0.00    +0.000 NA
ATOM      3  C   UNL     1       5.267   5.691  16.042  0.00  0.00    +0.000 A 
ATOM      4  N   UNL     1       6.159   5.706  14.986  0.00  0.00    +0.000 N 
ATOM      5  N   UNL     1       4.626   6.836  16.299  0.00  0.00    +0.000 NA
ATOM      6  C   UNL     1       3.770   6.755  17.340  0.00  0.00    +0.000 A 
ATOM      7  C   UNL     1       3.538   5.579  18.027  0.00  0.00    +0.000 A 
ATOM      8  O   UNL     1       2.649   5.782  19.038  0.00  0.00    +0.000 OA
ATOM      9  C   UNL     1       2.321   7.102  19.012  0.00  0.00    +0.000 A 
ATOM     10  N   UNL     1       1.479   7.658  19.904  0.00  0.00    +0.000 NA
ATOM     11  C   UNL     1       1.300   8.987  19.707  0.00  0.00    +0.000 A 
ATOM     12  C   UNL     1       1.885   9.743  18.696  0.00  0.00    +0.000 A 
ATOM     13 CL   UNL     1       1.553  11.423  18.563  0.00  0.00    +0.000 Cl
ATOM     14  C   UNL     1       2.746   9.125  17.792  0.00  0.00    +0.000 A 
ATOM     15  C   UNL     1       2.978   7.750  17.964  0.00  0.00    +0.000 A 
ATOM     16  H   UNL     1       6.267   4.772  14.616  0.00  0.00    +0.000 HD
ATOM     17  H   UNL     1       5.917   6.440  14.336  0.00  0.00    +0.000 HD
ENDROOT
BRANCH   1  21
ATOM     18  C   UNL     1       0.818   3.042  18.636  0.00  0.00    +0.000 C 
ATOM     19  C   UNL     1       1.902   1.978  18.829  0.00  0.00    +0.000 C 
ATOM     20  C   UNL     1       3.105   2.204  17.877  0.00  0.00    +0.000 C 
ATOM     21  N   UNL     1       4.034   3.220  18.370  0.00  0.00    +0.000 N 
ATOM     22  C   UNL     1       4.426   3.111  19.776  0.00  0.00    +0.000 C 
ATOM     23  C   UNL     1       3.182   2.933  20.676  0.00  0.00    +0.000 C 
ATOM     24  N   UNL     1       2.286   1.841  20.255  0.00  0.00    +0.000 NA
ATOM     25  H   UNL     1       1.450   1.848  20.836  0.00  0.00    +0.000 HD
ENDBRANCH   1  21
TORSDOF 1
ENDMDL
MODEL 8
REMARK VINA RESULT:      -7.1      1.940      4.315
REMARK  Name = 
REMARK  2 active torsions:
REMARK  status: ('A' for Active; 'I' for Inactive)
REMARK    1  A    between atoms: C_1  and  C_2
REMARK    2  A    between atoms: N_4  and  C_5
REMARK                            x       y       z     vdW  Elec       q    Type
REMARK                         _______ _______ _______ _____ _____    ______ ____
ROOT
ATOM      1  C   UNL     1       3.380   5.770  18.905  0.00  0.00    +0.000 A 
ATOM      2  N   UNL     1       4.230   5.722  17.844  0.00  0.00    +0.000 NA
ATOM      3  C   UNL     1       4.301   6.758  16.987  0.00  0.00    +0.000 A 
ATOM      4  N   UNL     1       5.149   6.608  15.906  0.00  0.00    +0.000 N 
ATOM      5  N   UNL     1       3.607   7.900  17.048  0.00  0.00    +0.000 NA
ATOM      6  C   UNL     1       2.798   7.983  18.126  0.00  0.00    +0.000 A 
ATOM      7  C   UNL     1       2.661   6.954  19.038  0.00  0.00    +0.000 A 
ATOM      8  O   UNL     1       1.802   7.309  20.034  0.00  0.00    +0.000 OA
ATOM      9  C   UNL     1       1.399   8.581  19.769  0.00  0.00    +0.000 A 
ATOM     10  N   UNL     1       0.562   9.260  20.578  0.00  0.00    +0.000 NA
ATOM     11  C   UNL     1       0.302  10.514  20.136  0.00  0.00    +0.000 A 
ATOM     12  C   UNL     1       0.803  11.085  18.970  0.00  0.00    +0.000 A 
ATOM     13 CL   UNL     1       0.372  12.688  18.531  0.00  0.00    +0.000 Cl
ATOM     14  C   UNL     1       1.661  10.344  18.162  0.00  0.00    +0.000 A 
ATOM     15  C   UNL     1       1.977   9.041  18.585  0.00  0.00    +0.000 A 
ATOM     16  H   UNL     1       5.295   5.626  15.718  0.00  0.00    +0.000 HD
ATOM     17  H   UNL     1       4.841   7.189  15.139  0.00  0.00    +0.000 HD
ENDROOT
BRANCH   1  21
ATOM     18  C   UNL     1       2.265   2.293  17.960  0.00  0.00    +0.000 C 
ATOM     19  C   UNL     1       2.889   2.300  19.358  0.00  0.00    +0.000 C 
ATOM     20  C   UNL     1       3.924   3.443  19.519  0.00  0.00    +0.000 C 
ATOM     21  N   UNL     1       3.301   4.734  19.806  0.00  0.00    +0.000 N 
ATOM     22  C   UNL     1       2.272   4.739  20.847  0.00  0.00    +0.000 C 
ATOM     23  C   UNL     1       1.247   3.607  20.604  0.00  0.00    +0.000 C 
ATOM     24  N   UNL     1       1.854   2.277  20.419  0.00  0.00    +0.000 NA
ATOM     25  H   UNL     1       1.127   1.607  20.173  0.00  0.00    +0.000 HD
ENDBRANCH   1  21
TORSDOF 1
ENDMDL
MODEL 9
REMARK VINA RESULT:      -6.9      3.049      5.940
REMARK  Name = 
REMARK  2 active torsions:
REMARK  status: ('A' for Active; 'I' for Inactive)
REMARK    1  A    between atoms: C_1  and  C_2
REMARK    2  A    between atoms: N_4  and  C_5
REMARK                            x       y       z     vdW  Elec       q    Type
REMARK                         _______ _______ _______ _____ _____    ______ ____
ROOT
ATOM      1  C   UNL     1       2.511   5.554  18.759  0.00  0.00    +0.000 A 
ATOM      2  N   UNL     1       2.155   6.865  18.830  0.00  0.00    +0.000 NA
ATOM      3  C   UNL     1       2.789   7.781  18.074  0.00  0.00    +0.000 A 
ATOM      4  N   UNL     1       2.404   9.097  18.244  0.00  0.00    +0.000 N 
ATOM      5  N   UNL     1       3.780   7.556  17.204  0.00  0.00    +0.000 NA
ATOM      6  C   UNL     1       4.108   6.252  17.084  0.00  0.00    +0.000 A 
ATOM      7  C   UNL     1       3.514   5.259  17.840  0.00  0.00    +0.000 A 
ATOM      8  O   UNL     1       4.015   4.038  17.505  0.00  0.00    +0.000 OA
ATOM      9  C   UNL     1       4.925   4.246  16.514  0.00  0.00    +0.000 A 
ATOM     10  N   UNL     1       5.595   3.239  15.923  0.00  0.00    +0.000 NA
ATOM     11  C   UNL     1       6.441   3.664  14.954  0.00  0.00    +0.000 A 
ATOM     12  C   UNL     1       6.649   4.989  14.581  0.00  0.00    +0.000 A 
ATOM     13 CL   UNL     1       7.768   5.378  13.338  0.00  0.00    +0.000 Cl
ATOM     14  C   UNL     1       5.938   5.998  15.225  0.00  0.00    +0.000 A 
ATOM     15  C   UNL     1       5.033   5.607  16.227  0.00  0.00    +0.000 A 
ATOM     16  H   UNL     1       1.985   9.216  19.157  0.00  0.00    +0.000 HD
ATOM     17  H   UNL     1       3.161   9.717  17.994  0.00  0.00    +0.000 HD
ENDROOT
BRANCH   1  21
ATOM     18  C   UNL     1       4.277   2.578  20.259  0.00  0.00    +0.000 C 
ATOM     19  C   UNL     1       2.869   2.723  20.842  0.00  0.00    +0.000 C 
ATOM     20  C   UNL     1       2.384   4.196  20.814  0.00  0.00    +0.000 C 
ATOM     21  N   UNL     1       1.868   4.596  19.506  0.00  0.00    +0.000 N 
ATOM     22  C   UNL     1       0.932   3.669  18.868  0.00  0.00    +0.000 C 
ATOM     23  C   UNL     1       1.492   2.228  18.888  0.00  0.00    +0.000 C 
ATOM     24  N   UNL     1       1.919   1.769  20.222  0.00  0.00    +0.000 NA
ATOM     25  H   UNL     1       2.360   0.854  20.138  0.00  0.00    +0.000 HD
ENDBRANCH   1  21
TORSDOF 1
ENDMDL
