MODEL 1
REMARK VINA RESULT:      -7.5      0.000      0.000
REMARK  Name = 
REMARK  7 active torsions:
REMARK  status: ('A' for Active; 'I' for Inactive)
REMARK    1  A    between atoms: C_1  and  C_2
REMARK    2  A    between atoms: C_6  and  C_7
REMARK    3  A    between atoms: C_7  and  C_9
REMARK    4  A    between atoms: C_10  and  O_11
REMARK    5  A    between atoms: N_14  and  C_15
REMARK    6  A    between atoms: C_15  and  C_16
REMARK    7  A    between atoms: C_21  and  C_22
REMARK                            x       y       z     vdW  Elec       q    Type
REMARK                         _______ _______ _______ _____ _____    ______ ____
ROOT
ATOM      1  C   UNL     1       0.209  10.251  21.290  0.00  0.00    +0.000 C 
ATOM      2  C   UNL     1      -0.744  10.544  22.193  0.00  0.00    +0.000 C 
ATOM      3  C   UNL     1      -1.666  11.516  21.555  0.00  0.00    +0.000 C 
ATOM      4  O   UNL     1      -2.710  11.932  22.040  0.00  0.00    +0.000 OA
ATOM      5  N   UNL     1      -1.135  11.831  20.327  0.00  0.00    +0.000 N 
ATOM      6  C   UNL     1       0.009  11.006  20.004  0.00  0.00    +0.000 C 
ENDROOT
BRANCH   6   7
ATOM      7  C   UNL     1       1.133  11.877  19.520  0.00  0.00    +0.000 A 
ATOM      8  C   UNL     1       1.828  11.821  18.327  0.00  0.00    +0.000 A 
ATOM      9  C   UNL     1       2.766  12.887  18.199  0.00  0.00    +0.000 A 
ATOM     10  C   UNL     1       2.820  13.668  19.325  0.00  0.00    +0.000 A 
ATOM     11  S   UNL     1       1.754  13.115  20.539  0.00  0.00    +0.000 S 
ENDBRANCH   6   7
BRANCH   1  12
ATOM     12  C   UNL     1       1.261   9.265  21.643  0.00  0.00    +0.000 C 
ATOM     13  O   UNL     1       1.874   9.379  22.706  0.00  0.00    +0.000 OA
BRANCH  12  19
ATOM     14  C   UNL     1       1.082   2.798  18.683  0.00  0.00    +0.000 C 
ATOM     15  C   UNL     1       2.111   3.796  19.194  0.00  0.00    +0.000 C 
ATOM     16  C   UNL     1       1.728   4.328  20.583  0.00  0.00    +0.000 C 
ATOM     17  C   UNL     1       1.722   5.777  20.313  0.00  0.00    +0.000 A 
ATOM     18  C   UNL     1       1.464   6.804  21.199  0.00  0.00    +0.000 A 
ATOM     19  C   UNL     1       1.579   8.120  20.754  0.00  0.00    +0.000 A 
ATOM     20  C   UNL     1       2.074   8.371  19.453  0.00  0.00    +0.000 A 
ATOM     21  C   UNL     1       2.293   7.314  18.557  0.00  0.00    +0.000 A 
ATOM     22  C   UNL     1       2.082   6.027  19.006  0.00  0.00    +0.000 A 
ATOM     23  O   UNL     1       2.243   4.897  18.254  0.00  0.00    +0.000 OA
ENDBRANCH  12  19
ENDBRANCH   1  12
BRANCH   2  24
ATOM     24  O   UNL     1      -0.916  10.031  23.448  0.00  0.00    +0.000 OA
ATOM     25  H   UNL     1      -1.430  10.687  23.967  0.00  0.00    +0.000 HD
ENDBRANCH   2  24
BRANCH   5  26
ATOM     26  C   UNL     1      -1.845  12.618  19.325  0.00  0.00    +0.000 C 
BRANCH  26  27
ATOM     27  C   UNL     1      -2.617  11.730  18.416  0.00  0.00    +0.000 A 
ATOM     28  C   UNL     1      -2.254  10.902  17.374  0.00  0.00    +0.000 A 
ATOM     29  C   UNL     1      -3.455  10.377  16.842  0.00  0.00    +0.000 A 
ATOM     30  C   UNL     1      -4.471  10.876  17.622  0.00  0.00    +0.000 A 
ATOM     31  O   UNL     1      -3.972  11.694  18.585  0.00  0.00    +0.000 OA
ENDBRANCH  26  27
ENDBRANCH   5  26
TORSDOF 6
ENDMDL
MODEL 2
REMARK VINA RESULT:      -7.3      4.152      6.567
REMARK  Name = 
REMARK  7 active torsions:
REMARK  status: ('A' for Active; 'I' for Inactive)
REMARK    1  A    between atoms: C_1  and  C_2
REMARK    2  A    between atoms: C_6  and  C_7
REMARK    3  A    between atoms: C_7  and  C_9
REMARK    4  A    between atoms: C_10  and  O_11
REMARK    5  A    between atoms: N_14  and  C_15
REMARK    6  A    between atoms: C_15  and  C_16
REMARK    7  A    between atoms: C_21  and  C_22
REMARK                            x       y       z     vdW  Elec       q    Type
REMARK                         _______ _______ _______ _____ _____    ______ ____
ROOT
ATOM      1  C   UNL     1      -4.663  13.263  23.233  0.00  0.00    +0.000 C 
ATOM      2  C   UNL     1      -5.354  12.584  24.167  0.00  0.00    +0.000 C 
ATOM      3  C   UNL     1      -6.677  12.257  23.579  0.00  0.00    +0.000 C 
ATOM      4  O   UNL     1      -7.534  11.557  24.101  0.00  0.00    +0.000 OA
ATOM      5  N   UNL     1      -6.734  12.867  22.350  0.00  0.00    +0.000 N 
ATOM      6  C   UNL     1      -5.466  13.454  21.975  0.00  0.00    +0.000 C 
ENDROOT
BRANCH   6   7
ATOM      7  C   UNL     1      -5.687  14.858  21.491  0.00  0.00    +0.000 A 
ATOM      8  C   UNL     1      -5.392  15.414  20.260  0.00  0.00    +0.000 A 
ATOM      9  C   UNL     1      -5.844  16.761  20.154  0.00  0.00    +0.000 A 
ATOM     10  C   UNL     1      -6.389  17.220  21.327  0.00  0.00    +0.000 A 
ATOM     11  S   UNL     1      -6.347  16.035  22.557  0.00  0.00    +0.000 S 
ENDBRANCH   6   7
BRANCH   1  12
ATOM     12  C   UNL     1      -3.274  13.694  23.532  0.00  0.00    +0.000 C 
ATOM     13  O   UNL     1      -3.080  14.677  24.249  0.00  0.00    +0.000 OA
BRANCH  12  19
ATOM     14  C   UNL     1       0.801   8.353  21.190  0.00  0.00    +0.000 C 
ATOM     15  C   UNL     1       0.895   9.530  22.150  0.00  0.00    +0.000 C 
ATOM     16  C   UNL     1      -0.327   9.592  23.077  0.00  0.00    +0.000 C 
ATOM     17  C   UNL     1      -0.795  10.962  22.798  0.00  0.00    +0.000 A 
ATOM     18  C   UNL     1      -1.871  11.622  23.359  0.00  0.00    +0.000 A 
ATOM     19  C   UNL     1      -2.102  12.950  23.007  0.00  0.00    +0.000 A 
ATOM     20  C   UNL     1      -1.166  13.623  22.187  0.00  0.00    +0.000 A 
ATOM     21  C   UNL     1      -0.102  12.925  21.598  0.00  0.00    +0.000 A 
ATOM     22  C   UNL     1       0.044  11.586  21.901  0.00  0.00    +0.000 A 
ATOM     23  O   UNL     1       1.021  10.771  21.402  0.00  0.00    +0.000 OA
ENDBRANCH  12  19
ENDBRANCH   1  12
BRANCH   2  24
ATOM     24  O   UNL     1      -4.945  12.189  25.410  0.00  0.00    +0.000 OA
ATOM     25  H   UNL     1      -5.333  12.814  26.060  0.00  0.00    +0.000 HD
ENDBRANCH   2  24
BRANCH   5  26
ATOM     26  C   UNL     1      -7.806  12.632  21.387  0.00  0.00    +0.000 C 
BRANCH  26  27
ATOM     27  C   UNL     1      -7.520  11.419  20.576  0.00  0.00    +0.000 A 
ATOM     28  C   UNL     1      -7.742  10.074  20.782  0.00  0.00    +0.000 A 
ATOM     29  C   UNL     1      -7.171   9.400  19.676  0.00  0.00    +0.000 A 
ATOM     30  C   UNL     1      -6.682  10.377  18.842  0.00  0.00    +0.000 A 
ATOM     31  O   UNL     1      -6.894  11.608  19.376  0.00  0.00    +0.000 OA
ENDBRANCH  26  27
ENDBRANCH   5  26
TORSDOF 6
ENDMDL
MODEL 3
REMARK VINA RESULT:      -7.0      0.808      1.510
REMARK  Name = 
REMARK  7 active torsions:
REMARK  status: ('A' for Active; 'I' for Inactive)
REMARK    1  A    between atoms: C_1  and  C_2
REMARK    2  A    between atoms: C_6  and  C_7
REMARK    3  A    between atoms: C_7  and  C_9
REMARK    4  A    between atoms: C_10  and  O_11
REMARK    5  A    between atoms: N_14  and  C_15
REMARK    6  A    between atoms: C_15  and  C_16
REMARK    7  A    between atoms: C_21  and  C_22
REMARK                            x       y       z     vdW  Elec       q    Type
REMARK                         _______ _______ _______ _____ _____    ______ ____
ROOT
ATOM      1  C   UNL     1       0.230  10.279  21.348  0.00  0.00    +0.000 C 
ATOM      2  C   UNL     1      -0.730  10.617  22.228  0.00  0.00    +0.000 C 
ATOM      3  C   UNL     1      -1.645  11.559  21.537  0.00  0.00    +0.000 C 
ATOM      4  O   UNL     1      -2.692  11.999  21.995  0.00  0.00    +0.000 OA
ATOM      5  N   UNL     1      -1.104  11.814  20.301  0.00  0.00    +0.000 N 
ATOM      6  C   UNL     1       0.041  10.972  20.026  0.00  0.00    +0.000 C 
ENDROOT
BRANCH   6   7
ATOM      7  C   UNL     1       1.170  11.817  19.510  0.00  0.00    +0.000 A 
ATOM      8  C   UNL     1       1.887  11.692  18.334  0.00  0.00    +0.000 A 
ATOM      9  C   UNL     1       2.823  12.753  18.158  0.00  0.00    +0.000 A 
ATOM     10  C   UNL     1       2.856  13.600  19.236  0.00  0.00    +0.000 A 
ATOM     11  S   UNL     1       1.769  13.116  20.462  0.00  0.00    +0.000 S 
ENDBRANCH   6   7
BRANCH   1  12
ATOM     12  C   UNL     1       1.277   9.309  21.755  0.00  0.00    +0.000 C 
ATOM     13  O   UNL     1       1.890   9.478  22.811  0.00  0.00    +0.000 OA
BRANCH  12  19
ATOM     14  C   UNL     1       4.639   4.932  17.266  0.00  0.00    +0.000 C 
ATOM     15  C   UNL     1       3.231   5.449  17.523  0.00  0.00    +0.000 C 
ATOM     16  C   UNL     1       3.220   6.975  17.694  0.00  0.00    +0.000 C 
ATOM     17  C   UNL     1       2.578   7.083  19.017  0.00  0.00    +0.000 A 
ATOM     18  C   UNL     1       2.266   8.231  19.717  0.00  0.00    +0.000 A 
ATOM     19  C   UNL     1       1.590   8.116  20.931  0.00  0.00    +0.000 A 
ATOM     20  C   UNL     1       1.133   6.844  21.351  0.00  0.00    +0.000 A 
ATOM     21  C   UNL     1       1.494   5.687  20.645  0.00  0.00    +0.000 A 
ATOM     22  C   UNL     1       2.241   5.835  19.494  0.00  0.00    +0.000 A 
ATOM     23  O   UNL     1       2.676   4.808  18.704  0.00  0.00    +0.000 OA
ENDBRANCH  12  19
ENDBRANCH   1  12
BRANCH   2  24
ATOM     24  O   UNL     1      -0.912  10.164  23.505  0.00  0.00    +0.000 OA
ATOM     25  H   UNL     1      -1.673   9.543  23.492  0.00  0.00    +0.000 HD
ENDBRANCH   2  24
BRANCH   5  26
ATOM     26  C   UNL     1      -1.804  12.554  19.256  0.00  0.00    +0.000 C 
BRANCH  26  27
ATOM     27  C   UNL     1      -2.531  11.621  18.355  0.00  0.00    +0.000 A 
ATOM     28  C   UNL     1      -2.123  10.574  17.555  0.00  0.00    +0.000 A 
ATOM     29  C   UNL     1      -3.275  10.121  16.870  0.00  0.00    +0.000 A 
ATOM     30  C   UNL     1      -4.322  10.884  17.331  0.00  0.00    +0.000 A 
ATOM     31  O   UNL     1      -3.881  11.795  18.238  0.00  0.00    +0.000 OA
ENDBRANCH  26  27
ENDBRANCH   5  26
TORSDOF 6
ENDMDL
MODEL 4
REMARK VINA RESULT:      -7.0      4.374      8.511
REMARK  Name = 
REMARK  7 active torsions:
REMARK  status: ('A' for Active; 'I' for Inactive)
REMARK    1  A    between atoms: C_1  and  C_2
REMARK    2  A    between atoms: C_6  and  C_7
REMARK    3  A    between atoms: C_7  and  C_9
REMARK    4  A    between atoms: C_10  and  O_11
REMARK    5  A    between atoms: N_14  and  C_15
REMARK    6  A    between atoms: C_15  and  C_16
REMARK    7  A    between atoms: C_21  and  C_22
REMARK                            x       y       z     vdW  Elec       q    Type
REMARK                         _______ _______ _______ _____ _____    ______ ____
ROOT
ATOM      1  C   UNL     1       3.306   5.009  18.637  0.00  0.00    +0.000 C 
ATOM      2  C   UNL     1       2.434   4.442  17.783  0.00  0.00    +0.000 C 
ATOM      3  C   UNL     1       3.226   3.627  16.828  0.00  0.00    +0.000 C 
ATOM      4  O   UNL     1       2.764   2.887  15.970  0.00  0.00    +0.000 OA
ATOM      5  N   UNL     1       4.552   3.849  17.110  0.00  0.00    +0.000 N 
ATOM      6  C   UNL     1       4.727   4.635  18.313  0.00  0.00    +0.000 C 
ENDROOT
BRANCH   6   7
ATOM      7  C   UNL     1       5.702   5.746  18.047  0.00  0.00    +0.000 A 
ATOM      8  C   UNL     1       5.562   6.852  17.229  0.00  0.00    +0.000 A 
ATOM      9  C   UNL     1       6.680   7.732  17.318  0.00  0.00    +0.000 A 
ATOM     10  C   UNL     1       7.670   7.234  18.127  0.00  0.00    +0.000 A 
ATOM     11  S   UNL     1       7.260   5.706  18.771  0.00  0.00    +0.000 S 
ENDBRANCH   6   7
BRANCH   1  12
ATOM     12  C   UNL     1       2.790   5.862  19.737  0.00  0.00    +0.000 C 
ATOM     13  O   UNL     1       2.822   5.449  20.897  0.00  0.00    +0.000 OA
BRANCH  12  19
ATOM     14  C   UNL     1       0.711  12.585  20.786  0.00  0.00    +0.000 C 
ATOM     15  C   UNL     1       0.203  11.321  20.108  0.00  0.00    +0.000 C 
ATOM     16  C   UNL     1       0.329  10.103  21.033  0.00  0.00    +0.000 C 
ATOM     17  C   UNL     1       1.132   9.209  20.178  0.00  0.00    +0.000 A 
ATOM     18  C   UNL     1       1.561   7.927  20.457  0.00  0.00    +0.000 A 
ATOM     19  C   UNL     1       2.255   7.222  19.476  0.00  0.00    +0.000 A 
ATOM     20  C   UNL     1       2.394   7.785  18.185  0.00  0.00    +0.000 A 
ATOM     21  C   UNL     1       1.985   9.102  17.935  0.00  0.00    +0.000 A 
ATOM     22  C   UNL     1       1.380   9.802  18.959  0.00  0.00    +0.000 A 
ATOM     23  O   UNL     1       0.936  11.092  18.874  0.00  0.00    +0.000 OA
ENDBRANCH  12  19
ENDBRANCH   1  12
BRANCH   2  24
ATOM     24  O   UNL     1       1.070   4.518  17.783  0.00  0.00    +0.000 OA
ATOM     25  H   UNL     1       0.827   5.468  17.751  0.00  0.00    +0.000 HD
ENDBRANCH   2  24
BRANCH   5  26
ATOM     26  C   UNL     1       5.639   3.087  16.504  0.00  0.00    +0.000 C 
BRANCH  26  27
ATOM     27  C   UNL     1       6.118   3.759  15.266  0.00  0.00    +0.000 A 
ATOM     28  C   UNL     1       5.662   3.772  13.965  0.00  0.00    +0.000 A 
ATOM     29  C   UNL     1       6.594   4.534  13.221  0.00  0.00    +0.000 A 
ATOM     30  C   UNL     1       7.531   4.980  14.123  0.00  0.00    +0.000 A 
ATOM     31  O   UNL     1       7.248   4.519  15.369  0.00  0.00    +0.000 OA
ENDBRANCH  26  27
ENDBRANCH   5  26
TORSDOF 6
ENDMDL
MODEL 5
REMARK VINA RESULT:      -6.9      0.848      1.115
REMARK  Name = 
REMARK  7 active torsions:
REMARK  status: ('A' for Active; 'I' for Inactive)
REMARK    1  A    between atoms: C_1  and  C_2
REMARK    2  A    between atoms: C_6  and  C_7
REMARK    3  A    between atoms: C_7  and  C_9
REMARK    4  A    between atoms: C_10  and  O_11
REMARK    5  A    between atoms: N_14  and  C_15
REMARK    6  A    between atoms: C_15  and  C_16
REMARK    7  A    between atoms: C_21  and  C_22
REMARK                            x       y       z     vdW  Elec       q    Type
REMARK                         _______ _______ _______ _____ _____    ______ ____
ROOT
ATOM      1  C   UNL     1       0.277  10.400  21.440  0.00  0.00    +0.000 C 
ATOM      2  C   UNL     1      -0.705  10.539  22.350  0.00  0.00    +0.000 C 
ATOM      3  C   UNL     1      -1.636  11.573  21.834  0.00  0.00    +0.000 C 
ATOM      4  O   UNL     1      -2.701  11.891  22.347  0.00  0.00    +0.000 OA
ATOM      5  N   UNL     1      -1.085  12.073  20.680  0.00  0.00    +0.000 N 
ATOM      6  C   UNL     1       0.088  11.329  20.272  0.00  0.00    +0.000 C 
ENDROOT
BRANCH   6   7
ATOM      7  C   UNL     1       1.200  12.284  19.948  0.00  0.00    +0.000 A 
ATOM      8  C   UNL     1       1.825  13.205  20.769  0.00  0.00    +0.000 A 
ATOM      9  C   UNL     1       2.907  13.863  20.114  0.00  0.00    +0.000 A 
ATOM     10  C   UNL     1       3.019  13.493  18.798  0.00  0.00    +0.000 A 
ATOM     11  S   UNL     1       1.820  12.364  18.347  0.00  0.00    +0.000 S 
ENDBRANCH   6   7
BRANCH   1  12
ATOM     12  C   UNL     1       1.345   9.396  21.676  0.00  0.00    +0.000 C 
ATOM     13  O   UNL     1       1.996   9.430  22.721  0.00  0.00    +0.000 OA
BRANCH  12  19
ATOM     14  C   UNL     1       1.246   3.108  18.348  0.00  0.00    +0.000 C 
ATOM     15  C   UNL     1       2.261   4.144  18.810  0.00  0.00    +0.000 C 
ATOM     16  C   UNL     1       2.001   4.570  20.262  0.00  0.00    +0.000 C 
ATOM     17  C   UNL     1       1.874   6.028  20.086  0.00  0.00    +0.000 A 
ATOM     18  C   UNL     1       1.651   6.984  21.057  0.00  0.00    +0.000 A 
ATOM     19  C   UNL     1       1.634   8.328  20.687  0.00  0.00    +0.000 A 
ATOM     20  C   UNL     1       1.966   8.685  19.359  0.00  0.00    +0.000 A 
ATOM     21  C   UNL     1       2.151   7.698  18.380  0.00  0.00    +0.000 A 
ATOM     22  C   UNL     1       2.072   6.375  18.767  0.00  0.00    +0.000 A 
ATOM     23  O   UNL     1       2.220   5.303  17.933  0.00  0.00    +0.000 OA
ENDBRANCH  12  19
ENDBRANCH   1  12
BRANCH   2  24
ATOM     24  O   UNL     1      -0.892   9.846  23.513  0.00  0.00    +0.000 OA
ATOM     25  H   UNL     1      -1.611   9.196  23.356  0.00  0.00    +0.000 HD
ENDBRANCH   2  24
BRANCH   5  26
ATOM     26  C   UNL     1      -1.790  12.982  19.782  0.00  0.00    +0.000 C 
BRANCH  26  27
ATOM     27  C   UNL     1      -2.485  12.220  18.711  0.00  0.00    +0.000 A 
ATOM     28  C   UNL     1      -3.747  11.672  18.611  0.00  0.00    +0.000 A 
ATOM     29  C   UNL     1      -3.791  10.994  17.370  0.00  0.00    +0.000 A 
ATOM     30  C   UNL     1      -2.574  11.212  16.769  0.00  0.00    +0.000 A 
ATOM     31  O   UNL     1      -1.775  11.961  17.573  0.00  0.00    +0.000 OA
ENDBRANCH  26  27
ENDBRANCH   5  26
TORSDOF 6
ENDMDL
MODEL 6
REMARK VINA RESULT:      -6.7      4.413      6.666
REMARK  Name = 
REMARK  7 active torsions:
REMARK  status: ('A' for Active; 'I' for Inactive)
REMARK    1  A    between atoms: C_1  and  C_2
REMARK    2  A    between atoms: C_6  and  C_7
REMARK    3  A    between atoms: C_7  and  C_9
REMARK    4  A    between atoms: C_10  and  O_11
REMARK    5  A    between atoms: N_14  and  C_15
REMARK    6  A    between atoms: C_15  and  C_16
REMARK    7  A    between atoms: C_21  and  C_22
REMARK                            x       y       z     vdW  Elec       q    Type
REMARK                         _______ _______ _______ _____ _____    ______ ____
ROOT
ATOM      1  C   UNL     1      -4.582  13.174  23.108  0.00  0.00    +0.000 C 
ATOM      2  C   UNL     1      -5.354  12.568  24.029  0.00  0.00    +0.000 C 
ATOM      3  C   UNL     1      -6.731  12.515  23.478  0.00  0.00    +0.000 C 
ATOM      4  O   UNL     1      -7.683  11.943  23.993  0.00  0.00    +0.000 OA
ATOM      5  N   UNL     1      -6.717  13.202  22.289  0.00  0.00    +0.000 N 
ATOM      6  C   UNL     1      -5.376  13.581  21.897  0.00  0.00    +0.000 C 
ENDROOT
BRANCH   6   7
ATOM      7  C   UNL     1      -5.361  15.031  21.503  0.00  0.00    +0.000 A 
ATOM      8  C   UNL     1      -5.148  15.595  20.259  0.00  0.00    +0.000 A 
ATOM      9  C   UNL     1      -5.308  17.011  20.275  0.00  0.00    +0.000 A 
ATOM     10  C   UNL     1      -5.550  17.492  21.537  0.00  0.00    +0.000 A 
ATOM     11  S   UNL     1      -5.575  16.244  22.702  0.00  0.00    +0.000 S 
ENDBRANCH   6   7
BRANCH   1  12
ATOM     12  C   UNL     1      -3.131  13.336  23.375  0.00  0.00    +0.000 C 
ATOM     13  O   UNL     1      -2.757  14.029  24.322  0.00  0.00    +0.000 OA
BRANCH  12  19
ATOM     14  C   UNL     1       2.025  12.298  18.584  0.00  0.00    +0.000 C 
ATOM     15  C   UNL     1       0.705  11.667  19.001  0.00  0.00    +0.000 C 
ATOM     16  C   UNL     1      -0.397  12.726  19.148  0.00  0.00    +0.000 C 
ATOM     17  C   UNL     1      -0.821  12.469  20.536  0.00  0.00    +0.000 A 
ATOM     18  C   UNL     1      -1.818  13.104  21.250  0.00  0.00    +0.000 A 
ATOM     19  C   UNL     1      -2.110  12.659  22.538  0.00  0.00    +0.000 A 
ATOM     20  C   UNL     1      -1.470  11.497  23.031  0.00  0.00    +0.000 A 
ATOM     21  C   UNL     1      -0.434  10.891  22.306  0.00  0.00    +0.000 A 
ATOM     22  C   UNL     1      -0.112  11.415  21.071  0.00  0.00    +0.000 A 
ATOM     23  O   UNL     1       0.874  10.943  20.251  0.00  0.00    +0.000 OA
ENDBRANCH  12  19
ENDBRANCH   1  12
BRANCH   2  24
ATOM     24  O   UNL     1      -4.985  12.029  25.230  0.00  0.00    +0.000 OA
ATOM     25  H   UNL     1      -4.060  12.309  25.405  0.00  0.00    +0.000 HD
ENDBRANCH   2  24
BRANCH   5  26
ATOM     26  C   UNL     1      -7.842  13.220  21.359  0.00  0.00    +0.000 C 
BRANCH  26  27
ATOM     27  C   UNL     1      -7.521  12.430  20.140  0.00  0.00    +0.000 A 
ATOM     28  C   UNL     1      -7.216  11.102  19.931  0.00  0.00    +0.000 A 
ATOM     29  C   UNL     1      -6.927  10.969  18.552  0.00  0.00    +0.000 A 
ATOM     30  C   UNL     1      -7.122  12.212  17.998  0.00  0.00    +0.000 A 
ATOM     31  O   UNL     1      -7.489  13.106  18.953  0.00  0.00    +0.000 OA
ENDBRANCH  26  27
ENDBRANCH   5  26
TORSDOF 6
ENDMDL
MODEL 7
REMARK VINA RESULT:      -6.6      3.047      5.766
REMARK  Name = 
REMARK  7 active torsions:
REMARK  status: ('A' for Active; 'I' for Inactive)
REMARK    1  A    between atoms: C_1  and  C_2
REMARK    2  A    between atoms: C_6  and  C_7
REMARK    3  A    between atoms: C_7  and  C_9
REMARK    4  A    between atoms: C_10  and  O_11
REMARK    5  A    between atoms: N_14  and  C_15
REMARK    6  A    between atoms: C_15  and  C_16
REMARK    7  A    between atoms: C_21  and  C_22
REMARK                            x       y       z     vdW  Elec       q    Type
REMARK                         _______ _______ _______ _____ _____    ______ ____
ROOT
ATOM      1  C   UNL     1       1.473  12.227  19.311  0.00  0.00    +0.000 C 
ATOM      2  C   UNL     1       2.321  12.719  18.389  0.00  0.00    +0.000 C 
ATOM      3  C   UNL     1       3.002  13.887  19.001  0.00  0.00    +0.000 C 
ATOM      4  O   UNL     1       3.915  14.525  18.494  0.00  0.00    +0.000 OA
ATOM      5  N   UNL     1       2.428  14.090  20.233  0.00  0.00    +0.000 N 
ATOM      6  C   UNL     1       1.509  13.028  20.584  0.00  0.00    +0.000 C 
ENDROOT
BRANCH   6   7
ATOM      7  C   UNL     1       0.221  13.624  21.075  0.00  0.00    +0.000 A 
ATOM      8  C   UNL     1      -0.407  13.461  22.296  0.00  0.00    +0.000 A 
ATOM      9  C   UNL     1      -1.572  14.272  22.416  0.00  0.00    +0.000 A 
ATOM     10  C   UNL     1      -1.847  14.960  21.261  0.00  0.00    +0.000 A 
ATOM     11  S   UNL     1      -0.711  14.622  20.031  0.00  0.00    +0.000 S 
ENDBRANCH   6   7
BRANCH   1  12
ATOM     12  C   UNL     1       0.673  11.020  18.987  0.00  0.00    +0.000 C 
ATOM     13  O   UNL     1      -0.426  11.142  18.443  0.00  0.00    +0.000 OA
BRANCH  12  19
ATOM     14  C   UNL     1       4.818   5.237  18.974  0.00  0.00    +0.000 C 
ATOM     15  C   UNL     1       3.345   5.592  18.828  0.00  0.00    +0.000 C 
ATOM     16  C   UNL     1       3.146   6.745  17.834  0.00  0.00    +0.000 C 
ATOM     17  C   UNL     1       2.407   7.695  18.685  0.00  0.00    +0.000 A 
ATOM     18  C   UNL     1       1.917   8.939  18.340  0.00  0.00    +0.000 A 
ATOM     19  C   UNL     1       1.178   9.655  19.280  0.00  0.00    +0.000 A 
ATOM     20  C   UNL     1       0.844   9.043  20.511  0.00  0.00    +0.000 A 
ATOM     21  C   UNL     1       1.383   7.795  20.856  0.00  0.00    +0.000 A 
ATOM     22  C   UNL     1       2.185   7.155  19.933  0.00  0.00    +0.000 A 
ATOM     23  O   UNL     1       2.789   5.944  20.123  0.00  0.00    +0.000 OA
ENDBRANCH  12  19
ENDBRANCH   1  12
BRANCH   2  24
ATOM     24  O   UNL     1       2.591  12.239  17.138  0.00  0.00    +0.000 OA
ATOM     25  H   UNL     1       1.896  11.581  16.919  0.00  0.00    +0.000 HD
ENDBRANCH   2  24
BRANCH   5  26
ATOM     26  C   UNL     1       2.949  15.036  21.214  0.00  0.00    +0.000 C 
BRANCH  26  27
ATOM     27  C   UNL     1       4.299  14.616  21.675  0.00  0.00    +0.000 A 
ATOM     28  C   UNL     1       5.572  15.070  21.400  0.00  0.00    +0.000 A 
ATOM     29  C   UNL     1       6.462  14.208  22.084  0.00  0.00    +0.000 A 
ATOM     30  C   UNL     1       5.676  13.314  22.773  0.00  0.00    +0.000 A 
ATOM     31  O   UNL     1       4.361  13.557  22.536  0.00  0.00    +0.000 OA
ENDBRANCH  26  27
ENDBRANCH   5  26
TORSDOF 6
ENDMDL
MODEL 8
REMARK VINA RESULT:      -6.6      3.090      5.004
REMARK  Name = 
REMARK  7 active torsions:
REMARK  status: ('A' for Active; 'I' for Inactive)
REMARK    1  A    between atoms: C_1  and  C_2
REMARK    2  A    between atoms: C_6  and  C_7
REMARK    3  A    between atoms: C_7  and  C_9
REMARK    4  A    between atoms: C_10  and  O_11
REMARK    5  A    between atoms: N_14  and  C_15
REMARK    6  A    between atoms: C_15  and  C_16
REMARK    7  A    between atoms: C_21  and  C_22
REMARK                            x       y       z     vdW  Elec       q    Type
REMARK                         _______ _______ _______ _____ _____    ______ ____
ROOT
ATOM      1  C   UNL     1       1.281  11.443  19.141  0.00  0.00    +0.000 C 
ATOM      2  C   UNL     1       2.126  12.161  18.379  0.00  0.00    +0.000 C 
ATOM      3  C   UNL     1       2.482  13.378  19.151  0.00  0.00    +0.000 C 
ATOM      4  O   UNL     1       3.310  14.215  18.816  0.00  0.00    +0.000 OA
ATOM      5  N   UNL     1       1.730  13.362  20.300  0.00  0.00    +0.000 N 
ATOM      6  C   UNL     1       1.000  12.122  20.453  0.00  0.00    +0.000 C 
ENDROOT
BRANCH   6   7
ATOM      7  C   UNL     1      -0.432  12.423  20.795  0.00  0.00    +0.000 A 
ATOM      8  C   UNL     1      -1.440  12.905  19.981  0.00  0.00    +0.000 A 
ATOM      9  C   UNL     1      -2.693  12.969  20.656  0.00  0.00    +0.000 A 
ATOM     10  C   UNL     1      -2.589  12.620  21.979  0.00  0.00    +0.000 A 
ATOM     11  S   UNL     1      -0.984  12.227  22.410  0.00  0.00    +0.000 S 
ENDBRANCH   6   7
BRANCH   1  12
ATOM     12  C   UNL     1       0.779  10.141  18.634  0.00  0.00    +0.000 C 
ATOM     13  O   UNL     1      -0.241  10.105  17.944  0.00  0.00    +0.000 OA
BRANCH  12  19
ATOM     14  C   UNL     1       5.774   5.075  18.553  0.00  0.00    +0.000 C 
ATOM     15  C   UNL     1       4.263   5.195  18.429  0.00  0.00    +0.000 C 
ATOM     16  C   UNL     1       3.871   6.302  17.439  0.00  0.00    +0.000 C 
ATOM     17  C   UNL     1       3.005   7.127  18.302  0.00  0.00    +0.000 A 
ATOM     18  C   UNL     1       2.322   8.279  17.966  0.00  0.00    +0.000 A 
ATOM     19  C   UNL     1       1.495   8.872  18.918  0.00  0.00    +0.000 A 
ATOM     20  C   UNL     1       1.279   8.217  20.153  0.00  0.00    +0.000 A 
ATOM     21  C   UNL     1       2.012   7.069  20.489  0.00  0.00    +0.000 A 
ATOM     22  C   UNL     1       2.889   6.561  19.553  0.00  0.00    +0.000 A 
ATOM     23  O   UNL     1       3.677   5.459  19.733  0.00  0.00    +0.000 OA
ENDBRANCH  12  19
ENDBRANCH   1  12
BRANCH   2  24
ATOM     24  O   UNL     1       2.639  11.851  17.150  0.00  0.00    +0.000 OA
ATOM     25  H   UNL     1       3.122  12.641  16.826  0.00  0.00    +0.000 HD
ENDBRANCH   2  24
BRANCH   5  26
ATOM     26  C   UNL     1       1.929  14.299  21.401  0.00  0.00    +0.000 C 
BRANCH  26  27
ATOM     27  C   UNL     1       1.376  15.635  21.053  0.00  0.00    +0.000 A 
ATOM     28  C   UNL     1       0.094  16.099  20.841  0.00  0.00    +0.000 A 
ATOM     29  C   UNL     1       0.217  17.455  20.458  0.00  0.00    +0.000 A 
ATOM     30  C   UNL     1       1.559  17.749  20.510  0.00  0.00    +0.000 A 
ATOM     31  O   UNL     1       2.271  16.652  20.876  0.00  0.00    +0.000 OA
ENDBRANCH  26  27
ENDBRANCH   5  26
TORSDOF 6
ENDMDL
MODEL 9
REMARK VINA RESULT:      -6.5      2.877      4.723
REMARK  Name = 
REMARK  7 active torsions:
REMARK  status: ('A' for Active; 'I' for Inactive)
REMARK    1  A    between atoms: C_1  and  C_2
REMARK    2  A    between atoms: C_6  and  C_7
REMARK    3  A    between atoms: C_7  and  C_9
REMARK    4  A    between atoms: C_10  and  O_11
REMARK    5  A    between atoms: N_14  and  C_15
REMARK    6  A    between atoms: C_15  and  C_16
REMARK    7  A    between atoms: C_21  and  C_22
REMARK                            x       y       z     vdW  Elec       q    Type
REMARK                         _______ _______ _______ _____ _____    ______ ____
ROOT
ATOM      1  C   UNL     1       1.396  11.443  19.191  0.00  0.00    +0.000 C 
ATOM      2  C   UNL     1       2.156  12.228  18.406  0.00  0.00    +0.000 C 
ATOM      3  C   UNL     1       2.583  13.386  19.231  0.00  0.00    +0.000 C 
ATOM      4  O   UNL     1       3.369  14.257  18.882  0.00  0.00    +0.000 OA
ATOM      5  N   UNL     1       1.950  13.273  20.445  0.00  0.00    +0.000 N 
ATOM      6  C   UNL     1       1.245  12.016  20.574  0.00  0.00    +0.000 C 
ENDROOT
BRANCH   6   7
ATOM      7  C   UNL     1      -0.146  12.272  21.079  0.00  0.00    +0.000 A 
ATOM      8  C   UNL     1      -0.709  11.934  22.295  0.00  0.00    +0.000 A 
ATOM      9  C   UNL     1      -2.035  12.438  22.435  0.00  0.00    +0.000 A 
ATOM     10  C   UNL     1      -2.473  13.067  21.297  0.00  0.00    +0.000 A 
ATOM     11  S   UNL     1      -1.297  13.041  20.059  0.00  0.00    +0.000 S 
ENDBRANCH   6   7
BRANCH   1  12
ATOM     12  C   UNL     1       0.852  10.177  18.637  0.00  0.00    +0.000 C 
ATOM     13  O   UNL     1      -0.251  10.175  18.087  0.00  0.00    +0.000 OA
BRANCH  12  19
ATOM     14  C   UNL     1       2.528   3.397  19.990  0.00  0.00    +0.000 C 
ATOM     15  C   UNL     1       3.146   4.780  20.131  0.00  0.00    +0.000 C 
ATOM     16  C   UNL     1       2.161   5.768  20.772  0.00  0.00    +0.000 C 
ATOM     17  C   UNL     1       2.143   6.822  19.742  0.00  0.00    +0.000 A 
ATOM     18  C   UNL     1       1.441   8.011  19.756  0.00  0.00    +0.000 A 
ATOM     19  C   UNL     1       1.619   8.909  18.705  0.00  0.00    +0.000 A 
ATOM     20  C   UNL     1       2.600   8.640  17.722  0.00  0.00    +0.000 A 
ATOM     21  C   UNL     1       3.274   7.410  17.705  0.00  0.00    +0.000 A 
ATOM     22  C   UNL     1       3.005   6.507  18.713  0.00  0.00    +0.000 A 
ATOM     23  O   UNL     1       3.571   5.269  18.830  0.00  0.00    +0.000 OA
ENDBRANCH  12  19
ENDBRANCH   1  12
BRANCH   2  24
ATOM     24  O   UNL     1       2.545  12.020  17.112  0.00  0.00    +0.000 OA
ATOM     25  H   UNL     1       2.346  11.084  16.893  0.00  0.00    +0.000 HD
ENDBRANCH   2  24
BRANCH   5  26
ATOM     26  C   UNL     1       2.254  14.125  21.590  0.00  0.00    +0.000 C 
BRANCH  26  27
ATOM     27  C   UNL     1       1.199  15.159  21.764  0.00  0.00    +0.000 A 
ATOM     28  C   UNL     1       0.730  16.172  20.954  0.00  0.00    +0.000 A 
ATOM     29  C   UNL     1      -0.234  16.877  21.712  0.00  0.00    +0.000 A 
ATOM     30  C   UNL     1      -0.331  16.220  22.916  0.00  0.00    +0.000 A 
ATOM     31  O   UNL     1       0.532  15.172  22.956  0.00  0.00    +0.000 OA
ENDBRANCH  26  27
ENDBRANCH   5  26
TORSDOF 6
ENDMDL
