MODEL 1
REMARK VINA RESULT:      -9.0      0.000      0.000
REMARK  Name = 
REMARK  6 active torsions:
REMARK  status: ('A' for Active; 'I' for Inactive)
REMARK    1  A    between atoms: C_2  and  C_4
REMARK    2  A    between atoms: C_8  and  O_9
REMARK    3  A    between atoms: O_9  and  C_10
REMARK    4  A    between atoms: C_10  and  C_11
REMARK    5  A    between atoms: C_15  and  N_16
REMARK    6  A    between atoms: C_17  and  C_19
REMARK                            x       y       z     vdW  Elec       q    Type
REMARK                         _______ _______ _______ _____ _____    ______ ____
ROOT
ATOM      1  C   UNL     1       2.696   3.619  18.739  0.00  0.00    +0.000 A 
ATOM      2  C   UNL     1       3.022   2.667  19.708  0.00  0.00    +0.000 A 
ATOM      3  C   UNL     1       2.685   2.877  21.037  0.00  0.00    +0.000 A 
ATOM      4  C   UNL     1       2.062   4.069  21.413  0.00  0.00    +0.000 A 
ATOM      5  C   UNL     1       1.777   5.067  20.484  0.00  0.00    +0.000 A 
ATOM      6  C   UNL     1       2.093   4.844  19.139  0.00  0.00    +0.000 A 
ENDROOT
BRANCH   5   7
ATOM      7  N   UNL     1       1.158   6.307  20.816  0.00  0.00    +0.000 N 
ATOM      8  C   UNL     1       1.580   7.549  20.337  0.00  0.00    +0.000 C 
ATOM      9  O   UNL     1       2.493   7.743  19.552  0.00  0.00    +0.000 OA
ATOM     10  H   UNL     1       0.423   6.279  21.474  0.00  0.00    +0.000 HD
BRANCH   8  11
ATOM     11  C   UNL     1       0.888   8.757  20.909  0.00  0.00    +0.000 A 
ATOM     12  C   UNL     1       0.915   8.740  22.339  0.00  0.00    +0.000 A 
ATOM     13  C   UNL     1       0.269   9.731  23.073  0.00  0.00    +0.000 A 
ATOM     14  C   UNL     1      -0.470  10.682  22.386  0.00  0.00    +0.000 A 
ATOM     15  C   UNL     1      -0.540  10.680  21.009  0.00  0.00    +0.000 A 
ATOM     16  C   UNL     1      -1.413  11.562  20.395  0.00  0.00    +0.000 A 
ATOM     17  C   UNL     1      -1.653  11.478  19.041  0.00  0.00    +0.000 A 
ATOM     18  C   UNL     1      -0.610  10.984  18.253  0.00  0.00    +0.000 A 
ATOM     19  C   UNL     1       0.227  10.031  18.807  0.00  0.00    +0.000 A 
ATOM     20  C   UNL     1       0.205   9.756  20.209  0.00  0.00    +0.000 A 
ENDBRANCH   8  11
ENDBRANCH   5   7
BRANCH   1  21
ATOM     21  C   UNL     1       2.986   3.332  17.285  0.00  0.00    +0.000 C 
BRANCH  21  22
ATOM     22  O   UNL     1       4.373   3.051  17.117  0.00  0.00    +0.000 OA
BRANCH  22  27
ATOM     23  C   UNL     1       6.875   5.655  17.924  0.00  0.00    +0.000 A 
ATOM     24  C   UNL     1       6.791   6.364  16.726  0.00  0.00    +0.000 A 
ATOM     25  N   UNL     1       5.958   6.003  15.729  0.00  0.00    +0.000 NA
ATOM     26  C   UNL     1       5.184   4.912  15.936  0.00  0.00    +0.000 A 
ATOM     27  C   UNL     1       5.205   4.137  17.089  0.00  0.00    +0.000 A 
ATOM     28  C   UNL     1       6.075   4.536  18.104  0.00  0.00    +0.000 A 
BRANCH  23  30
ATOM     29  N   UNL     1       8.392   7.289  18.911  0.00  0.00    +0.000 N 
ATOM     30  C   UNL     1       7.810   6.050  19.001  0.00  0.00    +0.000 C 
ATOM     31  O   UNL     1       8.040   5.312  19.939  0.00  0.00    +0.000 OA
ATOM     32  H   UNL     1       8.946   7.578  19.707  0.00  0.00    +0.000 HD
ATOM     33  H   UNL     1       8.051   8.019  18.303  0.00  0.00    +0.000 HD
ENDBRANCH  23  30
ENDBRANCH  22  27
ENDBRANCH  21  22
ENDBRANCH   1  21
TORSDOF 6
ENDMDL
MODEL 2
REMARK VINA RESULT:      -8.9      2.612      4.312
REMARK  Name = 
REMARK  6 active torsions:
REMARK  status: ('A' for Active; 'I' for Inactive)
REMARK    1  A    between atoms: C_2  and  C_4
REMARK    2  A    between atoms: C_8  and  O_9
REMARK    3  A    between atoms: O_9  and  C_10
REMARK    4  A    between atoms: C_10  and  C_11
REMARK    5  A    between atoms: C_15  and  N_16
REMARK    6  A    between atoms: C_17  and  C_19
REMARK                            x       y       z     vdW  Elec       q    Type
REMARK                         _______ _______ _______ _____ _____    ______ ____
ROOT
ATOM      1  C   UNL     1       4.703   4.179  17.230  0.00  0.00    +0.000 A 
ATOM      2  C   UNL     1       3.890   3.050  17.360  0.00  0.00    +0.000 A 
ATOM      3  C   UNL     1       2.553   3.186  17.701  0.00  0.00    +0.000 A 
ATOM      4  C   UNL     1       2.031   4.454  17.965  0.00  0.00    +0.000 A 
ATOM      5  C   UNL     1       2.826   5.597  17.904  0.00  0.00    +0.000 A 
ATOM      6  C   UNL     1       4.170   5.462  17.535  0.00  0.00    +0.000 A 
ENDROOT
BRANCH   5   7
ATOM      7  N   UNL     1       2.349   6.911  18.178  0.00  0.00    +0.000 N 
ATOM      8  C   UNL     1       2.080   7.398  19.459  0.00  0.00    +0.000 C 
ATOM      9  O   UNL     1       2.248   6.795  20.506  0.00  0.00    +0.000 OA
ATOM     10  H   UNL     1       2.142   7.484  17.402  0.00  0.00    +0.000 HD
BRANCH   8  11
ATOM     11  C   UNL     1       1.451   8.763  19.538  0.00  0.00    +0.000 A 
ATOM     12  C   UNL     1       1.841   9.578  18.428  0.00  0.00    +0.000 A 
ATOM     13  C   UNL     1       1.430  10.904  18.342  0.00  0.00    +0.000 A 
ATOM     14  C   UNL     1       0.704  11.438  19.396  0.00  0.00    +0.000 A 
ATOM     15  C   UNL     1       0.362  10.673  20.491  0.00  0.00    +0.000 A 
ATOM     16  C   UNL     1      -0.230  11.305  21.573  0.00  0.00    +0.000 A 
ATOM     17  C   UNL     1      -0.427  10.625  22.755  0.00  0.00    +0.000 A 
ATOM     18  C   UNL     1      -0.622   9.246  22.656  0.00  0.00    +0.000 A 
ATOM     19  C   UNL     1       0.030   8.569  21.640  0.00  0.00    +0.000 A 
ATOM     20  C   UNL     1       0.658   9.276  20.569  0.00  0.00    +0.000 A 
ENDBRANCH   8  11
ENDBRANCH   5   7
BRANCH   1  21
ATOM     21  C   UNL     1       6.131   4.020  16.767  0.00  0.00    +0.000 C 
BRANCH  21  22
ATOM     22  O   UNL     1       6.487   5.108  15.917  0.00  0.00    +0.000 OA
BRANCH  22  27
ATOM     23  C   UNL     1       6.221   3.680  12.514  0.00  0.00    +0.000 A 
ATOM     24  C   UNL     1       7.243   4.425  11.925  0.00  0.00    +0.000 A 
ATOM     25  N   UNL     1       7.968   5.328  12.614  0.00  0.00    +0.000 NA
ATOM     26  C   UNL     1       7.672   5.488  13.926  0.00  0.00    +0.000 A 
ATOM     27  C   UNL     1       6.667   4.801  14.596  0.00  0.00    +0.000 A 
ATOM     28  C   UNL     1       5.935   3.871  13.858  0.00  0.00    +0.000 A 
BRANCH  23  30
ATOM     29  N   UNL     1       4.158   3.089  11.357  0.00  0.00    +0.000 N 
ATOM     30  C   UNL     1       5.419   2.708  11.739  0.00  0.00    +0.000 C 
ATOM     31  O   UNL     1       5.866   1.619  11.438  0.00  0.00    +0.000 OA
ATOM     32  H   UNL     1       3.667   2.451  10.742  0.00  0.00    +0.000 HD
ATOM     33  H   UNL     1       3.842   4.048  11.363  0.00  0.00    +0.000 HD
ENDBRANCH  23  30
ENDBRANCH  22  27
ENDBRANCH  21  22
ENDBRANCH   1  21
TORSDOF 6
ENDMDL
MODEL 3
REMARK VINA RESULT:      -8.9      3.705      9.243
REMARK  Name = 
REMARK  6 active torsions:
REMARK  status: ('A' for Active; 'I' for Inactive)
REMARK    1  A    between atoms: C_2  and  C_4
REMARK    2  A    between atoms: C_8  and  O_9
REMARK    3  A    between atoms: O_9  and  C_10
REMARK    4  A    between atoms: C_10  and  C_11
REMARK    5  A    between atoms: C_15  and  N_16
REMARK    6  A    between atoms: C_17  and  C_19
REMARK                            x       y       z     vdW  Elec       q    Type
REMARK                         _______ _______ _______ _____ _____    ______ ____
ROOT
ATOM      1  C   UNL     1       0.069  11.106  18.976  0.00  0.00    +0.000 A 
ATOM      2  C   UNL     1       0.948  12.167  18.741  0.00  0.00    +0.000 A 
ATOM      3  C   UNL     1       2.192  11.933  18.176  0.00  0.00    +0.000 A 
ATOM      4  C   UNL     1       2.587  10.625  17.886  0.00  0.00    +0.000 A 
ATOM      5  C   UNL     1       1.761   9.537  18.162  0.00  0.00    +0.000 A 
ATOM      6  C   UNL     1       0.495   9.775  18.709  0.00  0.00    +0.000 A 
ENDROOT
BRANCH   5   7
ATOM      7  N   UNL     1       2.120   8.183  17.902  0.00  0.00    +0.000 N 
ATOM      8  C   UNL     1       2.427   7.247  18.892  0.00  0.00    +0.000 C 
ATOM      9  O   UNL     1       2.396   7.440  20.096  0.00  0.00    +0.000 OA
ATOM     10  H   UNL     1       2.212   7.917  16.956  0.00  0.00    +0.000 HD
BRANCH   8  11
ATOM     11  C   UNL     1       2.917   5.907  18.416  0.00  0.00    +0.000 A 
ATOM     12  C   UNL     1       4.013   6.048  17.506  0.00  0.00    +0.000 A 
ATOM     13  C   UNL     1       4.572   4.933  16.889  0.00  0.00    +0.000 A 
ATOM     14  C   UNL     1       3.989   3.694  17.114  0.00  0.00    +0.000 A 
ATOM     15  C   UNL     1       2.905   3.554  17.955  0.00  0.00    +0.000 A 
ATOM     16  C   UNL     1       2.280   2.320  18.017  0.00  0.00    +0.000 A 
ATOM     17  C   UNL     1       1.091   2.174  18.698  0.00  0.00    +0.000 A 
ATOM     18  C   UNL     1       0.883   3.033  19.780  0.00  0.00    +0.000 A 
ATOM     19  C   UNL     1       1.417   4.307  19.709  0.00  0.00    +0.000 A 
ATOM     20  C   UNL     1       2.372   4.651  18.703  0.00  0.00    +0.000 A 
ENDBRANCH   8  11
ENDBRANCH   5   7
BRANCH   1  21
ATOM     21  C   UNL     1      -1.316  11.389  19.504  0.00  0.00    +0.000 C 
BRANCH  21  22
ATOM     22  O   UNL     1      -2.217  10.376  19.064  0.00  0.00    +0.000 OA
BRANCH  22  27
ATOM     23  C   UNL     1      -3.718  10.622  15.691  0.00  0.00    +0.000 A 
ATOM     24  C   UNL     1      -4.756  11.494  16.019  0.00  0.00    +0.000 A 
ATOM     25  N   UNL     1      -4.935  11.968  17.268  0.00  0.00    +0.000 NA
ATOM     26  C   UNL     1      -4.052  11.568  18.213  0.00  0.00    +0.000 A 
ATOM     27  C   UNL     1      -2.995  10.695  17.985  0.00  0.00    +0.000 A 
ATOM     28  C   UNL     1      -2.834  10.223  16.682  0.00  0.00    +0.000 A 
BRANCH  23  30
ATOM     29  N   UNL     1      -4.681   9.860  13.585  0.00  0.00    +0.000 N 
ATOM     30  C   UNL     1      -3.547  10.093  14.320  0.00  0.00    +0.000 C 
ATOM     31  O   UNL     1      -2.442   9.888  13.856  0.00  0.00    +0.000 OA
ATOM     32  H   UNL     1      -4.538   9.597  12.617  0.00  0.00    +0.000 HD
ATOM     33  H   UNL     1      -5.585  10.240  13.824  0.00  0.00    +0.000 HD
ENDBRANCH  23  30
ENDBRANCH  22  27
ENDBRANCH  21  22
ENDBRANCH   1  21
TORSDOF 6
ENDMDL
MODEL 4
REMARK VINA RESULT:      -8.7      2.607      3.967
REMARK  Name = 
REMARK  6 active torsions:
REMARK  status: ('A' for Active; 'I' for Inactive)
REMARK    1  A    between atoms: C_2  and  C_4
REMARK    2  A    between atoms: C_8  and  O_9
REMARK    3  A    between atoms: O_9  and  C_10
REMARK    4  A    between atoms: C_10  and  C_11
REMARK    5  A    between atoms: C_15  and  N_16
REMARK    6  A    between atoms: C_17  and  C_19
REMARK                            x       y       z     vdW  Elec       q    Type
REMARK                         _______ _______ _______ _____ _____    ______ ____
ROOT
ATOM      1  C   UNL     1       4.580   5.864  17.074  0.00  0.00    +0.000 A 
ATOM      2  C   UNL     1       4.021   4.583  17.066  0.00  0.00    +0.000 A 
ATOM      3  C   UNL     1       2.799   4.349  17.679  0.00  0.00    +0.000 A 
ATOM      4  C   UNL     1       2.151   5.388  18.350  0.00  0.00    +0.000 A 
ATOM      5  C   UNL     1       2.707   6.663  18.430  0.00  0.00    +0.000 A 
ATOM      6  C   UNL     1       3.928   6.906  17.790  0.00  0.00    +0.000 A 
ENDROOT
BRANCH   5   7
ATOM      7  N   UNL     1       2.096   7.753  19.115  0.00  0.00    +0.000 N 
ATOM      8  C   UNL     1       1.503   7.657  20.375  0.00  0.00    +0.000 C 
ATOM      9  O   UNL     1       1.458   6.657  21.073  0.00  0.00    +0.000 OA
ATOM     10  H   UNL     1       2.043   8.612  18.632  0.00  0.00    +0.000 HD
BRANCH   8  11
ATOM     11  C   UNL     1       0.789   8.883  20.874  0.00  0.00    +0.000 A 
ATOM     12  C   UNL     1       0.800   8.944  22.304  0.00  0.00    +0.000 A 
ATOM     13  C   UNL     1       0.131   9.963  22.977  0.00  0.00    +0.000 A 
ATOM     14  C   UNL     1      -0.613  10.865  22.232  0.00  0.00    +0.000 A 
ATOM     15  C   UNL     1      -0.668  10.787  20.856  0.00  0.00    +0.000 A 
ATOM     16  C   UNL     1      -1.547  11.623  20.187  0.00  0.00    +0.000 A 
ATOM     17  C   UNL     1      -1.770  11.462  18.837  0.00  0.00    +0.000 A 
ATOM     18  C   UNL     1      -0.712  10.942  18.088  0.00  0.00    +0.000 A 
ATOM     19  C   UNL     1       0.132  10.032  18.700  0.00  0.00    +0.000 A 
ATOM     20  C   UNL     1       0.099   9.834  20.115  0.00  0.00    +0.000 A 
ENDBRANCH   8  11
ENDBRANCH   5   7
BRANCH   1  21
ATOM     21  C   UNL     1       5.863   6.121  16.322  0.00  0.00    +0.000 C 
BRANCH  21  22
ATOM     22  O   UNL     1       6.484   4.881  15.989  0.00  0.00    +0.000 OA
BRANCH  22  27
ATOM     23  C   UNL     1       6.224   3.591  12.532  0.00  0.00    +0.000 A 
ATOM     24  C   UNL     1       7.211   4.396  11.964  0.00  0.00    +0.000 A 
ATOM     25  N   UNL     1       7.913   5.295  12.682  0.00  0.00    +0.000 NA
ATOM     26  C   UNL     1       7.629   5.388  14.003  0.00  0.00    +0.000 A 
ATOM     27  C   UNL     1       6.658   4.637  14.655  0.00  0.00    +0.000 A 
ATOM     28  C   UNL     1       5.949   3.714  13.886  0.00  0.00    +0.000 A 
BRANCH  23  30
ATOM     29  N   UNL     1       6.028   1.411  11.457  0.00  0.00    +0.000 N 
ATOM     30  C   UNL     1       5.446   2.624  11.726  0.00  0.00    +0.000 C 
ATOM     31  O   UNL     1       4.327   2.888  11.332  0.00  0.00    +0.000 OA
ATOM     32  H   UNL     1       5.440   0.729  10.993  0.00  0.00    +0.000 HD
ATOM     33  H   UNL     1       6.828   1.056  11.959  0.00  0.00    +0.000 HD
ENDBRANCH  23  30
ENDBRANCH  22  27
ENDBRANCH  21  22
ENDBRANCH   1  21
TORSDOF 6
ENDMDL
MODEL 5
REMARK VINA RESULT:      -8.7      2.726      4.403
REMARK  Name = 
REMARK  6 active torsions:
REMARK  status: ('A' for Active; 'I' for Inactive)
REMARK    1  A    between atoms: C_2  and  C_4
REMARK    2  A    between atoms: C_8  and  O_9
REMARK    3  A    between atoms: O_9  and  C_10
REMARK    4  A    between atoms: C_10  and  C_11
REMARK    5  A    between atoms: C_15  and  N_16
REMARK    6  A    between atoms: C_17  and  C_19
REMARK                            x       y       z     vdW  Elec       q    Type
REMARK                         _______ _______ _______ _____ _____    ______ ____
ROOT
ATOM      1  C   UNL     1       4.554   5.778  17.144  0.00  0.00    +0.000 A 
ATOM      2  C   UNL     1       4.059   4.474  17.236  0.00  0.00    +0.000 A 
ATOM      3  C   UNL     1       2.847   4.229  17.865  0.00  0.00    +0.000 A 
ATOM      4  C   UNL     1       2.145   5.283  18.452  0.00  0.00    +0.000 A 
ATOM      5  C   UNL     1       2.637   6.587  18.433  0.00  0.00    +0.000 A 
ATOM      6  C   UNL     1       3.847   6.839  17.776  0.00  0.00    +0.000 A 
ENDROOT
BRANCH   5   7
ATOM      7  N   UNL     1       1.970   7.696  19.029  0.00  0.00    +0.000 N 
ATOM      8  C   UNL     1       1.710   8.901  18.374  0.00  0.00    +0.000 C 
ATOM      9  O   UNL     1       1.977   9.159  17.212  0.00  0.00    +0.000 OA
ATOM     10  H   UNL     1       1.734   7.616  19.984  0.00  0.00    +0.000 HD
BRANCH   8  11
ATOM     11  C   UNL     1       1.120  10.003  19.211  0.00  0.00    +0.000 A 
ATOM     12  C   UNL     1       1.379  11.287  18.634  0.00  0.00    +0.000 A 
ATOM     13  C   UNL     1       0.981  12.451  19.286  0.00  0.00    +0.000 A 
ATOM     14  C   UNL     1       0.405  12.339  20.542  0.00  0.00    +0.000 A 
ATOM     15  C   UNL     1       0.193  11.108  21.126  0.00  0.00    +0.000 A 
ATOM     16  C   UNL     1      -0.245  11.073  22.440  0.00  0.00    +0.000 A 
ATOM     17  C   UNL     1      -0.300   9.879  23.125  0.00  0.00    +0.000 A 
ATOM     18  C   UNL     1      -0.530   8.732  22.360  0.00  0.00    +0.000 A 
ATOM     19  C   UNL     1      -0.024   8.698  21.073  0.00  0.00    +0.000 A 
ATOM     20  C   UNL     1       0.474   9.882  20.445  0.00  0.00    +0.000 A 
ENDBRANCH   8  11
ENDBRANCH   5   7
BRANCH   1  21
ATOM     21  C   UNL     1       5.826   6.039  16.375  0.00  0.00    +0.000 C 
BRANCH  21  22
ATOM     22  O   UNL     1       6.428   4.801  16.004  0.00  0.00    +0.000 OA
BRANCH  22  27
ATOM     23  C   UNL     1       6.195   3.611  12.509  0.00  0.00    +0.000 A 
ATOM     24  C   UNL     1       7.167   4.453  11.966  0.00  0.00    +0.000 A 
ATOM     25  N   UNL     1       7.850   5.343  12.712  0.00  0.00    +0.000 NA
ATOM     26  C   UNL     1       7.563   5.390  14.035  0.00  0.00    +0.000 A 
ATOM     27  C   UNL     1       6.607   4.601  14.663  0.00  0.00    +0.000 A 
ATOM     28  C   UNL     1       5.917   3.688  13.865  0.00  0.00    +0.000 A 
BRANCH  23  30
ATOM     29  N   UNL     1       4.174   3.017  11.281  0.00  0.00    +0.000 N 
ATOM     30  C   UNL     1       5.438   2.654  11.672  0.00  0.00    +0.000 C 
ATOM     31  O   UNL     1       5.923   1.594  11.330  0.00  0.00    +0.000 OA
ATOM     32  H   UNL     1       3.715   2.395  10.627  0.00  0.00    +0.000 HD
ATOM     33  H   UNL     1       3.830   3.965  11.325  0.00  0.00    +0.000 HD
ENDBRANCH  23  30
ENDBRANCH  22  27
ENDBRANCH  21  22
ENDBRANCH   1  21
TORSDOF 6
ENDMDL
MODEL 6
REMARK VINA RESULT:      -8.7      3.661      9.477
REMARK  Name = 
REMARK  6 active torsions:
REMARK  status: ('A' for Active; 'I' for Inactive)
REMARK    1  A    between atoms: C_2  and  C_4
REMARK    2  A    between atoms: C_8  and  O_9
REMARK    3  A    between atoms: O_9  and  C_10
REMARK    4  A    between atoms: C_10  and  C_11
REMARK    5  A    between atoms: C_15  and  N_16
REMARK    6  A    between atoms: C_17  and  C_19
REMARK                            x       y       z     vdW  Elec       q    Type
REMARK                         _______ _______ _______ _____ _____    ______ ____
ROOT
ATOM      1  C   UNL     1       0.120  10.649  20.161  0.00  0.00    +0.000 A 
ATOM      2  C   UNL     1      -0.145  10.657  21.533  0.00  0.00    +0.000 A 
ATOM      3  C   UNL     1       0.354   9.652  22.348  0.00  0.00    +0.000 A 
ATOM      4  C   UNL     1       1.081   8.601  21.786  0.00  0.00    +0.000 A 
ATOM      5  C   UNL     1       1.314   8.528  20.414  0.00  0.00    +0.000 A 
ATOM      6  C   UNL     1       0.832   9.555  19.594  0.00  0.00    +0.000 A 
ENDROOT
BRANCH   5   7
ATOM      7  N   UNL     1       2.035   7.471  19.787  0.00  0.00    +0.000 N 
ATOM      8  C   UNL     1       2.498   7.509  18.470  0.00  0.00    +0.000 C 
ATOM      9  O   UNL     1       2.387   8.446  17.697  0.00  0.00    +0.000 OA
ATOM     10  H   UNL     1       2.158   6.641  20.307  0.00  0.00    +0.000 HD
BRANCH   8  11
ATOM     11  C   UNL     1       3.117   6.243  17.942  0.00  0.00    +0.000 A 
ATOM     12  C   UNL     1       2.177   5.165  17.947  0.00  0.00    +0.000 A 
ATOM     13  C   UNL     1       2.564   3.884  17.565  0.00  0.00    +0.000 A 
ATOM     14  C   UNL     1       3.899   3.662  17.260  0.00  0.00    +0.000 A 
ATOM     15  C   UNL     1       4.822   4.686  17.296  0.00  0.00    +0.000 A 
ATOM     16  C   UNL     1       6.159   4.368  17.129  0.00  0.00    +0.000 A 
ATOM     17  C   UNL     1       7.133   5.321  17.333  0.00  0.00    +0.000 A 
ATOM     18  C   UNL     1       6.771   6.647  17.081  0.00  0.00    +0.000 A 
ATOM     19  C   UNL     1       5.462   7.020  17.326  0.00  0.00    +0.000 A 
ATOM     20  C   UNL     1       4.449   6.041  17.565  0.00  0.00    +0.000 A 
ENDBRANCH   8  11
ENDBRANCH   5   7
BRANCH   1  21
ATOM     21  C   UNL     1      -0.350  11.799  19.304  0.00  0.00    +0.000 C 
BRANCH  21  22
ATOM     22  O   UNL     1      -1.716  12.090  19.595  0.00  0.00    +0.000 OA
BRANCH  22  27
ATOM     23  C   UNL     1      -4.794  11.459  17.641  0.00  0.00    +0.000 A 
ATOM     24  C   UNL     1      -4.177  11.134  16.433  0.00  0.00    +0.000 A 
ATOM     25  N   UNL     1      -2.838  11.121  16.285  0.00  0.00    +0.000 NA
ATOM     26  C   UNL     1      -2.093  11.432  17.372  0.00  0.00    +0.000 A 
ATOM     27  C   UNL     1      -2.616  11.778  18.613  0.00  0.00    +0.000 A 
ATOM     28  C   UNL     1      -4.005  11.781  18.736  0.00  0.00    +0.000 A 
BRANCH  23  30
ATOM     29  N   UNL     1      -6.957  12.395  17.016  0.00  0.00    +0.000 N 
ATOM     30  C   UNL     1      -6.266  11.490  17.782  0.00  0.00    +0.000 C 
ATOM     31  O   UNL     1      -6.844  10.731  18.535  0.00  0.00    +0.000 OA
ATOM     32  H   UNL     1      -7.967  12.329  17.052  0.00  0.00    +0.000 HD
ATOM     33  H   UNL     1      -6.559  12.860  16.213  0.00  0.00    +0.000 HD
ENDBRANCH  23  30
ENDBRANCH  22  27
ENDBRANCH  21  22
ENDBRANCH   1  21
TORSDOF 6
ENDMDL
MODEL 7
REMARK VINA RESULT:      -8.6      2.675      4.142
REMARK  Name = 
REMARK  6 active torsions:
REMARK  status: ('A' for Active; 'I' for Inactive)
REMARK    1  A    between atoms: C_2  and  C_4
REMARK    2  A    between atoms: C_8  and  O_9
REMARK    3  A    between atoms: O_9  and  C_10
REMARK    4  A    between atoms: C_10  and  C_11
REMARK    5  A    between atoms: C_15  and  N_16
REMARK    6  A    between atoms: C_17  and  C_19
REMARK                            x       y       z     vdW  Elec       q    Type
REMARK                         _______ _______ _______ _____ _____    ______ ____
ROOT
ATOM      1  C   UNL     1       4.203   6.222  17.871  0.00  0.00    +0.000 A 
ATOM      2  C   UNL     1       4.274   5.212  18.835  0.00  0.00    +0.000 A 
ATOM      3  C   UNL     1       3.360   5.176  19.878  0.00  0.00    +0.000 A 
ATOM      4  C   UNL     1       2.398   6.183  19.992  0.00  0.00    +0.000 A 
ATOM      5  C   UNL     1       2.336   7.237  19.083  0.00  0.00    +0.000 A 
ATOM      6  C   UNL     1       3.242   7.260  18.016  0.00  0.00    +0.000 A 
ENDROOT
BRANCH   5   7
ATOM      7  N   UNL     1       1.387   8.297  19.162  0.00  0.00    +0.000 N 
ATOM      8  C   UNL     1       1.341   9.378  18.279  0.00  0.00    +0.000 C 
ATOM      9  O   UNL     1       2.067   9.547  17.313  0.00  0.00    +0.000 OA
ATOM     10  H   UNL     1       0.764   8.286  19.927  0.00  0.00    +0.000 HD
BRANCH   8  11
ATOM     11  C   UNL     1       0.356  10.467  18.605  0.00  0.00    +0.000 A 
ATOM     12  C   UNL     1       0.910  11.408  19.530  0.00  0.00    +0.000 A 
ATOM     13  C   UNL     1       0.141  12.459  20.022  0.00  0.00    +0.000 A 
ATOM     14  C   UNL     1      -1.196  12.521  19.659  0.00  0.00    +0.000 A 
ATOM     15  C   UNL     1      -1.752  11.592  18.804  0.00  0.00    +0.000 A 
ATOM     16  C   UNL     1      -3.122  11.624  18.604  0.00  0.00    +0.000 A 
ATOM     17  C   UNL     1      -3.748  10.614  17.906  0.00  0.00    +0.000 A 
ATOM     18  C   UNL     1      -2.989   9.971  16.925  0.00  0.00    +0.000 A 
ATOM     19  C   UNL     1      -1.628   9.841  17.138  0.00  0.00    +0.000 A 
ATOM     20  C   UNL     1      -0.973  10.568  18.180  0.00  0.00    +0.000 A 
ENDBRANCH   8  11
ENDBRANCH   5   7
BRANCH   1  21
ATOM     21  C   UNL     1       5.145   6.192  16.692  0.00  0.00    +0.000 C 
BRANCH  21  22
ATOM     22  O   UNL     1       5.471   4.842  16.368  0.00  0.00    +0.000 OA
BRANCH  22  27
ATOM     23  C   UNL     1       6.090   3.690  12.908  0.00  0.00    +0.000 A 
ATOM     24  C   UNL     1       7.233   4.452  12.665  0.00  0.00    +0.000 A 
ATOM     25  N   UNL     1       7.759   5.281  13.589  0.00  0.00    +0.000 NA
ATOM     26  C   UNL     1       7.133   5.346  14.788  0.00  0.00    +0.000 A 
ATOM     27  C   UNL     1       5.986   4.634  15.118  0.00  0.00    +0.000 A 
ATOM     28  C   UNL     1       5.466   3.783  14.143  0.00  0.00    +0.000 A 
BRANCH  23  30
ATOM     29  N   UNL     1       6.229   1.685  11.527  0.00  0.00    +0.000 N 
ATOM     30  C   UNL     1       5.512   2.801  11.876  0.00  0.00    +0.000 C 
ATOM     31  O   UNL     1       4.434   3.041  11.368  0.00  0.00    +0.000 OA
ATOM     32  H   UNL     1       5.769   1.039  10.897  0.00  0.00    +0.000 HD
ATOM     33  H   UNL     1       6.987   1.316  12.083  0.00  0.00    +0.000 HD
ENDBRANCH  23  30
ENDBRANCH  22  27
ENDBRANCH  21  22
ENDBRANCH   1  21
TORSDOF 6
ENDMDL
MODEL 8
REMARK VINA RESULT:      -8.6      3.883     10.021
REMARK  Name = 
REMARK  6 active torsions:
REMARK  status: ('A' for Active; 'I' for Inactive)
REMARK    1  A    between atoms: C_2  and  C_4
REMARK    2  A    between atoms: C_8  and  O_9
REMARK    3  A    between atoms: O_9  and  C_10
REMARK    4  A    between atoms: C_10  and  C_11
REMARK    5  A    between atoms: C_15  and  N_16
REMARK    6  A    between atoms: C_17  and  C_19
REMARK                            x       y       z     vdW  Elec       q    Type
REMARK                         _______ _______ _______ _____ _____    ______ ____
ROOT
ATOM      1  C   UNL     1      -0.407  11.298  18.702  0.00  0.00    +0.000 A 
ATOM      2  C   UNL     1       0.483  12.375  18.738  0.00  0.00    +0.000 A 
ATOM      3  C   UNL     1       1.824  12.185  18.441  0.00  0.00    +0.000 A 
ATOM      4  C   UNL     1       2.294  10.902  18.153  0.00  0.00    +0.000 A 
ATOM      5  C   UNL     1       1.448   9.795  18.167  0.00  0.00    +0.000 A 
ATOM      6  C   UNL     1       0.089   9.990  18.442  0.00  0.00    +0.000 A 
ENDROOT
BRANCH   5   7
ATOM      7  N   UNL     1       1.878   8.464  17.897  0.00  0.00    +0.000 N 
ATOM      8  C   UNL     1       2.227   7.536  18.881  0.00  0.00    +0.000 C 
ATOM      9  O   UNL     1       2.177   7.715  20.087  0.00  0.00    +0.000 OA
ATOM     10  H   UNL     1       1.990   8.212  16.950  0.00  0.00    +0.000 HD
BRANCH   8  11
ATOM     11  C   UNL     1       2.789   6.227  18.397  0.00  0.00    +0.000 A 
ATOM     12  C   UNL     1       3.877   6.434  17.490  0.00  0.00    +0.000 A 
ATOM     13  C   UNL     1       4.496   5.355  16.867  0.00  0.00    +0.000 A 
ATOM     14  C   UNL     1       3.981   4.085  17.081  0.00  0.00    +0.000 A 
ATOM     15  C   UNL     1       2.904   3.881  17.919  0.00  0.00    +0.000 A 
ATOM     16  C   UNL     1       2.346   2.614  17.971  0.00  0.00    +0.000 A 
ATOM     17  C   UNL     1       1.166   2.399  18.649  0.00  0.00    +0.000 A 
ATOM     18  C   UNL     1       0.910   3.238  19.736  0.00  0.00    +0.000 A 
ATOM     19  C   UNL     1       1.375   4.540  19.676  0.00  0.00    +0.000 A 
ATOM     20  C   UNL     1       2.312   4.942  18.674  0.00  0.00    +0.000 A 
ENDBRANCH   8  11
ENDBRANCH   5   7
BRANCH   1  21
ATOM     21  C   UNL     1      -1.879  11.540  18.936  0.00  0.00    +0.000 C 
BRANCH  21  22
ATOM     22  O   UNL     1      -2.059  12.755  19.659  0.00  0.00    +0.000 OA
BRANCH  22  27
ATOM     23  C   UNL     1      -4.155  12.766  22.707  0.00  0.00    +0.000 A 
ATOM     24  C   UNL     1      -3.212  12.218  23.577  0.00  0.00    +0.000 A 
ATOM     25  N   UNL     1      -1.971  11.878  23.177  0.00  0.00    +0.000 NA
ATOM     26  C   UNL     1      -1.659  12.097  21.877  0.00  0.00    +0.000 A 
ATOM     27  C   UNL     1      -2.533  12.628  20.936  0.00  0.00    +0.000 A 
ATOM     28  C   UNL     1      -3.810  12.972  21.380  0.00  0.00    +0.000 A 
BRANCH  23  30
ATOM     29  N   UNL     1      -5.847  14.445  23.222  0.00  0.00    +0.000 N 
ATOM     30  C   UNL     1      -5.521  13.114  23.157  0.00  0.00    +0.000 C 
ATOM     31  O   UNL     1      -6.330  12.252  23.441  0.00  0.00    +0.000 OA
ATOM     32  H   UNL     1      -6.815  14.656  23.432  0.00  0.00    +0.000 HD
ATOM     33  H   UNL     1      -5.311  15.170  22.768  0.00  0.00    +0.000 HD
ENDBRANCH  23  30
ENDBRANCH  22  27
ENDBRANCH  21  22
ENDBRANCH   1  21
TORSDOF 6
ENDMDL
MODEL 9
REMARK VINA RESULT:      -8.6      1.561      2.235
REMARK  Name = 
REMARK  6 active torsions:
REMARK  status: ('A' for Active; 'I' for Inactive)
REMARK    1  A    between atoms: C_2  and  C_4
REMARK    2  A    between atoms: C_8  and  O_9
REMARK    3  A    between atoms: O_9  and  C_10
REMARK    4  A    between atoms: C_10  and  C_11
REMARK    5  A    between atoms: C_15  and  N_16
REMARK    6  A    between atoms: C_17  and  C_19
REMARK                            x       y       z     vdW  Elec       q    Type
REMARK                         _______ _______ _______ _____ _____    ______ ____
ROOT
ATOM      1  C   UNL     1       2.652   3.265  19.045  0.00  0.00    +0.000 A 
ATOM      2  C   UNL     1       2.980   2.412  20.102  0.00  0.00    +0.000 A 
ATOM      3  C   UNL     1       2.662   2.761  21.406  0.00  0.00    +0.000 A 
ATOM      4  C   UNL     1       2.058   3.992  21.666  0.00  0.00    +0.000 A 
ATOM      5  C   UNL     1       1.772   4.894  20.644  0.00  0.00    +0.000 A 
ATOM      6  C   UNL     1       2.069   4.532  19.325  0.00  0.00    +0.000 A 
ENDROOT
BRANCH   5   7
ATOM      7  N   UNL     1       1.171   6.169  20.855  0.00  0.00    +0.000 N 
ATOM      8  C   UNL     1       1.688   7.372  20.369  0.00  0.00    +0.000 C 
ATOM      9  O   UNL     1       2.685   7.497  19.677  0.00  0.00    +0.000 OA
ATOM     10  H   UNL     1       0.372   6.198  21.433  0.00  0.00    +0.000 HD
BRANCH   8  11
ATOM     11  C   UNL     1       0.989   8.628  20.812  0.00  0.00    +0.000 A 
ATOM     12  C   UNL     1       1.000   8.752  22.238  0.00  0.00    +0.000 A 
ATOM     13  C   UNL     1       0.344   9.808  22.864  0.00  0.00    +0.000 A 
ATOM     14  C   UNL     1      -0.387  10.686  22.080  0.00  0.00    +0.000 A 
ATOM     15  C   UNL     1      -0.441  10.549  20.708  0.00  0.00    +0.000 A 
ATOM     16  C   UNL     1      -1.309  11.365  20.002  0.00  0.00    +0.000 A 
ATOM     17  C   UNL     1      -1.533  11.149  18.660  0.00  0.00    +0.000 A 
ATOM     18  C   UNL     1      -0.481  10.582  17.935  0.00  0.00    +0.000 A 
ATOM     19  C   UNL     1       0.350   9.689  18.589  0.00  0.00    +0.000 A 
ATOM     20  C   UNL     1       0.313   9.553  20.011  0.00  0.00    +0.000 A 
ENDBRANCH   8  11
ENDBRANCH   5   7
BRANCH   1  21
ATOM     21  C   UNL     1       2.921   2.828  17.625  0.00  0.00    +0.000 C 
BRANCH  21  22
ATOM     22  O   UNL     1       3.224   3.965  16.819  0.00  0.00    +0.000 OA
BRANCH  22  27
ATOM     23  C   UNL     1       6.527   4.616  15.287  0.00  0.00    +0.000 A 
ATOM     24  C   UNL     1       7.259   4.716  16.470  0.00  0.00    +0.000 A 
ATOM     25  N   UNL     1       6.693   4.571  17.685  0.00  0.00    +0.000 NA
ATOM     26  C   UNL     1       5.365   4.311  17.720  0.00  0.00    +0.000 A 
ATOM     27  C   UNL     1       4.552   4.204  16.597  0.00  0.00    +0.000 A 
ATOM     28  C   UNL     1       5.167   4.357  15.355  0.00  0.00    +0.000 A 
BRANCH  23  30
ATOM     29  N   UNL     1       6.692   4.032  12.925  0.00  0.00    +0.000 N 
ATOM     30  C   UNL     1       7.159   4.800  13.961  0.00  0.00    +0.000 C 
ATOM     31  O   UNL     1       8.045   5.615  13.792  0.00  0.00    +0.000 OA
ATOM     32  H   UNL     1       7.066   4.246  12.009  0.00  0.00    +0.000 HD
ATOM     33  H   UNL     1       5.813   3.536  12.953  0.00  0.00    +0.000 HD
ENDBRANCH  23  30
ENDBRANCH  22  27
ENDBRANCH  21  22
ENDBRANCH   1  21
TORSDOF 6
ENDMDL
