MODEL 1
REMARK VINA RESULT:      -8.1      0.000      0.000
REMARK  Name = 
REMARK  4 active torsions:
REMARK  status: ('A' for Active; 'I' for Inactive)
REMARK    1  A    between atoms: C_2  and  C_21
REMARK    2  A    between atoms: N_3  and  C_4
REMARK    3  A    between atoms: C_12  and  C_13
REMARK    4  A    between atoms: N_15  and  C_16
REMARK                            x       y       z     vdW  Elec       q    Type
REMARK                         _______ _______ _______ _____ _____    ______ ____
ROOT
ATOM      1  C   UNL     1       3.669   3.897  17.568  0.00  0.00    +0.000 A 
ATOM      2  N   UNL     1       3.396   2.648  18.037  0.00  0.00    +0.000 NA
ATOM      3  C   UNL     1       2.806   2.814  19.188  0.00  0.00    +0.000 A 
ATOM      4  C   UNL     1       2.296   1.855  20.104  0.00  0.00    +0.000 A 
ATOM      5  C   UNL     1       1.792   2.259  21.281  0.00  0.00    +0.000 A 
ATOM      6  C   UNL     1       1.757   3.668  21.637  0.00  0.00    +0.000 A 
ATOM      7  C   UNL     1       2.199   4.582  20.755  0.00  0.00    +0.000 A 
ATOM      8  N   UNL     1       2.713   4.162  19.522  0.00  0.00    +0.000 N 
ATOM      9  C   UNL     1       3.240   4.881  18.448  0.00  0.00    +0.000 A 
ENDROOT
BRANCH   1  12
ATOM     10  O   UNL     1       6.476   4.065  17.060  0.00  0.00    +0.000 OA
ATOM     11  C   UNL     1       5.635   4.109  16.165  0.00  0.00    +0.000 C 
ATOM     12  N   UNL     1       4.260   4.074  16.332  0.00  0.00    +0.000 N 
ATOM     13  H   UNL     1       3.644   4.179  15.534  0.00  0.00    +0.000 HD
BRANCH  11  14
ATOM     14  C   UNL     1       6.155   4.269  14.780  0.00  0.00    +0.000 A 
ATOM     15  C   UNL     1       5.577   3.477  13.768  0.00  0.00    +0.000 A 
ATOM     16  C   UNL     1       6.040   3.551  12.455  0.00  0.00    +0.000 A 
ATOM     17  C   UNL     1       7.082   4.417  12.150  0.00  0.00    +0.000 A 
ATOM     18  F   UNL     1       7.533   4.485  10.892  0.00  0.00    +0.000 F 
ATOM     19  C   UNL     1       7.666   5.210  13.131  0.00  0.00    +0.000 A 
ATOM     20  C   UNL     1       7.199   5.130  14.441  0.00  0.00    +0.000 A 
ATOM     21  F   UNL     1       7.792   5.892  15.374  0.00  0.00    +0.000 F 
ENDBRANCH  11  14
ENDBRANCH   1  12
BRANCH   9  22
ATOM     22  C   UNL     1       3.265   6.321  18.352  0.00  0.00    +0.000 C 
ATOM     23  O   UNL     1       4.135   6.939  17.747  0.00  0.00    +0.000 OA
ATOM     24  N   UNL     1       2.228   6.975  18.996  0.00  0.00    +0.000 N 
ATOM     25  H   UNL     1       1.383   6.443  19.157  0.00  0.00    +0.000 HD
BRANCH  24  26
ATOM     26  C   UNL     1       2.130   8.425  19.002  0.00  0.00    +0.000 C 
ATOM     27  C   UNL     1       1.470   8.998  17.751  0.00  0.00    +0.000 C 
ATOM     28  C   UNL     1       1.061  10.407  18.166  0.00  0.00    +0.000 C 
ATOM     29  C   UNL     1       0.802  10.343  19.668  0.00  0.00    +0.000 C 
ATOM     30  C   UNL     1       1.234   8.949  20.123  0.00  0.00    +0.000 C 
ENDBRANCH  24  26
ENDBRANCH   9  22
TORSDOF 4
ENDMDL
MODEL 2
REMARK VINA RESULT:      -7.9      3.511      6.154
REMARK  Name = 
REMARK  4 active torsions:
REMARK  status: ('A' for Active; 'I' for Inactive)
REMARK    1  A    between atoms: C_2  and  C_21
REMARK    2  A    between atoms: N_3  and  C_4
REMARK    3  A    between atoms: C_12  and  C_13
REMARK    4  A    between atoms: N_15  and  C_16
REMARK                            x       y       z     vdW  Elec       q    Type
REMARK                         _______ _______ _______ _____ _____    ______ ____
ROOT
ATOM      1  C   UNL     1       1.351   8.473  20.264  0.00  0.00    +0.000 A 
ATOM      2  N   UNL     1       1.329   8.370  21.622  0.00  0.00    +0.000 NA
ATOM      3  C   UNL     1       0.459   9.247  22.039  0.00  0.00    +0.000 A 
ATOM      4  C   UNL     1       0.031   9.558  23.357  0.00  0.00    +0.000 A 
ATOM      5  C   UNL     1      -0.831  10.567  23.557  0.00  0.00    +0.000 A 
ATOM      6  C   UNL     1      -1.339  11.352  22.442  0.00  0.00    +0.000 A 
ATOM      7  C   UNL     1      -0.968  11.032  21.189  0.00  0.00    +0.000 A 
ATOM      8  N   UNL     1      -0.080   9.971  20.979  0.00  0.00    +0.000 N 
ATOM      9  C   UNL     1       0.469   9.444  19.809  0.00  0.00    +0.000 A 
ENDROOT
BRANCH   1  12
ATOM     10  O   UNL     1       1.684   5.663  20.654  0.00  0.00    +0.000 OA
ATOM     11  C   UNL     1       2.227   6.275  19.737  0.00  0.00    +0.000 C 
ATOM     12  N   UNL     1       2.148   7.639  19.504  0.00  0.00    +0.000 N 
ATOM     13  H   UNL     1       2.683   8.062  18.756  0.00  0.00    +0.000 HD
BRANCH  11  14
ATOM     14  C   UNL     1       3.090   5.472  18.829  0.00  0.00    +0.000 A 
ATOM     15  C   UNL     1       4.486   5.564  19.001  0.00  0.00    +0.000 A 
ATOM     16  C   UNL     1       5.352   4.866  18.161  0.00  0.00    +0.000 A 
ATOM     17  C   UNL     1       4.827   4.074  17.148  0.00  0.00    +0.000 A 
ATOM     18  F   UNL     1       5.657   3.409  16.337  0.00  0.00    +0.000 F 
ATOM     19  C   UNL     1       3.454   3.967  16.960  0.00  0.00    +0.000 A 
ATOM     20  C   UNL     1       2.593   4.668  17.802  0.00  0.00    +0.000 A 
ATOM     21  F   UNL     1       1.272   4.563  17.589  0.00  0.00    +0.000 F 
ENDBRANCH  11  14
ENDBRANCH   1  12
BRANCH   9  22
ATOM     22  C   UNL     1       0.118   9.861  18.473  0.00  0.00    +0.000 C 
ATOM     23  O   UNL     1       0.944  10.028  17.582  0.00  0.00    +0.000 OA
ATOM     24  N   UNL     1      -1.234  10.062  18.252  0.00  0.00    +0.000 N 
ATOM     25  H   UNL     1      -1.875   9.583  18.872  0.00  0.00    +0.000 HD
BRANCH  24  26
ATOM     26  C   UNL     1      -1.739  10.500  16.961  0.00  0.00    +0.000 C 
ATOM     27  C   UNL     1      -2.173   9.353  16.054  0.00  0.00    +0.000 C 
ATOM     28  C   UNL     1      -3.061  10.025  15.012  0.00  0.00    +0.000 C 
ATOM     29  C   UNL     1      -3.685  11.230  15.710  0.00  0.00    +0.000 C 
ATOM     30  C   UNL     1      -3.013  11.334  17.079  0.00  0.00    +0.000 C 
ENDBRANCH  24  26
ENDBRANCH   9  22
TORSDOF 4
ENDMDL
MODEL 3
REMARK VINA RESULT:      -7.8      3.520      7.364
REMARK  Name = 
REMARK  4 active torsions:
REMARK  status: ('A' for Active; 'I' for Inactive)
REMARK    1  A    between atoms: C_2  and  C_21
REMARK    2  A    between atoms: N_3  and  C_4
REMARK    3  A    between atoms: C_12  and  C_13
REMARK    4  A    between atoms: N_15  and  C_16
REMARK                            x       y       z     vdW  Elec       q    Type
REMARK                         _______ _______ _______ _____ _____    ______ ____
ROOT
ATOM      1  C   UNL     1       2.261   6.905  19.661  0.00  0.00    +0.000 A 
ATOM      2  N   UNL     1       1.616   6.204  20.634  0.00  0.00    +0.000 NA
ATOM      3  C   UNL     1       1.980   4.961  20.487  0.00  0.00    +0.000 A 
ATOM      4  C   UNL     1       1.622   3.806  21.233  0.00  0.00    +0.000 A 
ATOM      5  C   UNL     1       2.064   2.599  20.847  0.00  0.00    +0.000 A 
ATOM      6  C   UNL     1       2.909   2.450  19.674  0.00  0.00    +0.000 A 
ATOM      7  C   UNL     1       3.286   3.546  18.990  0.00  0.00    +0.000 A 
ATOM      8  N   UNL     1       2.836   4.807  19.400  0.00  0.00    +0.000 N 
ATOM      9  C   UNL     1       3.058   6.081  18.877  0.00  0.00    +0.000 A 
ENDROOT
BRANCH   1  12
ATOM     10  O   UNL     1       0.980   8.323  17.538  0.00  0.00    +0.000 OA
ATOM     11  C   UNL     1       1.455   8.886  18.521  0.00  0.00    +0.000 C 
ATOM     12  N   UNL     1       2.125   8.277  19.570  0.00  0.00    +0.000 N 
ATOM     13  H   UNL     1       2.537   8.835  20.308  0.00  0.00    +0.000 HD
BRANCH  11  14
ATOM     14  C   UNL     1       1.341  10.370  18.549  0.00  0.00    +0.000 A 
ATOM     15  C   UNL     1       2.430  11.121  18.065  0.00  0.00    +0.000 A 
ATOM     16  C   UNL     1       2.403  12.514  18.096  0.00  0.00    +0.000 A 
ATOM     17  C   UNL     1       1.286  13.161  18.610  0.00  0.00    +0.000 A 
ATOM     18  F   UNL     1       1.261  14.498  18.647  0.00  0.00    +0.000 F 
ATOM     19  C   UNL     1       0.200  12.442  19.092  0.00  0.00    +0.000 A 
ATOM     20  C   UNL     1       0.233  11.049  19.059  0.00  0.00    +0.000 A 
ATOM     21  F   UNL     1      -0.821  10.377  19.548  0.00  0.00    +0.000 F 
ENDBRANCH  11  14
ENDBRANCH   1  12
BRANCH   9  22
ATOM     22  C   UNL     1       3.951   6.380  17.784  0.00  0.00    +0.000 C 
ATOM     23  O   UNL     1       4.296   7.521  17.490  0.00  0.00    +0.000 OA
ATOM     24  N   UNL     1       4.405   5.282  17.073  0.00  0.00    +0.000 N 
ATOM     25  H   UNL     1       4.391   4.391  17.551  0.00  0.00    +0.000 HD
BRANCH  24  26
ATOM     26  C   UNL     1       5.296   5.428  15.934  0.00  0.00    +0.000 C 
ATOM     27  C   UNL     1       6.772   5.281  16.290  0.00  0.00    +0.000 C 
ATOM     28  C   UNL     1       7.446   5.004  14.951  0.00  0.00    +0.000 C 
ATOM     29  C   UNL     1       6.401   4.296  14.094  0.00  0.00    +0.000 C 
ATOM     30  C   UNL     1       5.094   4.335  14.886  0.00  0.00    +0.000 C 
ENDBRANCH  24  26
ENDBRANCH   9  22
TORSDOF 4
ENDMDL
MODEL 4
REMARK VINA RESULT:      -7.8      3.265      7.709
REMARK  Name = 
REMARK  4 active torsions:
REMARK  status: ('A' for Active; 'I' for Inactive)
REMARK    1  A    between atoms: C_2  and  C_21
REMARK    2  A    between atoms: N_3  and  C_4
REMARK    3  A    between atoms: C_12  and  C_13
REMARK    4  A    between atoms: N_15  and  C_16
REMARK                            x       y       z     vdW  Elec       q    Type
REMARK                         _______ _______ _______ _____ _____    ______ ____
ROOT
ATOM      1  C   UNL     1       2.240   6.714  19.713  0.00  0.00    +0.000 A 
ATOM      2  N   UNL     1       1.728   6.025  20.770  0.00  0.00    +0.000 NA
ATOM      3  C   UNL     1       2.286   4.847  20.740  0.00  0.00    +0.000 A 
ATOM      4  C   UNL     1       2.128   3.734  21.609  0.00  0.00    +0.000 A 
ATOM      5  C   UNL     1       2.754   2.579  21.334  0.00  0.00    +0.000 A 
ATOM      6  C   UNL     1       3.598   2.445  20.158  0.00  0.00    +0.000 A 
ATOM      7  C   UNL     1       3.784   3.509  19.356  0.00  0.00    +0.000 A 
ATOM      8  N   UNL     1       3.142   4.717  19.649  0.00  0.00    +0.000 N 
ATOM      9  C   UNL     1       3.149   5.949  18.993  0.00  0.00    +0.000 A 
ENDROOT
BRANCH   1  12
ATOM     10  O   UNL     1       0.461   8.267  21.320  0.00  0.00    +0.000 OA
ATOM     11  C   UNL     1       1.038   8.725  20.337  0.00  0.00    +0.000 C 
ATOM     12  N   UNL     1       1.883   8.029  19.487  0.00  0.00    +0.000 N 
ATOM     13  H   UNL     1       2.265   8.478  18.663  0.00  0.00    +0.000 HD
BRANCH  11  14
ATOM     14  C   UNL     1       0.755  10.148  20.009  0.00  0.00    +0.000 A 
ATOM     15  C   UNL     1       0.998  11.112  21.009  0.00  0.00    +0.000 A 
ATOM     16  C   UNL     1       0.721  12.458  20.780  0.00  0.00    +0.000 A 
ATOM     17  C   UNL     1       0.201  12.846  19.551  0.00  0.00    +0.000 A 
ATOM     18  F   UNL     1      -0.072  14.137  19.332  0.00  0.00    +0.000 F 
ATOM     19  C   UNL     1      -0.045  11.915  18.550  0.00  0.00    +0.000 A 
ATOM     20  C   UNL     1       0.234  10.570  18.785  0.00  0.00    +0.000 A 
ATOM     21  F   UNL     1      -0.030   9.687  17.809  0.00  0.00    +0.000 F 
ENDBRANCH  11  14
ENDBRANCH   1  12
BRANCH   9  22
ATOM     22  C   UNL     1       3.968   6.271  17.849  0.00  0.00    +0.000 C 
ATOM     23  O   UNL     1       4.215   7.421  17.501  0.00  0.00    +0.000 OA
ATOM     24  N   UNL     1       4.469   5.182  17.155  0.00  0.00    +0.000 N 
ATOM     25  H   UNL     1       4.542   4.310  17.664  0.00  0.00    +0.000 HD
BRANCH  24  26
ATOM     26  C   UNL     1       5.296   5.348  15.971  0.00  0.00    +0.000 C 
ATOM     27  C   UNL     1       6.793   5.281  16.257  0.00  0.00    +0.000 C 
ATOM     28  C   UNL     1       7.415   5.011  14.892  0.00  0.00    +0.000 C 
ATOM     29  C   UNL     1       6.365   4.235  14.100  0.00  0.00    +0.000 C 
ATOM     30  C   UNL     1       5.098   4.226  14.954  0.00  0.00    +0.000 C 
ENDBRANCH  24  26
ENDBRANCH   9  22
TORSDOF 4
ENDMDL
MODEL 5
REMARK VINA RESULT:      -7.7      5.378      8.919
REMARK  Name = 
REMARK  4 active torsions:
REMARK  status: ('A' for Active; 'I' for Inactive)
REMARK    1  A    between atoms: C_2  and  C_21
REMARK    2  A    between atoms: N_3  and  C_4
REMARK    3  A    between atoms: C_12  and  C_13
REMARK    4  A    between atoms: N_15  and  C_16
REMARK                            x       y       z     vdW  Elec       q    Type
REMARK                         _______ _______ _______ _____ _____    ______ ____
ROOT
ATOM      1  C   UNL     1       0.184  11.894  20.939  0.00  0.00    +0.000 A 
ATOM      2  N   UNL     1       0.167  12.242  22.256  0.00  0.00    +0.000 NA
ATOM      3  C   UNL     1      -0.714  13.196  22.368  0.00  0.00    +0.000 A 
ATOM      4  C   UNL     1      -1.144  13.918  23.514  0.00  0.00    +0.000 A 
ATOM      5  C   UNL     1      -2.019  14.926  23.377  0.00  0.00    +0.000 A 
ATOM      6  C   UNL     1      -2.541  15.294  22.071  0.00  0.00    +0.000 A 
ATOM      7  C   UNL     1      -2.170  14.586  20.989  0.00  0.00    +0.000 A 
ATOM      8  N   UNL     1      -1.266  13.526  21.133  0.00  0.00    +0.000 N 
ATOM      9  C   UNL     1      -0.714  12.651  20.197  0.00  0.00    +0.000 A 
ENDROOT
BRANCH   1  12
ATOM     10  O   UNL     1      -0.710   9.331  20.049  0.00  0.00    +0.000 OA
ATOM     11  C   UNL     1       0.473   9.661  20.040  0.00  0.00    +0.000 C 
ATOM     12  N   UNL     1       0.990  10.866  20.490  0.00  0.00    +0.000 N 
ATOM     13  H   UNL     1       1.990  11.023  20.499  0.00  0.00    +0.000 HD
BRANCH  11  14
ATOM     14  C   UNL     1       1.439   8.642  19.546  0.00  0.00    +0.000 A 
ATOM     15  C   UNL     1       2.000   8.837  18.268  0.00  0.00    +0.000 A 
ATOM     16  C   UNL     1       2.883   7.903  17.730  0.00  0.00    +0.000 A 
ATOM     17  C   UNL     1       3.209   6.772  18.468  0.00  0.00    +0.000 A 
ATOM     18  F   UNL     1       4.052   5.871  17.950  0.00  0.00    +0.000 F 
ATOM     19  C   UNL     1       2.670   6.560  19.730  0.00  0.00    +0.000 A 
ATOM     20  C   UNL     1       1.787   7.497  20.262  0.00  0.00    +0.000 A 
ATOM     21  F   UNL     1       1.265   7.259  21.476  0.00  0.00    +0.000 F 
ENDBRANCH  11  14
ENDBRANCH   1  12
BRANCH   9  22
ATOM     22  C   UNL     1      -1.075  12.600  18.801  0.00  0.00    +0.000 C 
ATOM     23  O   UNL     1      -0.658  13.400  17.969  0.00  0.00    +0.000 OA
ATOM     24  N   UNL     1      -1.936  11.574  18.449  0.00  0.00    +0.000 N 
ATOM     25  H   UNL     1      -1.957  10.767  19.059  0.00  0.00    +0.000 HD
BRANCH  24  26
ATOM     26  C   UNL     1      -2.402  11.406  17.083  0.00  0.00    +0.000 C 
ATOM     27  C   UNL     1      -2.080  10.037  16.492  0.00  0.00    +0.000 C 
ATOM     28  C   UNL     1      -3.026   9.919  15.303  0.00  0.00    +0.000 C 
ATOM     29  C   UNL     1      -4.256  10.748  15.663  0.00  0.00    +0.000 C 
ATOM     30  C   UNL     1      -3.924  11.470  16.969  0.00  0.00    +0.000 C 
ENDBRANCH  24  26
ENDBRANCH   9  22
TORSDOF 4
ENDMDL
MODEL 6
REMARK VINA RESULT:      -7.6      3.210      7.526
REMARK  Name = 
REMARK  4 active torsions:
REMARK  status: ('A' for Active; 'I' for Inactive)
REMARK    1  A    between atoms: C_2  and  C_21
REMARK    2  A    between atoms: N_3  and  C_4
REMARK    3  A    between atoms: C_12  and  C_13
REMARK    4  A    between atoms: N_15  and  C_16
REMARK                            x       y       z     vdW  Elec       q    Type
REMARK                         _______ _______ _______ _____ _____    ______ ____
ROOT
ATOM      1  C   UNL     1       4.353   7.029  17.108  0.00  0.00    +0.000 A 
ATOM      2  N   UNL     1       4.712   7.141  15.800  0.00  0.00    +0.000 NA
ATOM      3  C   UNL     1       5.296   6.018  15.486  0.00  0.00    +0.000 A 
ATOM      4  C   UNL     1       5.854   5.588  14.252  0.00  0.00    +0.000 A 
ATOM      5  C   UNL     1       6.482   4.404  14.181  0.00  0.00    +0.000 A 
ATOM      6  C   UNL     1       6.602   3.547  15.350  0.00  0.00    +0.000 A 
ATOM      7  C   UNL     1       6.037   3.932  16.509  0.00  0.00    +0.000 A 
ATOM      8  N   UNL     1       5.371   5.161  16.581  0.00  0.00    +0.000 N 
ATOM      9  C   UNL     1       4.720   5.798  17.637  0.00  0.00    +0.000 A 
ENDROOT
BRANCH   1  12
ATOM     10  O   UNL     1       1.583   6.992  17.805  0.00  0.00    +0.000 OA
ATOM     11  C   UNL     1       2.324   7.934  18.078  0.00  0.00    +0.000 C 
ATOM     12  N   UNL     1       3.663   8.045  17.742  0.00  0.00    +0.000 N 
ATOM     13  H   UNL     1       4.177   8.890  17.958  0.00  0.00    +0.000 HD
BRANCH  11  14
ATOM     14  C   UNL     1       1.698   9.080  18.791  0.00  0.00    +0.000 A 
ATOM     15  C   UNL     1       1.651  10.320  18.124  0.00  0.00    +0.000 A 
ATOM     16  C   UNL     1       1.110  11.443  18.749  0.00  0.00    +0.000 A 
ATOM     17  C   UNL     1       0.615  11.329  20.042  0.00  0.00    +0.000 A 
ATOM     18  F   UNL     1       0.102  12.407  20.645  0.00  0.00    +0.000 F 
ATOM     19  C   UNL     1       0.649  10.117  20.719  0.00  0.00    +0.000 A 
ATOM     20  C   UNL     1       1.191   8.998  20.089  0.00  0.00    +0.000 A 
ATOM     21  F   UNL     1       1.230   7.842  20.771  0.00  0.00    +0.000 F 
ENDBRANCH  11  14
ENDBRANCH   1  12
BRANCH   9  22
ATOM     22  C   UNL     1       4.502   5.220  18.942  0.00  0.00    +0.000 C 
ATOM     23  O   UNL     1       5.370   5.167  19.807  0.00  0.00    +0.000 OA
ATOM     24  N   UNL     1       3.230   4.719  19.162  0.00  0.00    +0.000 N 
ATOM     25  H   UNL     1       2.485   5.095  18.589  0.00  0.00    +0.000 HD
BRANCH  24  26
ATOM     26  C   UNL     1       2.866   4.090  20.420  0.00  0.00    +0.000 C 
ATOM     27  C   UNL     1       1.359   3.971  20.630  0.00  0.00    +0.000 C 
ATOM     28  C   UNL     1       1.224   2.914  21.720  0.00  0.00    +0.000 C 
ATOM     29  C   UNL     1       2.433   1.996  21.565  0.00  0.00    +0.000 C 
ATOM     30  C   UNL     1       3.332   2.638  20.509  0.00  0.00    +0.000 C 
ENDBRANCH  24  26
ENDBRANCH   9  22
TORSDOF 4
ENDMDL
MODEL 7
REMARK VINA RESULT:      -7.6      3.501      7.219
REMARK  Name = 
REMARK  4 active torsions:
REMARK  status: ('A' for Active; 'I' for Inactive)
REMARK    1  A    between atoms: C_2  and  C_21
REMARK    2  A    between atoms: N_3  and  C_4
REMARK    3  A    between atoms: C_12  and  C_13
REMARK    4  A    between atoms: N_15  and  C_16
REMARK                            x       y       z     vdW  Elec       q    Type
REMARK                         _______ _______ _______ _____ _____    ______ ____
ROOT
ATOM      1  C   UNL     1       5.424   3.912  15.973  0.00  0.00    +0.000 A 
ATOM      2  N   UNL     1       5.223   3.297  14.775  0.00  0.00    +0.000 NA
ATOM      3  C   UNL     1       6.079   3.826  13.947  0.00  0.00    +0.000 A 
ATOM      4  C   UNL     1       6.316   3.552  12.573  0.00  0.00    +0.000 A 
ATOM      5  C   UNL     1       7.209   4.286  11.891  0.00  0.00    +0.000 A 
ATOM      6  C   UNL     1       7.945   5.361  12.536  0.00  0.00    +0.000 A 
ATOM      7  C   UNL     1       7.755   5.595  13.847  0.00  0.00    +0.000 A 
ATOM      8  N   UNL     1       6.833   4.821  14.562  0.00  0.00    +0.000 N 
ATOM      9  C   UNL     1       6.439   4.857  15.900  0.00  0.00    +0.000 A 
ENDROOT
BRANCH   1  12
ATOM     10  O   UNL     1       3.610   5.579  17.419  0.00  0.00    +0.000 OA
ATOM     11  C   UNL     1       3.809   4.403  17.713  0.00  0.00    +0.000 C 
ATOM     12  N   UNL     1       4.698   3.542  17.089  0.00  0.00    +0.000 N 
ATOM     13  H   UNL     1       4.838   2.604  17.444  0.00  0.00    +0.000 HD
BRANCH  11  14
ATOM     14  C   UNL     1       3.056   3.880  18.885  0.00  0.00    +0.000 A 
ATOM     15  C   UNL     1       1.691   4.214  18.989  0.00  0.00    +0.000 A 
ATOM     16  C   UNL     1       0.936   3.786  20.080  0.00  0.00    +0.000 A 
ATOM     17  C   UNL     1       1.543   3.023  21.070  0.00  0.00    +0.000 A 
ATOM     18  F   UNL     1       0.821   2.617  22.121  0.00  0.00    +0.000 F 
ATOM     19  C   UNL     1       2.886   2.680  20.988  0.00  0.00    +0.000 A 
ATOM     20  C   UNL     1       3.636   3.111  19.895  0.00  0.00    +0.000 A 
ATOM     21  F   UNL     1       4.937   2.782  19.848  0.00  0.00    +0.000 F 
ENDBRANCH  11  14
ENDBRANCH   1  12
BRANCH   9  22
ATOM     22  C   UNL     1       7.029   5.701  16.912  0.00  0.00    +0.000 C 
ATOM     23  O   UNL     1       7.841   5.294  17.737  0.00  0.00    +0.000 OA
ATOM     24  N   UNL     1       6.616   7.022  16.896  0.00  0.00    +0.000 N 
ATOM     25  H   UNL     1       6.251   7.376  16.020  0.00  0.00    +0.000 HD
BRANCH  24  26
ATOM     26  C   UNL     1       7.109   7.987  17.864  0.00  0.00    +0.000 C 
ATOM     27  C   UNL     1       8.435   7.587  18.504  0.00  0.00    +0.000 C 
ATOM     28  C   UNL     1       8.967   8.891  19.088  0.00  0.00    +0.000 C 
ATOM     29  C   UNL     1       8.414  10.004  18.202  0.00  0.00    +0.000 C 
ATOM     30  C   UNL     1       7.434   9.340  17.234  0.00  0.00    +0.000 C 
ENDBRANCH  24  26
ENDBRANCH   9  22
TORSDOF 4
ENDMDL
MODEL 8
REMARK VINA RESULT:      -7.6      3.232      5.803
REMARK  Name = 
REMARK  4 active torsions:
REMARK  status: ('A' for Active; 'I' for Inactive)
REMARK    1  A    between atoms: C_2  and  C_21
REMARK    2  A    between atoms: N_3  and  C_4
REMARK    3  A    between atoms: C_12  and  C_13
REMARK    4  A    between atoms: N_15  and  C_16
REMARK                            x       y       z     vdW  Elec       q    Type
REMARK                         _______ _______ _______ _____ _____    ______ ____
ROOT
ATOM      1  C   UNL     1       1.423   8.563  19.972  0.00  0.00    +0.000 A 
ATOM      2  N   UNL     1       1.516   8.336  21.311  0.00  0.00    +0.000 NA
ATOM      3  C   UNL     1       0.651   9.132  21.875  0.00  0.00    +0.000 A 
ATOM      4  C   UNL     1       0.320   9.305  23.246  0.00  0.00    +0.000 A 
ATOM      5  C   UNL     1      -0.559  10.253  23.605  0.00  0.00    +0.000 A 
ATOM      6  C   UNL     1      -1.184  11.111  22.612  0.00  0.00    +0.000 A 
ATOM      7  C   UNL     1      -0.906  10.923  21.309  0.00  0.00    +0.000 A 
ATOM      8  N   UNL     1       0.001   9.925  20.933  0.00  0.00    +0.000 N 
ATOM      9  C   UNL     1       0.472   9.531  19.680  0.00  0.00    +0.000 A 
ENDROOT
BRANCH   1  12
ATOM     10  O   UNL     1       2.121   5.803  20.220  0.00  0.00    +0.000 OA
ATOM     11  C   UNL     1       2.450   6.487  19.254  0.00  0.00    +0.000 C 
ATOM     12  N   UNL     1       2.185   7.835  19.077  0.00  0.00    +0.000 N 
ATOM     13  H   UNL     1       2.552   8.329  18.273  0.00  0.00    +0.000 HD
BRANCH  11  14
ATOM     14  C   UNL     1       3.252   5.802  18.204  0.00  0.00    +0.000 A 
ATOM     15  C   UNL     1       3.009   4.431  17.984  0.00  0.00    +0.000 A 
ATOM     16  C   UNL     1       3.750   3.721  17.041  0.00  0.00    +0.000 A 
ATOM     17  C   UNL     1       4.734   4.379  16.314  0.00  0.00    +0.000 A 
ATOM     18  F   UNL     1       5.450   3.697  15.413  0.00  0.00    +0.000 F 
ATOM     19  C   UNL     1       4.989   5.730  16.512  0.00  0.00    +0.000 A 
ATOM     20  C   UNL     1       4.246   6.434  17.457  0.00  0.00    +0.000 A 
ATOM     21  F   UNL     1       4.525   7.734  17.643  0.00  0.00    +0.000 F 
ENDBRANCH  11  14
ENDBRANCH   1  12
BRANCH   9  22
ATOM     22  C   UNL     1      -0.003  10.049  18.419  0.00  0.00    +0.000 C 
ATOM     23  O   UNL     1       0.744  10.361  17.497  0.00  0.00    +0.000 OA
ATOM     24  N   UNL     1      -1.377  10.176  18.311  0.00  0.00    +0.000 N 
ATOM     25  H   UNL     1      -1.939   9.594  18.920  0.00  0.00    +0.000 HD
BRANCH  24  26
ATOM     26  C   UNL     1      -2.002  10.701  17.108  0.00  0.00    +0.000 C 
ATOM     27  C   UNL     1      -2.353   9.627  16.083  0.00  0.00    +0.000 C 
ATOM     28  C   UNL     1      -3.370  10.306  15.174  0.00  0.00    +0.000 C 
ATOM     29  C   UNL     1      -4.087  11.335  16.044  0.00  0.00    +0.000 C 
ATOM     30  C   UNL     1      -3.354  11.355  17.385  0.00  0.00    +0.000 C 
ENDBRANCH  24  26
ENDBRANCH   9  22
TORSDOF 4
ENDMDL
MODEL 9
REMARK VINA RESULT:      -7.5      5.462      8.934
REMARK  Name = 
REMARK  4 active torsions:
REMARK  status: ('A' for Active; 'I' for Inactive)
REMARK    1  A    between atoms: C_2  and  C_21
REMARK    2  A    between atoms: N_3  and  C_4
REMARK    3  A    between atoms: C_12  and  C_13
REMARK    4  A    between atoms: N_15  and  C_16
REMARK                            x       y       z     vdW  Elec       q    Type
REMARK                         _______ _______ _______ _____ _____    ______ ____
ROOT
ATOM      1  C   UNL     1       0.239  11.947  20.883  0.00  0.00    +0.000 A 
ATOM      2  N   UNL     1       0.259  12.326  22.190  0.00  0.00    +0.000 NA
ATOM      3  C   UNL     1      -0.588  13.312  22.295  0.00  0.00    +0.000 A 
ATOM      4  C   UNL     1      -0.972  14.075  23.430  0.00  0.00    +0.000 A 
ATOM      5  C   UNL     1      -1.817  15.108  23.285  0.00  0.00    +0.000 A 
ATOM      6  C   UNL     1      -2.350  15.463  21.979  0.00  0.00    +0.000 A 
ATOM      7  C   UNL     1      -2.022  14.717  20.909  0.00  0.00    +0.000 A 
ATOM      8  N   UNL     1      -1.152  13.631  21.062  0.00  0.00    +0.000 N 
ATOM      9  C   UNL     1      -0.646  12.716  20.139  0.00  0.00    +0.000 A 
ENDROOT
BRANCH   1  12
ATOM     10  O   UNL     1      -0.719   9.312  20.335  0.00  0.00    +0.000 OA
ATOM     11  C   UNL     1       0.452   9.641  20.166  0.00  0.00    +0.000 C 
ATOM     12  N   UNL     1       1.003  10.882  20.444  0.00  0.00    +0.000 N 
ATOM     13  H   UNL     1       1.996  11.039  20.330  0.00  0.00    +0.000 HD
BRANCH  11  14
ATOM     14  C   UNL     1       1.369   8.581  19.665  0.00  0.00    +0.000 A 
ATOM     15  C   UNL     1       1.649   7.498  20.521  0.00  0.00    +0.000 A 
ATOM     16  C   UNL     1       2.527   6.489  20.127  0.00  0.00    +0.000 A 
ATOM     17  C   UNL     1       3.126   6.560  18.876  0.00  0.00    +0.000 A 
ATOM     18  F   UNL     1       3.974   5.596  18.499  0.00  0.00    +0.000 F 
ATOM     19  C   UNL     1       2.864   7.617  18.014  0.00  0.00    +0.000 A 
ATOM     20  C   UNL     1       1.986   8.623  18.414  0.00  0.00    +0.000 A 
ATOM     21  F   UNL     1       1.764   9.643  17.570  0.00  0.00    +0.000 F 
ENDBRANCH  11  14
ENDBRANCH   1  12
BRANCH   9  22
ATOM     22  C   UNL     1      -1.034  12.644  18.750  0.00  0.00    +0.000 C 
ATOM     23  O   UNL     1      -0.672  13.459  17.908  0.00  0.00    +0.000 OA
ATOM     24  N   UNL     1      -1.856  11.580  18.420  0.00  0.00    +0.000 N 
ATOM     25  H   UNL     1      -1.829  10.774  19.032  0.00  0.00    +0.000 HD
BRANCH  24  26
ATOM     26  C   UNL     1      -2.344  11.386  17.065  0.00  0.00    +0.000 C 
ATOM     27  C   UNL     1      -2.057   9.996  16.505  0.00  0.00    +0.000 C 
ATOM     28  C   UNL     1      -3.022   9.867  15.331  0.00  0.00    +0.000 C 
ATOM     29  C   UNL     1      -4.229  10.730  15.686  0.00  0.00    +0.000 C 
ATOM     30  C   UNL     1      -3.866  11.478  16.968  0.00  0.00    +0.000 C 
ENDBRANCH  24  26
ENDBRANCH   9  22
TORSDOF 4
ENDMDL
