MODEL 1
REMARK VINA RESULT:      -7.0      0.000      0.000
REMARK  Name = 
REMARK  5 active torsions:
REMARK  status: ('A' for Active; 'I' for Inactive)
REMARK    1  A    between atoms: C_1  and  C_2
REMARK    2  A    between atoms: C_2  and  N_3
REMARK    3  A    between atoms: C_6  and  N_7
REMARK    4  A    between atoms: C_10  and  C_11
REMARK    5  A    between atoms: N_13  and  C_14
REMARK                            x       y       z     vdW  Elec       q    Type
REMARK                         _______ _______ _______ _____ _____    ______ ____
ROOT
ATOM      1  N   UNL     1       6.212   4.937  15.972  0.00  0.00    +0.000 N 
ATOM      2  N   UNL     1       7.529   4.647  16.010  0.00  0.00    +0.000 NA
ATOM      3  C   UNL     1       7.824   4.630  17.305  0.00  0.00    +0.000 A 
ATOM      4  C   UNL     1       6.699   4.888  18.107  0.00  0.00    +0.000 A 
ATOM      5  C   UNL     1       5.629   5.077  17.232  0.00  0.00    +0.000 A 
ENDROOT
BRANCH   5   6
ATOM      6  C   UNL     1       4.225   5.403  17.431  0.00  0.00    +0.000 C 
ATOM      7  O   UNL     1       3.766   6.482  17.063  0.00  0.00    +0.000 OA
ATOM      8  N   UNL     1       3.408   4.460  18.026  0.00  0.00    +0.000 N 
ATOM      9  H   UNL     1       3.844   3.701  18.539  0.00  0.00    +0.000 HD
BRANCH   8  10
ATOM     10  C   UNL     1       2.034   4.797  18.418  0.00  0.00    +0.000 C 
ATOM     11  C   UNL     1       1.064   3.607  18.318  0.00  0.00    +0.000 C 
ATOM     12  C   UNL     1       1.155   2.611  19.473  0.00  0.00    +0.000 C 
ATOM     13  C   UNL     1       1.131   3.291  20.838  0.00  0.00    +0.000 C 
ATOM     14  C   UNL     1       2.173   4.396  20.933  0.00  0.00    +0.000 C 
ATOM     15  C   UNL     1       1.996   5.426  19.817  0.00  0.00    +0.000 C 
ENDBRANCH   8  10
ENDBRANCH   5   6
BRANCH   4  16
ATOM     16  N   UNL     1       6.754   4.965  19.537  0.00  0.00    +0.000 N 
ATOM     17  O   UNL     1       5.782   4.511  20.156  0.00  0.00    +0.000 OA
ATOM     18  O   UNL     1       7.740   5.490  20.056  0.00  0.00    +0.000 OA
ENDBRANCH   4  16
BRANCH   1  20
ATOM     19  C   UNL     1       6.125   3.900  13.729  0.00  0.00    +0.000 C 
ATOM     20  C   UNL     1       5.614   4.999  14.650  0.00  0.00    +0.000 C 
ENDBRANCH   1  20
TORSDOF 4
ENDMDL
MODEL 2
REMARK VINA RESULT:      -6.7      1.954      2.606
REMARK  Name = 
REMARK  5 active torsions:
REMARK  status: ('A' for Active; 'I' for Inactive)
REMARK    1  A    between atoms: C_1  and  C_2
REMARK    2  A    between atoms: C_2  and  N_3
REMARK    3  A    between atoms: C_6  and  N_7
REMARK    4  A    between atoms: C_10  and  C_11
REMARK    5  A    between atoms: N_13  and  C_14
REMARK                            x       y       z     vdW  Elec       q    Type
REMARK                         _______ _______ _______ _____ _____    ______ ____
ROOT
ATOM      1  N   UNL     1       5.353   6.875  17.152  0.00  0.00    +0.000 N 
ATOM      2  N   UNL     1       6.338   7.796  17.175  0.00  0.00    +0.000 NA
ATOM      3  C   UNL     1       7.385   7.144  17.667  0.00  0.00    +0.000 A 
ATOM      4  C   UNL     1       7.087   5.800  17.946  0.00  0.00    +0.000 A 
ATOM      5  C   UNL     1       5.751   5.612  17.593  0.00  0.00    +0.000 A 
ENDROOT
BRANCH   5   6
ATOM      6  C   UNL     1       4.851   4.472  17.667  0.00  0.00    +0.000 C 
ATOM      7  O   UNL     1       4.905   3.566  16.837  0.00  0.00    +0.000 OA
ATOM      8  N   UNL     1       3.944   4.415  18.708  0.00  0.00    +0.000 N 
ATOM      9  H   UNL     1       3.745   5.267  19.221  0.00  0.00    +0.000 HD
BRANCH   8  10
ATOM     10  C   UNL     1       2.893   3.389  18.734  0.00  0.00    +0.000 C 
ATOM     11  C   UNL     1       3.152   2.281  19.769  0.00  0.00    +0.000 C 
ATOM     12  C   UNL     1       2.820   2.664  21.210  0.00  0.00    +0.000 C 
ATOM     13  C   UNL     1       1.441   3.302  21.346  0.00  0.00    +0.000 C 
ATOM     14  C   UNL     1       1.261   4.460  20.375  0.00  0.00    +0.000 C 
ATOM     15  C   UNL     1       1.508   4.020  18.932  0.00  0.00    +0.000 C 
ENDBRANCH   8  10
ENDBRANCH   5   6
BRANCH   4  16
ATOM     16  N   UNL     1       8.033   4.888  18.522  0.00  0.00    +0.000 N 
ATOM     17  O   UNL     1       8.321   5.064  19.713  0.00  0.00    +0.000 OA
ATOM     18  O   UNL     1       8.510   4.011  17.801  0.00  0.00    +0.000 OA
ENDBRANCH   4  16
BRANCH   1  20
ATOM     19  C   UNL     1       3.114   7.751  17.728  0.00  0.00    +0.000 C 
ATOM     20  C   UNL     1       4.075   7.325  16.627  0.00  0.00    +0.000 C 
ENDBRANCH   1  20
TORSDOF 4
ENDMDL
MODEL 3
REMARK VINA RESULT:      -6.7      2.064      3.297
REMARK  Name = 
REMARK  5 active torsions:
REMARK  status: ('A' for Active; 'I' for Inactive)
REMARK    1  A    between atoms: C_1  and  C_2
REMARK    2  A    between atoms: C_2  and  N_3
REMARK    3  A    between atoms: C_6  and  N_7
REMARK    4  A    between atoms: C_10  and  C_11
REMARK    5  A    between atoms: N_13  and  C_14
REMARK                            x       y       z     vdW  Elec       q    Type
REMARK                         _______ _______ _______ _____ _____    ______ ____
ROOT
ATOM      1  N   UNL     1       4.275   6.304  17.662  0.00  0.00    +0.000 N 
ATOM      2  N   UNL     1       5.000   7.385  17.306  0.00  0.00    +0.000 NA
ATOM      3  C   UNL     1       6.218   6.905  17.083  0.00  0.00    +0.000 A 
ATOM      4  C   UNL     1       6.281   5.515  17.275  0.00  0.00    +0.000 A 
ATOM      5  C   UNL     1       4.998   5.110  17.643  0.00  0.00    +0.000 A 
ENDROOT
BRANCH   5   6
ATOM      6  C   UNL     1       4.424   3.823  18.003  0.00  0.00    +0.000 C 
ATOM      7  O   UNL     1       4.146   2.989  17.143  0.00  0.00    +0.000 OA
ATOM      8  N   UNL     1       4.215   3.546  19.341  0.00  0.00    +0.000 N 
ATOM      9  H   UNL     1       4.211   4.319  19.998  0.00  0.00    +0.000 HD
BRANCH   8  10
ATOM     10  C   UNL     1       3.475   2.347  19.754  0.00  0.00    +0.000 C 
ATOM     11  C   UNL     1       3.206   2.290  21.267  0.00  0.00    +0.000 C 
ATOM     12  C   UNL     1       2.053   3.172  21.744  0.00  0.00    +0.000 C 
ATOM     13  C   UNL     1       0.792   2.996  20.904  0.00  0.00    +0.000 C 
ATOM     14  C   UNL     1       1.081   3.160  19.418  0.00  0.00    +0.000 C 
ATOM     15  C   UNL     1       2.174   2.198  18.953  0.00  0.00    +0.000 C 
ENDBRANCH   8  10
ENDBRANCH   5   6
BRANCH   4  16
ATOM     16  N   UNL     1       7.490   4.756  17.137  0.00  0.00    +0.000 N 
ATOM     17  O   UNL     1       7.868   4.517  15.982  0.00  0.00    +0.000 OA
ATOM     18  O   UNL     1       8.060   4.374  18.160  0.00  0.00    +0.000 OA
ENDBRANCH   4  16
BRANCH   1  20
ATOM     19  C   UNL     1       2.606   6.725  19.437  0.00  0.00    +0.000 C 
ATOM     20  C   UNL     1       2.872   6.546  17.948  0.00  0.00    +0.000 C 
ENDBRANCH   1  20
TORSDOF 4
ENDMDL
MODEL 4
REMARK VINA RESULT:      -6.5      2.125      3.551
REMARK  Name = 
REMARK  5 active torsions:
REMARK  status: ('A' for Active; 'I' for Inactive)
REMARK    1  A    between atoms: C_1  and  C_2
REMARK    2  A    between atoms: C_2  and  N_3
REMARK    3  A    between atoms: C_6  and  N_7
REMARK    4  A    between atoms: C_10  and  C_11
REMARK    5  A    between atoms: N_13  and  C_14
REMARK                            x       y       z     vdW  Elec       q    Type
REMARK                         _______ _______ _______ _____ _____    ______ ____
ROOT
ATOM      1  N   UNL     1       4.230   6.422  17.410  0.00  0.00    +0.000 N 
ATOM      2  N   UNL     1       4.601   7.271  16.429  0.00  0.00    +0.000 NA
ATOM      3  C   UNL     1       5.563   6.625  15.781  0.00  0.00    +0.000 A 
ATOM      4  C   UNL     1       5.805   5.352  16.326  0.00  0.00    +0.000 A 
ATOM      5  C   UNL     1       4.917   5.207  17.392  0.00  0.00    +0.000 A 
ENDROOT
BRANCH   5   6
ATOM      6  C   UNL     1       4.691   4.147  18.362  0.00  0.00    +0.000 C 
ATOM      7  O   UNL     1       5.589   3.774  19.115  0.00  0.00    +0.000 OA
ATOM      8  N   UNL     1       3.433   3.580  18.436  0.00  0.00    +0.000 N 
ATOM      9  H   UNL     1       2.796   3.717  17.659  0.00  0.00    +0.000 HD
BRANCH   8  10
ATOM     10  C   UNL     1       3.193   2.389  19.262  0.00  0.00    +0.000 C 
ATOM     11  C   UNL     1       3.529   2.602  20.748  0.00  0.00    +0.000 C 
ATOM     12  C   UNL     1       2.471   3.371  21.538  0.00  0.00    +0.000 C 
ATOM     13  C   UNL     1       1.063   2.828  21.314  0.00  0.00    +0.000 C 
ATOM     14  C   UNL     1       0.730   2.727  19.832  0.00  0.00    +0.000 C 
ATOM     15  C   UNL     1       1.757   1.875  19.087  0.00  0.00    +0.000 C 
ENDBRANCH   8  10
ENDBRANCH   5   6
BRANCH   4  16
ATOM     16  N   UNL     1       6.820   4.467  15.835  0.00  0.00    +0.000 N 
ATOM     17  O   UNL     1       7.861   4.391  16.500  0.00  0.00    +0.000 OA
ATOM     18  O   UNL     1       6.607   3.860  14.784  0.00  0.00    +0.000 OA
ENDBRANCH   4  16
BRANCH   1  20
ATOM     19  C   UNL     1       2.563   8.202  17.810  0.00  0.00    +0.000 C 
ATOM     20  C   UNL     1       3.157   6.879  18.274  0.00  0.00    +0.000 C 
ENDBRANCH   1  20
TORSDOF 4
ENDMDL
MODEL 5
REMARK VINA RESULT:      -6.5      1.104      1.274
REMARK  Name = 
REMARK  5 active torsions:
REMARK  status: ('A' for Active; 'I' for Inactive)
REMARK    1  A    between atoms: C_1  and  C_2
REMARK    2  A    between atoms: C_2  and  N_3
REMARK    3  A    between atoms: C_6  and  N_7
REMARK    4  A    between atoms: C_10  and  C_11
REMARK    5  A    between atoms: N_13  and  C_14
REMARK                            x       y       z     vdW  Elec       q    Type
REMARK                         _______ _______ _______ _____ _____    ______ ____
ROOT
ATOM      1  N   UNL     1       6.257   4.299  15.900  0.00  0.00    +0.000 N 
ATOM      2  N   UNL     1       7.520   4.759  16.021  0.00  0.00    +0.000 NA
ATOM      3  C   UNL     1       7.608   5.147  17.288  0.00  0.00    +0.000 A 
ATOM      4  C   UNL     1       6.413   4.924  17.994  0.00  0.00    +0.000 A 
ATOM      5  C   UNL     1       5.523   4.349  17.086  0.00  0.00    +0.000 A 
ENDROOT
BRANCH   5   6
ATOM      6  C   UNL     1       4.137   3.919  17.187  0.00  0.00    +0.000 C 
ATOM      7  O   UNL     1       3.391   3.948  16.210  0.00  0.00    +0.000 OA
ATOM      8  N   UNL     1       3.679   3.453  18.405  0.00  0.00    +0.000 N 
ATOM      9  H   UNL     1       4.218   3.670  19.237  0.00  0.00    +0.000 HD
BRANCH   8  10
ATOM     10  C   UNL     1       2.252   3.179  18.616  0.00  0.00    +0.000 C 
ATOM     11  C   UNL     1       1.994   1.959  19.515  0.00  0.00    +0.000 C 
ATOM     12  C   UNL     1       2.170   2.220  21.011  0.00  0.00    +0.000 C 
ATOM     13  C   UNL     1       1.439   3.474  21.478  0.00  0.00    +0.000 C 
ATOM     14  C   UNL     1       1.798   4.683  20.625  0.00  0.00    +0.000 C 
ATOM     15  C   UNL     1       1.522   4.421  19.144  0.00  0.00    +0.000 C 
ENDBRANCH   8  10
ENDBRANCH   5   6
BRANCH   4  16
ATOM     16  N   UNL     1       6.232   5.290  19.368  0.00  0.00    +0.000 N 
ATOM     17  O   UNL     1       5.086   5.608  19.712  0.00  0.00    +0.000 OA
ATOM     18  O   UNL     1       7.217   5.287  20.108  0.00  0.00    +0.000 OA
ENDBRANCH   4  16
BRANCH   1  20
ATOM     19  C   UNL     1       6.786   4.323  13.485  0.00  0.00    +0.000 C 
ATOM     20  C   UNL     1       5.892   3.783  14.593  0.00  0.00    +0.000 C 
ENDBRANCH   1  20
TORSDOF 4
ENDMDL
MODEL 6
REMARK VINA RESULT:      -6.5      2.245      3.301
REMARK  Name = 
REMARK  5 active torsions:
REMARK  status: ('A' for Active; 'I' for Inactive)
REMARK    1  A    between atoms: C_1  and  C_2
REMARK    2  A    between atoms: C_2  and  N_3
REMARK    3  A    between atoms: C_6  and  N_7
REMARK    4  A    between atoms: C_10  and  C_11
REMARK    5  A    between atoms: N_13  and  C_14
REMARK                            x       y       z     vdW  Elec       q    Type
REMARK                         _______ _______ _______ _____ _____    ______ ____
ROOT
ATOM      1  N   UNL     1       4.376   6.489  17.647  0.00  0.00    +0.000 N 
ATOM      2  N   UNL     1       5.140   7.561  17.349  0.00  0.00    +0.000 NA
ATOM      3  C   UNL     1       6.272   7.039  16.891  0.00  0.00    +0.000 A 
ATOM      4  C   UNL     1       6.238   5.635  16.873  0.00  0.00    +0.000 A 
ATOM      5  C   UNL     1       4.983   5.266  17.356  0.00  0.00    +0.000 A 
ENDROOT
BRANCH   5   6
ATOM      6  C   UNL     1       4.350   3.981  17.608  0.00  0.00    +0.000 C 
ATOM      7  O   UNL     1       4.137   3.188  16.692  0.00  0.00    +0.000 OA
ATOM      8  N   UNL     1       4.010   3.658  18.908  0.00  0.00    +0.000 N 
ATOM      9  H   UNL     1       3.960   4.404  19.593  0.00  0.00    +0.000 HD
BRANCH   8  10
ATOM     10  C   UNL     1       3.208   2.462  19.200  0.00  0.00    +0.000 C 
ATOM     11  C   UNL     1       3.339   1.983  20.655  0.00  0.00    +0.000 C 
ATOM     12  C   UNL     1       2.521   2.785  21.667  0.00  0.00    +0.000 C 
ATOM     13  C   UNL     1       1.074   2.981  21.228  0.00  0.00    +0.000 C 
ATOM     14  C   UNL     1       0.987   3.552  19.820  0.00  0.00    +0.000 C 
ATOM     15  C   UNL     1       1.737   2.676  18.817  0.00  0.00    +0.000 C 
ENDBRANCH   8  10
ENDBRANCH   5   6
BRANCH   4  16
ATOM     16  N   UNL     1       7.348   4.826  16.459  0.00  0.00    +0.000 N 
ATOM     17  O   UNL     1       8.054   4.350  17.357  0.00  0.00    +0.000 OA
ATOM     18  O   UNL     1       7.542   4.675  15.252  0.00  0.00    +0.000 OA
ENDBRANCH   4  16
BRANCH   1  20
ATOM     19  C   UNL     1       2.610   8.206  17.861  0.00  0.00    +0.000 C 
ATOM     20  C   UNL     1       3.048   6.779  18.160  0.00  0.00    +0.000 C 
ENDBRANCH   1  20
TORSDOF 4
ENDMDL
MODEL 7
REMARK VINA RESULT:      -6.4      1.895      3.020
REMARK  Name = 
REMARK  5 active torsions:
REMARK  status: ('A' for Active; 'I' for Inactive)
REMARK    1  A    between atoms: C_1  and  C_2
REMARK    2  A    between atoms: C_2  and  N_3
REMARK    3  A    between atoms: C_6  and  N_7
REMARK    4  A    between atoms: C_10  and  C_11
REMARK    5  A    between atoms: N_13  and  C_14
REMARK                            x       y       z     vdW  Elec       q    Type
REMARK                         _______ _______ _______ _____ _____    ______ ____
ROOT
ATOM      1  N   UNL     1       5.570   5.179  16.141  0.00  0.00    +0.000 N 
ATOM      2  N   UNL     1       5.587   6.310  15.404  0.00  0.00    +0.000 NA
ATOM      3  C   UNL     1       4.777   7.137  16.055  0.00  0.00    +0.000 A 
ATOM      4  C   UNL     1       4.251   6.555  17.220  0.00  0.00    +0.000 A 
ATOM      5  C   UNL     1       4.783   5.267  17.290  0.00  0.00    +0.000 A 
ENDROOT
BRANCH   5   6
ATOM      6  C   UNL     1       4.608   4.166  18.224  0.00  0.00    +0.000 C 
ATOM      7  O   UNL     1       5.562   3.705  18.849  0.00  0.00    +0.000 OA
ATOM      8  N   UNL     1       3.336   3.658  18.412  0.00  0.00    +0.000 N 
ATOM      9  H   UNL     1       2.625   3.872  17.721  0.00  0.00    +0.000 HD
BRANCH   8  10
ATOM     10  C   UNL     1       3.123   2.435  19.197  0.00  0.00    +0.000 C 
ATOM     11  C   UNL     1       3.536   2.580  20.671  0.00  0.00    +0.000 C 
ATOM     12  C   UNL     1       2.527   3.324  21.546  0.00  0.00    +0.000 C 
ATOM     13  C   UNL     1       1.103   2.805  21.370  0.00  0.00    +0.000 C 
ATOM     14  C   UNL     1       0.696   2.772  19.903  0.00  0.00    +0.000 C 
ATOM     15  C   UNL     1       1.675   1.943  19.072  0.00  0.00    +0.000 C 
ENDBRANCH   8  10
ENDBRANCH   5   6
BRANCH   4  16
ATOM     16  N   UNL     1       3.320   7.223  18.082  0.00  0.00    +0.000 N 
ATOM     17  O   UNL     1       2.919   8.334  17.713  0.00  0.00    +0.000 OA
ATOM     18  O   UNL     1       2.996   6.667  19.133  0.00  0.00    +0.000 OA
ENDBRANCH   4  16
BRANCH   1  20
ATOM     19  C   UNL     1       6.329   3.936  14.143  0.00  0.00    +0.000 C 
ATOM     20  C   UNL     1       6.404   4.094  15.656  0.00  0.00    +0.000 C 
ENDBRANCH   1  20
TORSDOF 4
ENDMDL
MODEL 8
REMARK VINA RESULT:      -6.4      2.069      5.795
REMARK  Name = 
REMARK  5 active torsions:
REMARK  status: ('A' for Active; 'I' for Inactive)
REMARK    1  A    between atoms: C_1  and  C_2
REMARK    2  A    between atoms: C_2  and  N_3
REMARK    3  A    between atoms: C_6  and  N_7
REMARK    4  A    between atoms: C_10  and  C_11
REMARK    5  A    between atoms: N_13  and  C_14
REMARK                            x       y       z     vdW  Elec       q    Type
REMARK                         _______ _______ _______ _____ _____    ______ ____
ROOT
ATOM      1  N   UNL     1       2.423   5.500  20.124  0.00  0.00    +0.000 N 
ATOM      2  N   UNL     1       1.457   4.770  20.721  0.00  0.00    +0.000 NA
ATOM      3  C   UNL     1       1.905   3.522  20.660  0.00  0.00    +0.000 A 
ATOM      4  C   UNL     1       3.165   3.441  20.043  0.00  0.00    +0.000 A 
ATOM      5  C   UNL     1       3.519   4.746  19.701  0.00  0.00    +0.000 A 
ENDROOT
BRANCH   5   6
ATOM      6  C   UNL     1       4.669   5.320  19.021  0.00  0.00    +0.000 C 
ATOM      7  O   UNL     1       5.718   5.539  19.624  0.00  0.00    +0.000 OA
ATOM      8  N   UNL     1       4.566   5.597  17.671  0.00  0.00    +0.000 N 
ATOM      9  H   UNL     1       3.640   5.647  17.259  0.00  0.00    +0.000 HD
BRANCH   8  10
ATOM     10  C   UNL     1       5.622   6.342  16.974  0.00  0.00    +0.000 C 
ATOM     11  C   UNL     1       7.029   5.767  17.210  0.00  0.00    +0.000 C 
ATOM     12  C   UNL     1       7.356   4.522  16.387  0.00  0.00    +0.000 C 
ATOM     13  C   UNL     1       7.018   4.689  14.910  0.00  0.00    +0.000 C 
ATOM     14  C   UNL     1       5.584   5.162  14.713  0.00  0.00    +0.000 C 
ATOM     15  C   UNL     1       5.317   6.461  15.474  0.00  0.00    +0.000 C 
ENDBRANCH   8  10
ENDBRANCH   5   6
BRANCH   4  16
ATOM     16  N   UNL     1       3.852   2.202  19.818  0.00  0.00    +0.000 N 
ATOM     17  O   UNL     1       3.367   1.444  18.968  0.00  0.00    +0.000 OA
ATOM     18  O   UNL     1       4.857   1.962  20.489  0.00  0.00    +0.000 OA
ENDBRANCH   4  16
BRANCH   1  20
ATOM     19  C   UNL     1       1.188   7.400  21.113  0.00  0.00    +0.000 C 
ATOM     20  C   UNL     1       2.194   6.933  20.070  0.00  0.00    +0.000 C 
ENDBRANCH   1  20
TORSDOF 4
ENDMDL
MODEL 9
REMARK VINA RESULT:      -6.2      2.079      2.937
REMARK  Name = 
REMARK  5 active torsions:
REMARK  status: ('A' for Active; 'I' for Inactive)
REMARK    1  A    between atoms: C_1  and  C_2
REMARK    2  A    between atoms: C_2  and  N_3
REMARK    3  A    between atoms: C_6  and  N_7
REMARK    4  A    between atoms: C_10  and  C_11
REMARK    5  A    between atoms: N_13  and  C_14
REMARK                            x       y       z     vdW  Elec       q    Type
REMARK                         _______ _______ _______ _____ _____    ______ ____
ROOT
ATOM      1  N   UNL     1       5.676   5.124  16.122  0.00  0.00    +0.000 N 
ATOM      2  N   UNL     1       5.941   6.399  15.769  0.00  0.00    +0.000 NA
ATOM      3  C   UNL     1       5.093   7.122  16.492  0.00  0.00    +0.000 A 
ATOM      4  C   UNL     1       4.293   6.323  17.325  0.00  0.00    +0.000 A 
ATOM      5  C   UNL     1       4.684   5.003  17.097  0.00  0.00    +0.000 A 
ENDROOT
BRANCH   5   6
ATOM      6  C   UNL     1       4.227   3.724  17.617  0.00  0.00    +0.000 C 
ATOM      7  O   UNL     1       3.966   2.789  16.863  0.00  0.00    +0.000 OA
ATOM      8  N   UNL     1       4.112   3.574  18.987  0.00  0.00    +0.000 N 
ATOM      9  H   UNL     1       4.087   4.408  19.562  0.00  0.00    +0.000 HD
BRANCH   8  10
ATOM     10  C   UNL     1       3.486   2.376  19.561  0.00  0.00    +0.000 C 
ATOM     11  C   UNL     1       3.407   2.408  21.096  0.00  0.00    +0.000 C 
ATOM     12  C   UNL     1       2.281   3.274  21.660  0.00  0.00    +0.000 C 
ATOM     13  C   UNL     1       0.937   2.993  20.996  0.00  0.00    +0.000 C 
ATOM     14  C   UNL     1       1.033   3.070  19.479  0.00  0.00    +0.000 C 
ATOM     15  C   UNL     1       2.105   2.123  18.940  0.00  0.00    +0.000 C 
ENDBRANCH   8  10
ENDBRANCH   5   6
BRANCH   4  16
ATOM     16  N   UNL     1       3.269   6.854  18.178  0.00  0.00    +0.000 N 
ATOM     17  O   UNL     1       3.111   6.294  19.271  0.00  0.00    +0.000 OA
ATOM     18  O   UNL     1       2.605   7.807  17.769  0.00  0.00    +0.000 OA
ENDBRANCH   4  16
BRANCH   1  20
ATOM     19  C   UNL     1       6.171   3.950  14.003  0.00  0.00    +0.000 C 
ATOM     20  C   UNL     1       6.491   4.106  15.484  0.00  0.00    +0.000 C 
ENDBRANCH   1  20
TORSDOF 4
ENDMDL
