MODEL 1
REMARK VINA RESULT:      -8.4      0.000      0.000
REMARK  Name = 
REMARK  4 active torsions:
REMARK  status: ('A' for Active; 'I' for Inactive)
REMARK    1  A    between atoms: O_1  and  C_2
REMARK    2  A    between atoms: C_4  and  C_5
REMARK    3  A    between atoms: C_7  and  C_8
REMARK    4  A    between atoms: C_12  and  C_13
REMARK                            x       y       z     vdW  Elec       q    Type
REMARK                         _______ _______ _______ _____ _____    ______ ____
ROOT
ATOM      1  C   UNL     1       0.806   9.583  22.018  0.00  0.00    +0.000 A 
ATOM      2  N   UNL     1       1.296   8.432  21.557  0.00  0.00    +0.000 NA
ATOM      3  C   UNL     1       1.485   8.372  20.228  0.00  0.00    +0.000 A 
ATOM      4  N   UNL     1       1.178   9.370  19.372  0.00  0.00    +0.000 NA
ATOM      5  C   UNL     1       0.693  10.512  19.881  0.00  0.00    +0.000 A 
ATOM      6  C   UNL     1       0.401  11.573  19.032  0.00  0.00    +0.000 A 
ATOM      7  C   UNL     1      -0.050  12.797  19.532  0.00  0.00    +0.000 A 
ATOM      8 CL   UNL     1      -0.363  14.095  18.446  0.00  0.00    +0.000 Cl
ATOM      9  C   UNL     1      -0.238  12.980  20.896  0.00  0.00    +0.000 A 
ATOM     10  C   UNL     1       0.020  11.923  21.762  0.00  0.00    +0.000 A 
ATOM     11  C   UNL     1       0.491  10.693  21.250  0.00  0.00    +0.000 A 
ENDROOT
BRANCH   3  12
ATOM     12  C   UNL     1       2.138   7.157  19.670  0.00  0.00    +0.000 C 
ATOM     13 CL   UNL     1       2.166   5.743  20.693  0.00  0.00    +0.000 Cl
ATOM     14  C   UNL     1       2.719   7.139  18.452  0.00  0.00    +0.000 C 
BRANCH  14  15
ATOM     15  C   UNL     1       3.422   5.983  17.887  0.00  0.00    +0.000 A 
ATOM     16  C   UNL     1       2.745   4.781  17.666  0.00  0.00    +0.000 A 
ATOM     17  C   UNL     1       3.437   3.659  17.210  0.00  0.00    +0.000 A 
ATOM     18  C   UNL     1       4.812   3.729  16.983  0.00  0.00    +0.000 A 
ATOM     19  C   UNL     1       5.508   4.927  17.195  0.00  0.00    +0.000 A 
ATOM     20  C   UNL     1       4.799   6.058  17.630  0.00  0.00    +0.000 A 
BRANCH  19  21
ATOM     21  C   UNL     1       7.001   5.009  16.991  0.00  0.00    +0.000 C 
ATOM     22  F   UNL     1       7.422   4.469  15.812  0.00  0.00    +0.000 F 
ATOM     23  F   UNL     1       7.462   6.290  16.998  0.00  0.00    +0.000 F 
ATOM     24  F   UNL     1       7.696   4.358  17.965  0.00  0.00    +0.000 F 
ENDBRANCH  19  21
ENDBRANCH  14  15
ENDBRANCH   3  12
BRANCH   1  25
ATOM     25  O   UNL     1       0.654   9.598  23.370  0.00  0.00    +0.000 OA
ATOM     26  H   UNL     1       1.548   9.330  23.654  0.00  0.00    +0.000 HD
ENDBRANCH   1  25
TORSDOF 4
ENDMDL
MODEL 2
REMARK VINA RESULT:      -8.2      5.090      8.686
REMARK  Name = 
REMARK  4 active torsions:
REMARK  status: ('A' for Active; 'I' for Inactive)
REMARK    1  A    between atoms: O_1  and  C_2
REMARK    2  A    between atoms: C_4  and  C_5
REMARK    3  A    between atoms: C_7  and  C_8
REMARK    4  A    between atoms: C_12  and  C_13
REMARK                            x       y       z     vdW  Elec       q    Type
REMARK                         _______ _______ _______ _____ _____    ______ ____
ROOT
ATOM      1  C   UNL     1       3.363   4.525  18.226  0.00  0.00    +0.000 A 
ATOM      2  N   UNL     1       2.671   5.547  18.729  0.00  0.00    +0.000 NA
ATOM      3  C   UNL     1       2.952   6.753  18.207  0.00  0.00    +0.000 A 
ATOM      4  N   UNL     1       3.891   6.970  17.261  0.00  0.00    +0.000 NA
ATOM      5  C   UNL     1       4.559   5.912  16.780  0.00  0.00    +0.000 A 
ATOM      6  C   UNL     1       5.507   6.093  15.779  0.00  0.00    +0.000 A 
ATOM      7  C   UNL     1       6.179   5.008  15.213  0.00  0.00    +0.000 A 
ATOM      8 CL   UNL     1       7.317   5.278  13.950  0.00  0.00    +0.000 Cl
ATOM      9  C   UNL     1       5.931   3.713  15.650  0.00  0.00    +0.000 A 
ATOM     10  C   UNL     1       5.008   3.510  16.670  0.00  0.00    +0.000 A 
ATOM     11  C   UNL     1       4.320   4.611  17.227  0.00  0.00    +0.000 A 
ENDROOT
BRANCH   3  12
ATOM     12  C   UNL     1       2.130   7.914  18.645  0.00  0.00    +0.000 C 
ATOM     13 CL   UNL     1       1.707   7.977  20.338  0.00  0.00    +0.000 Cl
ATOM     14  C   UNL     1       1.693   8.858  17.788  0.00  0.00    +0.000 C 
BRANCH  14  15
ATOM     15  C   UNL     1       0.834   9.986  18.167  0.00  0.00    +0.000 A 
ATOM     16  C   UNL     1       1.348  11.045  18.920  0.00  0.00    +0.000 A 
ATOM     17  C   UNL     1       0.508  12.072  19.351  0.00  0.00    +0.000 A 
ATOM     18  C   UNL     1      -0.852  12.041  19.041  0.00  0.00    +0.000 A 
ATOM     19  C   UNL     1      -1.385  10.989  18.283  0.00  0.00    +0.000 A 
ATOM     20  C   UNL     1      -0.527   9.973  17.832  0.00  0.00    +0.000 A 
BRANCH  19  21
ATOM     21  C   UNL     1      -2.860  10.920  17.971  0.00  0.00    +0.000 C 
ATOM     22  F   UNL     1      -3.190  11.474  16.770  0.00  0.00    +0.000 F 
ATOM     23  F   UNL     1      -3.329   9.643  17.933  0.00  0.00    +0.000 F 
ATOM     24  F   UNL     1      -3.619  11.569  18.898  0.00  0.00    +0.000 F 
ENDBRANCH  19  21
ENDBRANCH  14  15
ENDBRANCH   3  12
BRANCH   1  25
ATOM     25  O   UNL     1       3.025   3.327  18.774  0.00  0.00    +0.000 OA
ATOM     26  H   UNL     1       3.611   2.729  18.273  0.00  0.00    +0.000 HD
ENDBRANCH   1  25
TORSDOF 4
ENDMDL
MODEL 3
REMARK VINA RESULT:      -8.2      1.461      1.623
REMARK  Name = 
REMARK  4 active torsions:
REMARK  status: ('A' for Active; 'I' for Inactive)
REMARK    1  A    between atoms: O_1  and  C_2
REMARK    2  A    between atoms: C_4  and  C_5
REMARK    3  A    between atoms: C_7  and  C_8
REMARK    4  A    between atoms: C_12  and  C_13
REMARK                            x       y       z     vdW  Elec       q    Type
REMARK                         _______ _______ _______ _____ _____    ______ ____
ROOT
ATOM      1  C   UNL     1       0.780   9.486  22.325  0.00  0.00    +0.000 A 
ATOM      2  N   UNL     1       1.463   8.662  21.531  0.00  0.00    +0.000 NA
ATOM      3  C   UNL     1       1.196   8.764  20.217  0.00  0.00    +0.000 A 
ATOM      4  N   UNL     1       0.278   9.606  19.694  0.00  0.00    +0.000 NA
ATOM      5  C   UNL     1      -0.381  10.422  20.530  0.00  0.00    +0.000 A 
ATOM      6  C   UNL     1      -1.305  11.326  20.021  0.00  0.00    +0.000 A 
ATOM      7  C   UNL     1      -1.967  12.231  20.853  0.00  0.00    +0.000 A 
ATOM      8 CL   UNL     1      -3.076  13.359  20.174  0.00  0.00    +0.000 Cl
ATOM      9  C   UNL     1      -1.731  12.239  22.223  0.00  0.00    +0.000 A 
ATOM     10  C   UNL     1      -0.832  11.323  22.758  0.00  0.00    +0.000 A 
ATOM     11  C   UNL     1      -0.154  10.422  21.907  0.00  0.00    +0.000 A 
ENDROOT
BRANCH   3  12
ATOM     12  C   UNL     1       2.009   7.952  19.273  0.00  0.00    +0.000 C 
ATOM     13 CL   UNL     1       2.259   8.622  17.680  0.00  0.00    +0.000 Cl
ATOM     14  C   UNL     1       2.505   6.741  19.599  0.00  0.00    +0.000 C 
BRANCH  14  15
ATOM     15  C   UNL     1       3.263   5.883  18.682  0.00  0.00    +0.000 A 
ATOM     16  C   UNL     1       2.620   4.867  17.969  0.00  0.00    +0.000 A 
ATOM     17  C   UNL     1       3.358   3.998  17.165  0.00  0.00    +0.000 A 
ATOM     18  C   UNL     1       4.744   4.132  17.078  0.00  0.00    +0.000 A 
ATOM     19  C   UNL     1       5.407   5.147  17.782  0.00  0.00    +0.000 A 
ATOM     20  C   UNL     1       4.653   6.033  18.569  0.00  0.00    +0.000 A 
BRANCH  19  21
ATOM     21  C   UNL     1       6.909   5.282  17.730  0.00  0.00    +0.000 C 
ATOM     22  F   UNL     1       7.332   6.451  17.170  0.00  0.00    +0.000 F 
ATOM     23  F   UNL     1       7.483   5.231  18.963  0.00  0.00    +0.000 F 
ATOM     24  F   UNL     1       7.496   4.290  17.004  0.00  0.00    +0.000 F 
ENDBRANCH  19  21
ENDBRANCH  14  15
ENDBRANCH   3  12
BRANCH   1  25
ATOM     25  O   UNL     1       1.103   9.356  23.639  0.00  0.00    +0.000 OA
ATOM     26  H   UNL     1       0.282   8.961  23.988  0.00  0.00    +0.000 HD
ENDBRANCH   1  25
TORSDOF 4
ENDMDL
MODEL 4
REMARK VINA RESULT:      -8.0      5.032      8.540
REMARK  Name = 
REMARK  4 active torsions:
REMARK  status: ('A' for Active; 'I' for Inactive)
REMARK    1  A    between atoms: O_1  and  C_2
REMARK    2  A    between atoms: C_4  and  C_5
REMARK    3  A    between atoms: C_7  and  C_8
REMARK    4  A    between atoms: C_12  and  C_13
REMARK                            x       y       z     vdW  Elec       q    Type
REMARK                         _______ _______ _______ _____ _____    ______ ____
ROOT
ATOM      1  C   UNL     1       4.911   5.009  18.732  0.00  0.00    +0.000 A 
ATOM      2  N   UNL     1       4.007   5.892  19.157  0.00  0.00    +0.000 NA
ATOM      3  C   UNL     1       3.610   6.800  18.249  0.00  0.00    +0.000 A 
ATOM      4  N   UNL     1       4.094   6.876  16.991  0.00  0.00    +0.000 NA
ATOM      5  C   UNL     1       4.997   5.964  16.605  0.00  0.00    +0.000 A 
ATOM      6  C   UNL     1       5.489   5.990  15.305  0.00  0.00    +0.000 A 
ATOM      7  C   UNL     1       6.386   5.021  14.851  0.00  0.00    +0.000 A 
ATOM      8 CL   UNL     1       6.940   5.071  13.221  0.00  0.00    +0.000 Cl
ATOM      9  C   UNL     1       6.828   4.010  15.696  0.00  0.00    +0.000 A 
ATOM     10  C   UNL     1       6.372   3.981  17.009  0.00  0.00    +0.000 A 
ATOM     11  C   UNL     1       5.452   4.955  17.457  0.00  0.00    +0.000 A 
ENDROOT
BRANCH   3  12
ATOM     12  C   UNL     1       2.519   7.737  18.629  0.00  0.00    +0.000 C 
ATOM     13 CL   UNL     1       1.819   7.522  20.214  0.00  0.00    +0.000 Cl
ATOM     14  C   UNL     1       2.054   8.688  17.793  0.00  0.00    +0.000 C 
BRANCH  14  15
ATOM     15  C   UNL     1       0.943   9.594  18.104  0.00  0.00    +0.000 A 
ATOM     16  C   UNL     1       1.096  10.596  19.066  0.00  0.00    +0.000 A 
ATOM     17  C   UNL     1       0.013  11.399  19.421  0.00  0.00    +0.000 A 
ATOM     18  C   UNL     1      -1.233  11.198  18.825  0.00  0.00    +0.000 A 
ATOM     19  C   UNL     1      -1.405  10.201  17.856  0.00  0.00    +0.000 A 
ATOM     20  C   UNL     1      -0.303   9.413  17.487  0.00  0.00    +0.000 A 
BRANCH  19  21
ATOM     21  C   UNL     1      -2.754   9.944  17.230  0.00  0.00    +0.000 C 
ATOM     22  F   UNL     1      -3.509   9.037  17.914  0.00  0.00    +0.000 F 
ATOM     23  F   UNL     1      -3.515  11.069  17.142  0.00  0.00    +0.000 F 
ATOM     24  F   UNL     1      -2.656   9.459  15.961  0.00  0.00    +0.000 F 
ENDBRANCH  19  21
ENDBRANCH  14  15
ENDBRANCH   3  12
BRANCH   1  25
ATOM     25  O   UNL     1       5.261   4.101  19.682  0.00  0.00    +0.000 OA
ATOM     26  H   UNL     1       5.021   4.588  20.493  0.00  0.00    +0.000 HD
ENDBRANCH   1  25
TORSDOF 4
ENDMDL
MODEL 5
REMARK VINA RESULT:      -7.9      1.980      2.499
REMARK  Name = 
REMARK  4 active torsions:
REMARK  status: ('A' for Active; 'I' for Inactive)
REMARK    1  A    between atoms: O_1  and  C_2
REMARK    2  A    between atoms: C_4  and  C_5
REMARK    3  A    between atoms: C_7  and  C_8
REMARK    4  A    between atoms: C_12  and  C_13
REMARK                            x       y       z     vdW  Elec       q    Type
REMARK                         _______ _______ _______ _____ _____    ______ ____
ROOT
ATOM      1  C   UNL     1       0.733   9.621  22.088  0.00  0.00    +0.000 A 
ATOM      2  N   UNL     1       1.215   8.469  21.624  0.00  0.00    +0.000 NA
ATOM      3  C   UNL     1       1.410   8.412  20.295  0.00  0.00    +0.000 A 
ATOM      4  N   UNL     1       1.117   9.418  19.443  0.00  0.00    +0.000 NA
ATOM      5  C   UNL     1       0.640  10.562  19.955  0.00  0.00    +0.000 A 
ATOM      6  C   UNL     1       0.363  11.631  19.110  0.00  0.00    +0.000 A 
ATOM      7  C   UNL     1      -0.079  12.856  19.614  0.00  0.00    +0.000 A 
ATOM      8 CL   UNL     1      -0.374  14.163  18.533  0.00  0.00    +0.000 Cl
ATOM      9  C   UNL     1      -0.272  13.035  20.979  0.00  0.00    +0.000 A 
ATOM     10  C   UNL     1      -0.029  11.970  21.840  0.00  0.00    +0.000 A 
ATOM     11  C   UNL     1       0.433  10.739  21.324  0.00  0.00    +0.000 A 
ENDROOT
BRANCH   3  12
ATOM     12  C   UNL     1       2.053   7.194  19.734  0.00  0.00    +0.000 C 
ATOM     13 CL   UNL     1       1.910   5.730  20.674  0.00  0.00    +0.000 Cl
ATOM     14  C   UNL     1       2.749   7.208  18.579  0.00  0.00    +0.000 C 
BRANCH  14  15
ATOM     15  C   UNL     1       3.447   6.045  18.018  0.00  0.00    +0.000 A 
ATOM     16  C   UNL     1       4.481   6.218  17.094  0.00  0.00    +0.000 A 
ATOM     17  C   UNL     1       5.082   5.110  16.499  0.00  0.00    +0.000 A 
ATOM     18  C   UNL     1       4.647   3.822  16.816  0.00  0.00    +0.000 A 
ATOM     19  C   UNL     1       3.614   3.628  17.743  0.00  0.00    +0.000 A 
ATOM     20  C   UNL     1       3.031   4.749  18.356  0.00  0.00    +0.000 A 
BRANCH  19  21
ATOM     21  C   UNL     1       3.105   2.245  18.068  0.00  0.00    +0.000 C 
ATOM     22  F   UNL     1       4.027   1.262  17.861  0.00  0.00    +0.000 F 
ATOM     23  F   UNL     1       2.715   2.121  19.367  0.00  0.00    +0.000 F 
ATOM     24  F   UNL     1       2.021   1.900  17.319  0.00  0.00    +0.000 F 
ENDBRANCH  19  21
ENDBRANCH  14  15
ENDBRANCH   3  12
BRANCH   1  25
ATOM     25  O   UNL     1       0.575   9.631  23.439  0.00  0.00    +0.000 OA
ATOM     26  H   UNL     1       1.325  10.197  23.704  0.00  0.00    +0.000 HD
ENDBRANCH   1  25
TORSDOF 4
ENDMDL
MODEL 6
REMARK VINA RESULT:      -7.9      1.539      1.698
REMARK  Name = 
REMARK  4 active torsions:
REMARK  status: ('A' for Active; 'I' for Inactive)
REMARK    1  A    between atoms: O_1  and  C_2
REMARK    2  A    between atoms: C_4  and  C_5
REMARK    3  A    between atoms: C_7  and  C_8
REMARK    4  A    between atoms: C_12  and  C_13
REMARK                            x       y       z     vdW  Elec       q    Type
REMARK                         _______ _______ _______ _____ _____    ______ ____
ROOT
ATOM      1  C   UNL     1      -0.287   9.186  22.012  0.00  0.00    +0.000 A 
ATOM      2  N   UNL     1       0.359   8.424  21.130  0.00  0.00    +0.000 NA
ATOM      3  C   UNL     1       0.981   9.082  20.137  0.00  0.00    +0.000 A 
ATOM      4  N   UNL     1       0.950  10.423  19.981  0.00  0.00    +0.000 NA
ATOM      5  C   UNL     1       0.293  11.151  20.895  0.00  0.00    +0.000 A 
ATOM      6  C   UNL     1       0.273  12.537  20.786  0.00  0.00    +0.000 A 
ATOM      7  C   UNL     1      -0.351  13.330  21.750  0.00  0.00    +0.000 A 
ATOM      8 CL   UNL     1      -0.319  15.044  21.593  0.00  0.00    +0.000 Cl
ATOM      9  C   UNL     1      -0.987  12.752  22.842  0.00  0.00    +0.000 A 
ATOM     10  C   UNL     1      -1.005  11.366  22.957  0.00  0.00    +0.000 A 
ATOM     11  C   UNL     1      -0.357  10.571  21.985  0.00  0.00    +0.000 A 
ENDROOT
BRANCH   3  12
ATOM     12  C   UNL     1       1.815   8.293  19.190  0.00  0.00    +0.000 C 
ATOM     13 CL   UNL     1       2.054   8.977  17.602  0.00  0.00    +0.000 Cl
ATOM     14  C   UNL     1       2.337   7.092  19.510  0.00  0.00    +0.000 C 
BRANCH  14  15
ATOM     15  C   UNL     1       3.115   6.255  18.590  0.00  0.00    +0.000 A 
ATOM     16  C   UNL     1       2.588   5.053  18.109  0.00  0.00    +0.000 A 
ATOM     17  C   UNL     1       3.364   4.219  17.305  0.00  0.00    +0.000 A 
ATOM     18  C   UNL     1       4.676   4.576  16.985  0.00  0.00    +0.000 A 
ATOM     19  C   UNL     1       5.220   5.779  17.456  0.00  0.00    +0.000 A 
ATOM     20  C   UNL     1       4.423   6.624  18.244  0.00  0.00    +0.000 A 
BRANCH  19  21
ATOM     21  C   UNL     1       6.648   6.162  17.153  0.00  0.00    +0.000 C 
ATOM     22  F   UNL     1       7.078   5.739  15.929  0.00  0.00    +0.000 F 
ATOM     23  F   UNL     1       6.845   7.508  17.170  0.00  0.00    +0.000 F 
ATOM     24  F   UNL     1       7.528   5.643  18.053  0.00  0.00    +0.000 F 
ENDBRANCH  19  21
ENDBRANCH  14  15
ENDBRANCH   3  12
BRANCH   1  25
ATOM     25  O   UNL     1      -0.881   8.472  23.006  0.00  0.00    +0.000 OA
ATOM     26  H   UNL     1      -1.609   8.049  22.513  0.00  0.00    +0.000 HD
ENDBRANCH   1  25
TORSDOF 4
ENDMDL
MODEL 7
REMARK VINA RESULT:      -7.8      4.598      8.324
REMARK  Name = 
REMARK  4 active torsions:
REMARK  status: ('A' for Active; 'I' for Inactive)
REMARK    1  A    between atoms: O_1  and  C_2
REMARK    2  A    between atoms: C_4  and  C_5
REMARK    3  A    between atoms: C_7  and  C_8
REMARK    4  A    between atoms: C_12  and  C_13
REMARK                            x       y       z     vdW  Elec       q    Type
REMARK                         _______ _______ _______ _____ _____    ______ ____
ROOT
ATOM      1  C   UNL     1       3.058   4.698  18.506  0.00  0.00    +0.000 A 
ATOM      2  N   UNL     1       2.437   5.775  18.987  0.00  0.00    +0.000 NA
ATOM      3  C   UNL     1       2.800   6.949  18.443  0.00  0.00    +0.000 A 
ATOM      4  N   UNL     1       3.753   7.082  17.496  0.00  0.00    +0.000 NA
ATOM      5  C   UNL     1       4.348   5.972  17.036  0.00  0.00    +0.000 A 
ATOM      6  C   UNL     1       5.307   6.069  16.034  0.00  0.00    +0.000 A 
ATOM      7  C   UNL     1       5.904   4.930  15.491  0.00  0.00    +0.000 A 
ATOM      8 CL   UNL     1       7.059   5.098  14.225  0.00  0.00    +0.000 Cl
ATOM      9  C   UNL     1       5.567   3.663  15.952  0.00  0.00    +0.000 A 
ATOM     10  C   UNL     1       4.632   3.544  16.974  0.00  0.00    +0.000 A 
ATOM     11  C   UNL     1       4.020   4.699  17.507  0.00  0.00    +0.000 A 
ENDROOT
BRANCH   3  12
ATOM     12  C   UNL     1       2.059   8.171  18.857  0.00  0.00    +0.000 C 
ATOM     13 CL   UNL     1       1.556   8.252  20.527  0.00  0.00    +0.000 Cl
ATOM     14  C   UNL     1       1.749   9.159  17.994  0.00  0.00    +0.000 C 
BRANCH  14  15
ATOM     15  C   UNL     1       0.972  10.353  18.346  0.00  0.00    +0.000 A 
ATOM     16  C   UNL     1      -0.421  10.288  18.439  0.00  0.00    +0.000 A 
ATOM     17  C   UNL     1      -1.162  11.443  18.688  0.00  0.00    +0.000 A 
ATOM     18  C   UNL     1      -0.516  12.672  18.834  0.00  0.00    +0.000 A 
ATOM     19  C   UNL     1       0.880  12.756  18.747  0.00  0.00    +0.000 A 
ATOM     20  C   UNL     1       1.620  11.583  18.521  0.00  0.00    +0.000 A 
BRANCH  19  21
ATOM     21  C   UNL     1       1.592  14.081  18.864  0.00  0.00    +0.000 C 
ATOM     22  F   UNL     1       2.587  14.249  17.946  0.00  0.00    +0.000 F 
ATOM     23  F   UNL     1       0.755  15.142  18.701  0.00  0.00    +0.000 F 
ATOM     24  F   UNL     1       2.179  14.252  20.081  0.00  0.00    +0.000 F 
ENDBRANCH  19  21
ENDBRANCH  14  15
ENDBRANCH   3  12
BRANCH   1  25
ATOM     25  O   UNL     1       2.638   3.537  19.076  0.00  0.00    +0.000 OA
ATOM     26  H   UNL     1       1.759   3.442  18.663  0.00  0.00    +0.000 HD
ENDBRANCH   1  25
TORSDOF 4
ENDMDL
MODEL 8
REMARK VINA RESULT:      -7.8      2.962      3.639
REMARK  Name = 
REMARK  4 active torsions:
REMARK  status: ('A' for Active; 'I' for Inactive)
REMARK    1  A    between atoms: O_1  and  C_2
REMARK    2  A    between atoms: C_4  and  C_5
REMARK    3  A    between atoms: C_7  and  C_8
REMARK    4  A    between atoms: C_12  and  C_13
REMARK                            x       y       z     vdW  Elec       q    Type
REMARK                         _______ _______ _______ _____ _____    ______ ____
ROOT
ATOM      1  C   UNL     1       0.557  11.618  18.922  0.00  0.00    +0.000 A 
ATOM      2  N   UNL     1       1.237  10.490  18.717  0.00  0.00    +0.000 NA
ATOM      3  C   UNL     1       1.081   9.539  19.653  0.00  0.00    +0.000 A 
ATOM      4  N   UNL     1       0.326   9.684  20.763  0.00  0.00    +0.000 NA
ATOM      5  C   UNL     1      -0.346  10.833  20.925  0.00  0.00    +0.000 A 
ATOM      6  C   UNL     1      -1.162  11.002  22.038  0.00  0.00    +0.000 A 
ATOM      7  C   UNL     1      -1.921  12.161  22.210  0.00  0.00    +0.000 A 
ATOM      8 CL   UNL     1      -2.947  12.310  23.584  0.00  0.00    +0.000 Cl
ATOM      9  C   UNL     1      -1.867  13.190  21.277  0.00  0.00    +0.000 A 
ATOM     10  C   UNL     1      -1.035  13.055  20.171  0.00  0.00    +0.000 A 
ATOM     11  C   UNL     1      -0.283  11.873  19.996  0.00  0.00    +0.000 A 
ENDROOT
BRANCH   3  12
ATOM     12  C   UNL     1       1.723   8.217  19.419  0.00  0.00    +0.000 C 
ATOM     13 CL   UNL     1       1.822   7.142  20.791  0.00  0.00    +0.000 Cl
ATOM     14  C   UNL     1       2.241   7.863  18.226  0.00  0.00    +0.000 C 
BRANCH  14  15
ATOM     15  C   UNL     1       2.933   6.595  17.967  0.00  0.00    +0.000 A 
ATOM     16  C   UNL     1       4.197   6.587  17.373  0.00  0.00    +0.000 A 
ATOM     17  C   UNL     1       4.813   5.379  17.048  0.00  0.00    +0.000 A 
ATOM     18  C   UNL     1       4.163   4.170  17.306  0.00  0.00    +0.000 A 
ATOM     19  C   UNL     1       2.896   4.158  17.905  0.00  0.00    +0.000 A 
ATOM     20  C   UNL     1       2.295   5.379  18.250  0.00  0.00    +0.000 A 
BRANCH  19  21
ATOM     21  C   UNL     1       2.163   2.863  18.155  0.00  0.00    +0.000 C 
ATOM     22  F   UNL     1       2.390   1.915  17.201  0.00  0.00    +0.000 F 
ATOM     23  F   UNL     1       2.505   2.286  19.340  0.00  0.00    +0.000 F 
ATOM     24  F   UNL     1       0.812   3.029  18.197  0.00  0.00    +0.000 F 
ENDBRANCH  19  21
ENDBRANCH  14  15
ENDBRANCH   3  12
BRANCH   1  25
ATOM     25  O   UNL     1       0.733  12.538  17.936  0.00  0.00    +0.000 OA
ATOM     26  H   UNL     1       0.080  12.228  17.281  0.00  0.00    +0.000 HD
ENDBRANCH   1  25
TORSDOF 4
ENDMDL
MODEL 9
REMARK VINA RESULT:      -7.8      1.921      2.422
REMARK  Name = 
REMARK  4 active torsions:
REMARK  status: ('A' for Active; 'I' for Inactive)
REMARK    1  A    between atoms: O_1  and  C_2
REMARK    2  A    between atoms: C_4  and  C_5
REMARK    3  A    between atoms: C_7  and  C_8
REMARK    4  A    between atoms: C_12  and  C_13
REMARK                            x       y       z     vdW  Elec       q    Type
REMARK                         _______ _______ _______ _____ _____    ______ ____
ROOT
ATOM      1  C   UNL     1       0.929  11.355  18.840  0.00  0.00    +0.000 A 
ATOM      2  N   UNL     1       1.606  10.234  18.594  0.00  0.00    +0.000 NA
ATOM      3  C   UNL     1       1.443   9.247  19.491  0.00  0.00    +0.000 A 
ATOM      4  N   UNL     1       0.683   9.350  20.602  0.00  0.00    +0.000 NA
ATOM      5  C   UNL     1       0.014  10.494  20.806  0.00  0.00    +0.000 A 
ATOM      6  C   UNL     1      -0.808  10.621  21.921  0.00  0.00    +0.000 A 
ATOM      7  C   UNL     1      -1.564  11.775  22.135  0.00  0.00    +0.000 A 
ATOM      8 CL   UNL     1      -2.596  11.872  23.509  0.00  0.00    +0.000 Cl
ATOM      9  C   UNL     1      -1.503  12.840  21.244  0.00  0.00    +0.000 A 
ATOM     10  C   UNL     1      -0.665  12.746  20.138  0.00  0.00    +0.000 A 
ATOM     11  C   UNL     1       0.085  11.570  19.919  0.00  0.00    +0.000 A 
ENDROOT
BRANCH   3  12
ATOM     12  C   UNL     1       2.082   7.933  19.208  0.00  0.00    +0.000 C 
ATOM     13 CL   UNL     1       1.941   6.712  20.448  0.00  0.00    +0.000 Cl
ATOM     14  C   UNL     1       2.771   7.690  18.075  0.00  0.00    +0.000 C 
BRANCH  14  15
ATOM     15  C   UNL     1       3.464   6.431  17.781  0.00  0.00    +0.000 A 
ATOM     16  C   UNL     1       2.755   5.229  17.728  0.00  0.00    +0.000 A 
ATOM     17  C   UNL     1       3.430   4.023  17.534  0.00  0.00    +0.000 A 
ATOM     18  C   UNL     1       4.820   4.012  17.403  0.00  0.00    +0.000 A 
ATOM     19  C   UNL     1       5.548   5.209  17.450  0.00  0.00    +0.000 A 
ATOM     20  C   UNL     1       4.857   6.420  17.620  0.00  0.00    +0.000 A 
BRANCH  19  21
ATOM     21  C   UNL     1       7.054   5.211  17.349  0.00  0.00    +0.000 C 
ATOM     22  F   UNL     1       7.566   6.378  16.862  0.00  0.00    +0.000 F 
ATOM     23  F   UNL     1       7.660   5.014  18.552  0.00  0.00    +0.000 F 
ATOM     24  F   UNL     1       7.522   4.230  16.529  0.00  0.00    +0.000 F 
ENDBRANCH  19  21
ENDBRANCH  14  15
ENDBRANCH   3  12
BRANCH   1  25
ATOM     25  O   UNL     1       1.113  12.313  17.892  0.00  0.00    +0.000 OA
ATOM     26  H   UNL     1       1.067  13.119  18.439  0.00  0.00    +0.000 HD
ENDBRANCH   1  25
TORSDOF 4
ENDMDL
