MODEL 1
REMARK VINA RESULT:      -9.1      0.000      0.000
REMARK  Name = 
REMARK  6 active torsions:
REMARK  status: ('A' for Active; 'I' for Inactive)
REMARK    1  A    between atoms: C_11  and  O_12
REMARK    2  A    between atoms: O_12  and  C_13
REMARK    3  A    between atoms: C_13  and  C_14
REMARK    4  A    between atoms: C_14  and  C_17
REMARK    5  A    between atoms: N_15  and  O_16
REMARK    6  A    between atoms: C_20  and  C_21
REMARK                            x       y       z     vdW  Elec       q    Type
REMARK                         _______ _______ _______ _____ _____    ______ ____
ROOT
ATOM      1  C   UNL     1       2.964   5.644  19.112  0.00  0.00    +0.000 C 
ATOM      2  N   UNL     1       2.950   5.049  20.274  0.00  0.00    +0.000 NA
ENDROOT
BRANCH   1   3
ATOM      3  C   UNL     1       2.444   7.043  19.029  0.00  0.00    +0.000 A 
ATOM      4  C   UNL     1       1.792   7.626  20.113  0.00  0.00    +0.000 A 
ATOM      5  C   UNL     1       1.274   8.920  20.008  0.00  0.00    +0.000 A 
ATOM      6  C   UNL     1       1.406   9.681  18.831  0.00  0.00    +0.000 A 
ATOM      7  C   UNL     1       2.086   9.081  17.756  0.00  0.00    +0.000 A 
ATOM      8  C   UNL     1       2.599   7.778  17.850  0.00  0.00    +0.000 A 
BRANCH   6   9
ATOM      9  C   UNL     1       0.837  11.049  18.749  0.00  0.00    +0.000 A 
ATOM     10  C   UNL     1       1.671  12.182  18.687  0.00  0.00    +0.000 A 
ATOM     11  C   UNL     1       1.150  13.479  18.673  0.00  0.00    +0.000 A 
ATOM     12  C   UNL     1      -0.225  13.675  18.699  0.00  0.00    +0.000 A 
ATOM     13  C   UNL     1      -1.076  12.575  18.734  0.00  0.00    +0.000 A 
ATOM     14  C   UNL     1      -0.551  11.277  18.762  0.00  0.00    +0.000 A 
ENDBRANCH   6   9
ENDBRANCH   1   3
BRANCH   2  15
ATOM     15  O   UNL     1       3.462   3.751  20.198  0.00  0.00    +0.000 OA
ATOM     16  H   UNL     1       2.652   3.208  20.160  0.00  0.00    +0.000 HD
ENDBRANCH   2  15
BRANCH   1  17
ATOM     17  C   UNL     1       3.499   5.017  17.818  0.00  0.00    +0.000 C 
BRANCH  17  18
ATOM     18  O   UNL     1       4.915   4.885  17.907  0.00  0.00    +0.000 OA
BRANCH  18  29
ATOM     19  O   UNL     1       7.392   6.458  17.494  0.00  0.00    +0.000 OA
ATOM     20  C   UNL     1       6.920   5.781  16.587  0.00  0.00    +0.000 A 
ATOM     21  O   UNL     1       7.545   5.765  15.340  0.00  0.00    +0.000 OA
ATOM     22  C   UNL     1       7.056   5.007  14.265  0.00  0.00    +0.000 A 
ATOM     23  C   UNL     1       7.773   5.042  13.071  0.00  0.00    +0.000 A 
ATOM     24  C   UNL     1       7.324   4.289  11.988  0.00  0.00    +0.000 A 
ATOM     25  C   UNL     1       6.166   3.517  12.112  0.00  0.00    +0.000 A 
ATOM     26  C   UNL     1       5.455   3.497  13.316  0.00  0.00    +0.000 A 
ATOM     27  C   UNL     1       5.902   4.248  14.407  0.00  0.00    +0.000 A 
ATOM     28  C   UNL     1       5.211   4.260  15.684  0.00  0.00    +0.000 A 
ATOM     29  C   UNL     1       5.666   4.962  16.733  0.00  0.00    +0.000 A 
ENDBRANCH  18  29
ENDBRANCH  17  18
ENDBRANCH   1  17
TORSDOF 6
ENDMDL
MODEL 2
REMARK VINA RESULT:      -9.0      0.235      1.302
REMARK  Name = 
REMARK  6 active torsions:
REMARK  status: ('A' for Active; 'I' for Inactive)
REMARK    1  A    between atoms: C_11  and  O_12
REMARK    2  A    between atoms: O_12  and  C_13
REMARK    3  A    between atoms: C_13  and  C_14
REMARK    4  A    between atoms: C_14  and  C_17
REMARK    5  A    between atoms: N_15  and  O_16
REMARK    6  A    between atoms: C_20  and  C_21
REMARK                            x       y       z     vdW  Elec       q    Type
REMARK                         _______ _______ _______ _____ _____    ______ ____
ROOT
ATOM      1  C   UNL     1       2.980   5.443  19.123  0.00  0.00    +0.000 C 
ATOM      2  N   UNL     1       2.919   4.826  20.271  0.00  0.00    +0.000 NA
ENDROOT
BRANCH   1   3
ATOM      3  C   UNL     1       2.401   6.817  19.027  0.00  0.00    +0.000 A 
ATOM      4  C   UNL     1       2.387   7.501  17.813  0.00  0.00    +0.000 A 
ATOM      5  C   UNL     1       1.880   8.801  17.745  0.00  0.00    +0.000 A 
ATOM      6  C   UNL     1       1.352   9.454  18.875  0.00  0.00    +0.000 A 
ATOM      7  C   UNL     1       1.358   8.738  20.086  0.00  0.00    +0.000 A 
ATOM      8  C   UNL     1       1.875   7.436  20.164  0.00  0.00    +0.000 A 
BRANCH   6   9
ATOM      9  C   UNL     1       0.831  10.839  18.771  0.00  0.00    +0.000 A 
ATOM     10  C   UNL     1      -0.551  11.089  18.658  0.00  0.00    +0.000 A 
ATOM     11  C   UNL     1      -1.053  12.383  18.496  0.00  0.00    +0.000 A 
ATOM     12  C   UNL     1      -0.184  13.466  18.465  0.00  0.00    +0.000 A 
ATOM     13  C   UNL     1       1.185  13.254  18.600  0.00  0.00    +0.000 A 
ATOM     14  C   UNL     1       1.686  11.955  18.747  0.00  0.00    +0.000 A 
ENDBRANCH   6   9
ENDBRANCH   1   3
BRANCH   2  15
ATOM     15  O   UNL     1       3.496   3.555  20.210  0.00  0.00    +0.000 OA
ATOM     16  H   UNL     1       3.633   3.342  21.152  0.00  0.00    +0.000 HD
ENDBRANCH   2  15
BRANCH   1  17
ATOM     17  C   UNL     1       3.629   4.865  17.857  0.00  0.00    +0.000 C 
BRANCH  17  18
ATOM     18  O   UNL     1       5.032   5.113  17.889  0.00  0.00    +0.000 OA
BRANCH  18  29
ATOM     19  O   UNL     1       7.633   6.420  17.335  0.00  0.00    +0.000 OA
ATOM     20  C   UNL     1       7.062   5.766  16.469  0.00  0.00    +0.000 A 
ATOM     21  O   UNL     1       7.634   5.651  15.203  0.00  0.00    +0.000 OA
ATOM     22  C   UNL     1       7.033   4.913  14.172  0.00  0.00    +0.000 A 
ATOM     23  C   UNL     1       7.703   4.839  12.953  0.00  0.00    +0.000 A 
ATOM     24  C   UNL     1       7.141   4.103  11.913  0.00  0.00    +0.000 A 
ATOM     25  C   UNL     1       5.919   3.453  12.104  0.00  0.00    +0.000 A 
ATOM     26  C   UNL     1       5.256   3.540  13.332  0.00  0.00    +0.000 A 
ATOM     27  C   UNL     1       5.817   4.276  14.380  0.00  0.00    +0.000 A 
ATOM     28  C   UNL     1       5.179   4.396  15.679  0.00  0.00    +0.000 A 
ATOM     29  C   UNL     1       5.741   5.080  16.687  0.00  0.00    +0.000 A 
ENDBRANCH  18  29
ENDBRANCH  17  18
ENDBRANCH   1  17
TORSDOF 6
ENDMDL
MODEL 3
REMARK VINA RESULT:      -9.0      3.630      7.323
REMARK  Name = 
REMARK  6 active torsions:
REMARK  status: ('A' for Active; 'I' for Inactive)
REMARK    1  A    between atoms: C_11  and  O_12
REMARK    2  A    between atoms: O_12  and  C_13
REMARK    3  A    between atoms: C_13  and  C_14
REMARK    4  A    between atoms: C_14  and  C_17
REMARK    5  A    between atoms: N_15  and  O_16
REMARK    6  A    between atoms: C_20  and  C_21
REMARK                            x       y       z     vdW  Elec       q    Type
REMARK                         _______ _______ _______ _____ _____    ______ ____
ROOT
ATOM      1  C   UNL     1       6.340   4.939  17.418  0.00  0.00    +0.000 C 
ATOM      2  N   UNL     1       6.621   4.393  16.266  0.00  0.00    +0.000 NA
ENDROOT
BRANCH   1   3
ATOM      3  C   UNL     1       6.977   6.249  17.752  0.00  0.00    +0.000 A 
ATOM      4  C   UNL     1       6.641   7.405  17.050  0.00  0.00    +0.000 A 
ATOM      5  C   UNL     1       7.274   8.616  17.345  0.00  0.00    +0.000 A 
ATOM      6  C   UNL     1       8.244   8.720  18.360  0.00  0.00    +0.000 A 
ATOM      7  C   UNL     1       8.553   7.546  19.070  0.00  0.00    +0.000 A 
ATOM      8  C   UNL     1       7.929   6.324  18.773  0.00  0.00    +0.000 A 
BRANCH   6   9
ATOM      9  C   UNL     1       8.904  10.018  18.642  0.00  0.00    +0.000 A 
ATOM     10  C   UNL     1       8.852  11.077  17.714  0.00  0.00    +0.000 A 
ATOM     11  C   UNL     1       9.521  12.284  17.938  0.00  0.00    +0.000 A 
ATOM     12  C   UNL     1      10.244  12.470  19.109  0.00  0.00    +0.000 A 
ATOM     13  C   UNL     1      10.293  11.452  20.057  0.00  0.00    +0.000 A 
ATOM     14  C   UNL     1       9.633  10.239  19.823  0.00  0.00    +0.000 A 
ENDBRANCH   6   9
ENDBRANCH   1   3
BRANCH   2  15
ATOM     15  O   UNL     1       5.957   3.175  16.094  0.00  0.00    +0.000 OA
ATOM     16  H   UNL     1       5.517   3.297  15.231  0.00  0.00    +0.000 HD
ENDBRANCH   2  15
BRANCH   1  17
ATOM     17  C   UNL     1       5.379   4.343  18.455  0.00  0.00    +0.000 C 
BRANCH  17  18
ATOM     18  O   UNL     1       4.035   4.555  18.031  0.00  0.00    +0.000 OA
BRANCH  18  29
ATOM     19  O   UNL     1       2.789   4.432  20.717  0.00  0.00    +0.000 OA
ATOM     20  C   UNL     1       2.685   5.437  20.022  0.00  0.00    +0.000 A 
ATOM     21  O   UNL     1       1.956   6.528  20.493  0.00  0.00    +0.000 OA
ATOM     22  C   UNL     1       1.805   7.707  19.747  0.00  0.00    +0.000 A 
ATOM     23  C   UNL     1       1.080   8.748  20.323  0.00  0.00    +0.000 A 
ATOM     24  C   UNL     1       0.923   9.938  19.617  0.00  0.00    +0.000 A 
ATOM     25  C   UNL     1       1.489  10.072  18.347  0.00  0.00    +0.000 A 
ATOM     26  C   UNL     1       2.211   9.016  17.780  0.00  0.00    +0.000 A 
ATOM     27  C   UNL     1       2.373   7.820  18.486  0.00  0.00    +0.000 A 
ATOM     28  C   UNL     1       3.118   6.693  17.953  0.00  0.00    +0.000 A 
ATOM     29  C   UNL     1       3.293   5.561  18.651  0.00  0.00    +0.000 A 
ENDBRANCH  18  29
ENDBRANCH  17  18
ENDBRANCH   1  17
TORSDOF 6
ENDMDL
MODEL 4
REMARK VINA RESULT:      -8.9      0.654      1.122
REMARK  Name = 
REMARK  6 active torsions:
REMARK  status: ('A' for Active; 'I' for Inactive)
REMARK    1  A    between atoms: C_11  and  O_12
REMARK    2  A    between atoms: O_12  and  C_13
REMARK    3  A    between atoms: C_13  and  C_14
REMARK    4  A    between atoms: C_14  and  C_17
REMARK    5  A    between atoms: N_15  and  O_16
REMARK    6  A    between atoms: C_20  and  C_21
REMARK                            x       y       z     vdW  Elec       q    Type
REMARK                         _______ _______ _______ _____ _____    ______ ____
ROOT
ATOM      1  C   UNL     1       3.458   5.432  19.528  0.00  0.00    +0.000 C 
ATOM      2  N   UNL     1       2.810   4.434  20.064  0.00  0.00    +0.000 NA
ENDROOT
BRANCH   1   3
ATOM      3  C   UNL     1       2.722   6.713  19.303  0.00  0.00    +0.000 A 
ATOM      4  C   UNL     1       2.711   7.317  18.047  0.00  0.00    +0.000 A 
ATOM      5  C   UNL     1       2.053   8.536  17.860  0.00  0.00    +0.000 A 
ATOM      6  C   UNL     1       1.370   9.182  18.909  0.00  0.00    +0.000 A 
ATOM      7  C   UNL     1       1.377   8.545  20.163  0.00  0.00    +0.000 A 
ATOM      8  C   UNL     1       2.044   7.325  20.361  0.00  0.00    +0.000 A 
BRANCH   6   9
ATOM      9  C   UNL     1       0.690  10.480  18.679  0.00  0.00    +0.000 A 
ATOM     10  C   UNL     1       1.385  11.698  18.808  0.00  0.00    +0.000 A 
ATOM     11  C   UNL     1       0.743  12.931  18.657  0.00  0.00    +0.000 A 
ATOM     12  C   UNL     1      -0.611  12.975  18.350  0.00  0.00    +0.000 A 
ATOM     13  C   UNL     1      -1.320  11.789  18.190  0.00  0.00    +0.000 A 
ATOM     14  C   UNL     1      -0.677  10.555  18.357  0.00  0.00    +0.000 A 
ENDBRANCH   6   9
ENDBRANCH   1   3
BRANCH   2  15
ATOM     15  O   UNL     1       3.623   3.307  20.211  0.00  0.00    +0.000 OA
ATOM     16  H   UNL     1       3.958   3.408  21.122  0.00  0.00    +0.000 HD
ENDBRANCH   2  15
BRANCH   1  17
ATOM     17  C   UNL     1       4.939   5.395  19.126  0.00  0.00    +0.000 C 
BRANCH  17  18
ATOM     18  O   UNL     1       5.159   4.311  18.229  0.00  0.00    +0.000 OA
BRANCH  18  29
ATOM     19  O   UNL     1       7.540   6.044  17.894  0.00  0.00    +0.000 OA
ATOM     20  C   UNL     1       7.054   5.453  16.935  0.00  0.00    +0.000 A 
ATOM     21  O   UNL     1       7.615   5.612  15.669  0.00  0.00    +0.000 OA
ATOM     22  C   UNL     1       7.108   4.960  14.535  0.00  0.00    +0.000 A 
ATOM     23  C   UNL     1       7.762   5.168  13.323  0.00  0.00    +0.000 A 
ATOM     24  C   UNL     1       7.293   4.524  12.180  0.00  0.00    +0.000 A 
ATOM     25  C   UNL     1       6.179   3.685  12.263  0.00  0.00    +0.000 A 
ATOM     26  C   UNL     1       5.531   3.490  13.487  0.00  0.00    +0.000 A 
ATOM     27  C   UNL     1       5.998   4.132  14.638  0.00  0.00    +0.000 A 
ATOM     28  C   UNL     1       5.371   3.963  15.937  0.00  0.00    +0.000 A 
ATOM     29  C   UNL     1       5.846   4.561  17.039  0.00  0.00    +0.000 A 
ENDBRANCH  18  29
ENDBRANCH  17  18
ENDBRANCH   1  17
TORSDOF 6
ENDMDL
MODEL 5
REMARK VINA RESULT:      -8.9      3.669      7.352
REMARK  Name = 
REMARK  6 active torsions:
REMARK  status: ('A' for Active; 'I' for Inactive)
REMARK    1  A    between atoms: C_11  and  O_12
REMARK    2  A    between atoms: O_12  and  C_13
REMARK    3  A    between atoms: C_13  and  C_14
REMARK    4  A    between atoms: C_14  and  C_17
REMARK    5  A    between atoms: N_15  and  O_16
REMARK    6  A    between atoms: C_20  and  C_21
REMARK                            x       y       z     vdW  Elec       q    Type
REMARK                         _______ _______ _______ _____ _____    ______ ____
ROOT
ATOM      1  C   UNL     1       6.322   5.002  17.418  0.00  0.00    +0.000 C 
ATOM      2  N   UNL     1       6.546   4.458  16.253  0.00  0.00    +0.000 NA
ENDROOT
BRANCH   1   3
ATOM      3  C   UNL     1       7.037   6.271  17.754  0.00  0.00    +0.000 A 
ATOM      4  C   UNL     1       7.948   6.318  18.807  0.00  0.00    +0.000 A 
ATOM      5  C   UNL     1       8.579   7.521  19.137  0.00  0.00    +0.000 A 
ATOM      6  C   UNL     1       8.339   8.708  18.419  0.00  0.00    +0.000 A 
ATOM      7  C   UNL     1       7.431   8.634  17.347  0.00  0.00    +0.000 A 
ATOM      8  C   UNL     1       6.786   7.432  17.016  0.00  0.00    +0.000 A 
BRANCH   6   9
ATOM      9  C   UNL     1       9.018   9.971  18.801  0.00  0.00    +0.000 A 
ATOM     10  C   UNL     1       9.278  10.277  20.151  0.00  0.00    +0.000 A 
ATOM     11  C   UNL     1       9.860  11.490  20.532  0.00  0.00    +0.000 A 
ATOM     12  C   UNL     1      10.217  12.421  19.565  0.00  0.00    +0.000 A 
ATOM     13  C   UNL     1       9.997  12.137  18.221  0.00  0.00    +0.000 A 
ATOM     14  C   UNL     1       9.400  10.927  17.844  0.00  0.00    +0.000 A 
ENDBRANCH   6   9
ENDBRANCH   1   3
BRANCH   2  15
ATOM     15  O   UNL     1       5.814   3.280  16.081  0.00  0.00    +0.000 OA
ATOM     16  H   UNL     1       4.972   3.491  16.526  0.00  0.00    +0.000 HD
ENDBRANCH   2  15
BRANCH   1  17
ATOM     17  C   UNL     1       5.353   4.444  18.469  0.00  0.00    +0.000 C 
BRANCH  17  18
ATOM     18  O   UNL     1       4.013   4.663  18.041  0.00  0.00    +0.000 OA
BRANCH  18  29
ATOM     19  O   UNL     1       2.756   4.515  20.721  0.00  0.00    +0.000 OA
ATOM     20  C   UNL     1       2.656   5.527  20.036  0.00  0.00    +0.000 A 
ATOM     21  O   UNL     1       1.927   6.615  20.515  0.00  0.00    +0.000 OA
ATOM     22  C   UNL     1       1.780   7.802  19.781  0.00  0.00    +0.000 A 
ATOM     23  C   UNL     1       1.054   8.838  20.365  0.00  0.00    +0.000 A 
ATOM     24  C   UNL     1       0.902  10.035  19.669  0.00  0.00    +0.000 A 
ATOM     25  C   UNL     1       1.474  10.181  18.403  0.00  0.00    +0.000 A 
ATOM     26  C   UNL     1       2.196   9.129  17.829  0.00  0.00    +0.000 A 
ATOM     27  C   UNL     1       2.354   7.926  18.523  0.00  0.00    +0.000 A 
ATOM     28  C   UNL     1       3.099   6.804  17.981  0.00  0.00    +0.000 A 
ATOM     29  C   UNL     1       3.269   5.664  18.669  0.00  0.00    +0.000 A 
ENDBRANCH  18  29
ENDBRANCH  17  18
ENDBRANCH   1  17
TORSDOF 6
ENDMDL
MODEL 6
REMARK VINA RESULT:      -8.9      1.376      2.090
REMARK  Name = 
REMARK  6 active torsions:
REMARK  status: ('A' for Active; 'I' for Inactive)
REMARK    1  A    between atoms: C_11  and  O_12
REMARK    2  A    between atoms: O_12  and  C_13
REMARK    3  A    between atoms: C_13  and  C_14
REMARK    4  A    between atoms: C_14  and  C_17
REMARK    5  A    between atoms: N_15  and  O_16
REMARK    6  A    between atoms: C_20  and  C_21
REMARK                            x       y       z     vdW  Elec       q    Type
REMARK                         _______ _______ _______ _____ _____    ______ ____
ROOT
ATOM      1  C   UNL     1       3.058   3.818  18.398  0.00  0.00    +0.000 C 
ATOM      2  N   UNL     1       2.154   2.956  18.020  0.00  0.00    +0.000 NA
ENDROOT
BRANCH   1   3
ATOM      3  C   UNL     1       2.601   5.158  18.879  0.00  0.00    +0.000 A 
ATOM      4  C   UNL     1       2.208   5.343  20.203  0.00  0.00    +0.000 A 
ATOM      5  C   UNL     1       1.744   6.591  20.629  0.00  0.00    +0.000 A 
ATOM      6  C   UNL     1       1.674   7.696  19.760  0.00  0.00    +0.000 A 
ATOM      7  C   UNL     1       2.095   7.492  18.433  0.00  0.00    +0.000 A 
ATOM      8  C   UNL     1       2.553   6.239  17.995  0.00  0.00    +0.000 A 
BRANCH   6   9
ATOM      9  C   UNL     1       1.167   9.004  20.242  0.00  0.00    +0.000 A 
ATOM     10  C   UNL     1       0.718   9.166  21.567  0.00  0.00    +0.000 A 
ATOM     11  C   UNL     1       0.179  10.375  22.018  0.00  0.00    +0.000 A 
ATOM     12  C   UNL     1       0.096  11.462  21.157  0.00  0.00    +0.000 A 
ATOM     13  C   UNL     1       0.555  11.341  19.849  0.00  0.00    +0.000 A 
ATOM     14  C   UNL     1       1.081  10.124  19.396  0.00  0.00    +0.000 A 
ENDBRANCH   6   9
ENDBRANCH   1   3
BRANCH   2  15
ATOM     15  O   UNL     1       2.728   1.755  17.596  0.00  0.00    +0.000 OA
ATOM     16  H   UNL     1       2.357   1.112  18.229  0.00  0.00    +0.000 HD
ENDBRANCH   2  15
BRANCH   1  17
ATOM     17  C   UNL     1       4.569   3.549  18.408  0.00  0.00    +0.000 C 
BRANCH  17  18
ATOM     18  O   UNL     1       5.268   4.760  18.134  0.00  0.00    +0.000 OA
BRANCH  18  29
ATOM     19  O   UNL     1       7.695   6.373  17.594  0.00  0.00    +0.000 OA
ATOM     20  C   UNL     1       7.162   5.722  16.702  0.00  0.00    +0.000 A 
ATOM     21  O   UNL     1       7.693   5.756  15.413  0.00  0.00    +0.000 OA
ATOM     22  C   UNL     1       7.132   5.030  14.351  0.00  0.00    +0.000 A 
ATOM     23  C   UNL     1       7.758   5.112  13.109  0.00  0.00    +0.000 A 
ATOM     24  C   UNL     1       7.236   4.393  12.037  0.00  0.00    +0.000 A 
ATOM     25  C   UNL     1       6.097   3.604  12.219  0.00  0.00    +0.000 A 
ATOM     26  C   UNL     1       5.477   3.536  13.471  0.00  0.00    +0.000 A 
ATOM     27  C   UNL     1       5.998   4.254  14.551  0.00  0.00    +0.000 A 
ATOM     28  C   UNL     1       5.403   4.215  15.875  0.00  0.00    +0.000 A 
ATOM     29  C   UNL     1       5.929   4.886  16.911  0.00  0.00    +0.000 A 
ENDBRANCH  18  29
ENDBRANCH  17  18
ENDBRANCH   1  17
TORSDOF 6
ENDMDL
MODEL 7
REMARK VINA RESULT:      -8.9      1.015      1.763
REMARK  Name = 
REMARK  6 active torsions:
REMARK  status: ('A' for Active; 'I' for Inactive)
REMARK    1  A    between atoms: C_11  and  O_12
REMARK    2  A    between atoms: O_12  and  C_13
REMARK    3  A    between atoms: C_13  and  C_14
REMARK    4  A    between atoms: C_14  and  C_17
REMARK    5  A    between atoms: N_15  and  O_16
REMARK    6  A    between atoms: C_20  and  C_21
REMARK                            x       y       z     vdW  Elec       q    Type
REMARK                         _______ _______ _______ _____ _____    ______ ____
ROOT
ATOM      1  C   UNL     1       3.285   4.245  19.204  0.00  0.00    +0.000 C 
ATOM      2  N   UNL     1       3.254   3.457  20.245  0.00  0.00    +0.000 NA
ENDROOT
BRANCH   1   3
ATOM      3  C   UNL     1       2.690   5.610  19.333  0.00  0.00    +0.000 A 
ATOM      4  C   UNL     1       2.813   6.540  18.303  0.00  0.00    +0.000 A 
ATOM      5  C   UNL     1       2.288   7.827  18.452  0.00  0.00    +0.000 A 
ATOM      6  C   UNL     1       1.607   8.221  19.619  0.00  0.00    +0.000 A 
ATOM      7  C   UNL     1       1.476   7.261  20.638  0.00  0.00    +0.000 A 
ATOM      8  C   UNL     1       2.010   5.970  20.500  0.00  0.00    +0.000 A 
BRANCH   6   9
ATOM      9  C   UNL     1       1.069   9.598  19.749  0.00  0.00    +0.000 A 
ATOM     10  C   UNL     1       0.339   9.989  20.888  0.00  0.00    +0.000 A 
ATOM     11  C   UNL     1      -0.227  11.262  20.998  0.00  0.00    +0.000 A 
ATOM     12  C   UNL     1      -0.058  12.187  19.975  0.00  0.00    +0.000 A 
ATOM     13  C   UNL     1       0.680  11.840  18.848  0.00  0.00    +0.000 A 
ATOM     14  C   UNL     1       1.234  10.558  18.735  0.00  0.00    +0.000 A 
ENDBRANCH   6   9
ENDBRANCH   1   3
BRANCH   2  15
ATOM     15  O   UNL     1       3.842   2.219  19.977  0.00  0.00    +0.000 OA
ATOM     16  H   UNL     1       3.802   2.174  19.003  0.00  0.00    +0.000 HD
ENDBRANCH   2  15
BRANCH   1  17
ATOM     17  C   UNL     1       3.914   3.878  17.853  0.00  0.00    +0.000 C 
BRANCH  17  18
ATOM     18  O   UNL     1       5.319   4.108  17.906  0.00  0.00    +0.000 OA
BRANCH  18  29
ATOM     19  O   UNL     1       7.447   6.149  17.613  0.00  0.00    +0.000 OA
ATOM     20  C   UNL     1       7.058   5.504  16.645  0.00  0.00    +0.000 A 
ATOM     21  O   UNL     1       7.610   5.747  15.388  0.00  0.00    +0.000 OA
ATOM     22  C   UNL     1       7.210   5.040  14.244  0.00  0.00    +0.000 A 
ATOM     23  C   UNL     1       7.846   5.342  13.042  0.00  0.00    +0.000 A 
ATOM     24  C   UNL     1       7.484   4.648  11.889  0.00  0.00    +0.000 A 
ATOM     25  C   UNL     1       6.493   3.666  11.953  0.00  0.00    +0.000 A 
ATOM     26  C   UNL     1       5.860   3.377  13.167  0.00  0.00    +0.000 A 
ATOM     27  C   UNL     1       6.221   4.069  14.327  0.00  0.00    +0.000 A 
ATOM     28  C   UNL     1       5.606   3.808  15.616  0.00  0.00    +0.000 A 
ATOM     29  C   UNL     1       5.981   4.457  16.728  0.00  0.00    +0.000 A 
ENDBRANCH  18  29
ENDBRANCH  17  18
ENDBRANCH   1  17
TORSDOF 6
ENDMDL
MODEL 8
REMARK VINA RESULT:      -8.8      0.738      1.168
REMARK  Name = 
REMARK  6 active torsions:
REMARK  status: ('A' for Active; 'I' for Inactive)
REMARK    1  A    between atoms: C_11  and  O_12
REMARK    2  A    between atoms: O_12  and  C_13
REMARK    3  A    between atoms: C_13  and  C_14
REMARK    4  A    between atoms: C_14  and  C_17
REMARK    5  A    between atoms: N_15  and  O_16
REMARK    6  A    between atoms: C_20  and  C_21
REMARK                            x       y       z     vdW  Elec       q    Type
REMARK                         _______ _______ _______ _____ _____    ______ ____
ROOT
ATOM      1  C   UNL     1       3.515   5.343  19.015  0.00  0.00    +0.000 C 
ATOM      2  N   UNL     1       2.762   4.278  19.067  0.00  0.00    +0.000 NA
ENDROOT
BRANCH   1   3
ATOM      3  C   UNL     1       2.847   6.678  18.939  0.00  0.00    +0.000 A 
ATOM      4  C   UNL     1       2.076   7.151  19.999  0.00  0.00    +0.000 A 
ATOM      5  C   UNL     1       1.424   8.383  19.899  0.00  0.00    +0.000 A 
ATOM      6  C   UNL     1       1.533   9.191  18.751  0.00  0.00    +0.000 A 
ATOM      7  C   UNL     1       2.333   8.705  17.701  0.00  0.00    +0.000 A 
ATOM      8  C   UNL     1       2.983   7.464  17.791  0.00  0.00    +0.000 A 
BRANCH   6   9
ATOM      9  C   UNL     1       0.820  10.489  18.673  0.00  0.00    +0.000 A 
ATOM     10  C   UNL     1      -0.578  10.543  18.513  0.00  0.00    +0.000 A 
ATOM     11  C   UNL     1      -1.258  11.756  18.375  0.00  0.00    +0.000 A 
ATOM     12  C   UNL     1      -0.554  12.954  18.414  0.00  0.00    +0.000 A 
ATOM     13  C   UNL     1       0.825  12.936  18.597  0.00  0.00    +0.000 A 
ATOM     14  C   UNL     1       1.504  11.717  18.721  0.00  0.00    +0.000 A 
ENDBRANCH   6   9
ENDBRANCH   1   3
BRANCH   2  15
ATOM     15  O   UNL     1       3.522   3.107  19.133  0.00  0.00    +0.000 OA
ATOM     16  H   UNL     1       4.419   3.450  19.305  0.00  0.00    +0.000 HD
ENDBRANCH   2  15
BRANCH   1  17
ATOM     17  C   UNL     1       5.049   5.328  19.049  0.00  0.00    +0.000 C 
BRANCH  17  18
ATOM     18  O   UNL     1       5.530   4.251  18.251  0.00  0.00    +0.000 OA
BRANCH  18  29
ATOM     19  O   UNL     1       7.673   6.229  17.728  0.00  0.00    +0.000 OA
ATOM     20  C   UNL     1       7.197   5.563  16.815  0.00  0.00    +0.000 A 
ATOM     21  O   UNL     1       7.656   5.752  15.511  0.00  0.00    +0.000 OA
ATOM     22  C   UNL     1       7.154   5.018  14.426  0.00  0.00    +0.000 A 
ATOM     23  C   UNL     1       7.703   5.266  13.169  0.00  0.00    +0.000 A 
ATOM     24  C   UNL     1       7.238   4.545  12.072  0.00  0.00    +0.000 A 
ATOM     25  C   UNL     1       6.234   3.589  12.244  0.00  0.00    +0.000 A 
ATOM     26  C   UNL     1       5.690   3.355  13.511  0.00  0.00    +0.000 A 
ATOM     27  C   UNL     1       6.154   4.075  14.616  0.00  0.00    +0.000 A 
ATOM     28  C   UNL     1       5.634   3.870  15.957  0.00  0.00    +0.000 A 
ATOM     29  C   UNL     1       6.107   4.545  17.014  0.00  0.00    +0.000 A 
ENDBRANCH  18  29
ENDBRANCH  17  18
ENDBRANCH   1  17
TORSDOF 6
ENDMDL
MODEL 9
REMARK VINA RESULT:      -8.7      4.707      9.309
REMARK  Name = 
REMARK  6 active torsions:
REMARK  status: ('A' for Active; 'I' for Inactive)
REMARK    1  A    between atoms: C_11  and  O_12
REMARK    2  A    between atoms: O_12  and  C_13
REMARK    3  A    between atoms: C_13  and  C_14
REMARK    4  A    between atoms: C_14  and  C_17
REMARK    5  A    between atoms: N_15  and  O_16
REMARK    6  A    between atoms: C_20  and  C_21
REMARK                            x       y       z     vdW  Elec       q    Type
REMARK                         _______ _______ _______ _____ _____    ______ ____
ROOT
ATOM      1  C   UNL     1       0.452  10.204  21.472  0.00  0.00    +0.000 C 
ATOM      2  N   UNL     1       0.139   9.870  22.694  0.00  0.00    +0.000 NA
ENDROOT
BRANCH   1   3
ATOM      3  C   UNL     1       1.086   9.172  20.597  0.00  0.00    +0.000 A 
ATOM      4  C   UNL     1       1.367   7.898  21.087  0.00  0.00    +0.000 A 
ATOM      5  C   UNL     1       1.998   6.955  20.271  0.00  0.00    +0.000 A 
ATOM      6  C   UNL     1       2.350   7.241  18.938  0.00  0.00    +0.000 A 
ATOM      7  C   UNL     1       2.039   8.526  18.457  0.00  0.00    +0.000 A 
ATOM      8  C   UNL     1       1.415   9.482  19.274  0.00  0.00    +0.000 A 
BRANCH   6   9
ATOM      9  C   UNL     1       3.028   6.221  18.101  0.00  0.00    +0.000 A 
ATOM     10  C   UNL     1       2.556   4.895  18.047  0.00  0.00    +0.000 A 
ATOM     11  C   UNL     1       3.220   3.908  17.313  0.00  0.00    +0.000 A 
ATOM     12  C   UNL     1       4.365   4.228  16.595  0.00  0.00    +0.000 A 
ATOM     13  C   UNL     1       4.842   5.536  16.608  0.00  0.00    +0.000 A 
ATOM     14  C   UNL     1       4.182   6.519  17.356  0.00  0.00    +0.000 A 
ENDBRANCH   6   9
ENDBRANCH   1   3
BRANCH   2  15
ATOM     15  O   UNL     1      -0.442  10.933  23.391  0.00  0.00    +0.000 OA
ATOM     16  H   UNL     1      -1.362  10.629  23.506  0.00  0.00    +0.000 HD
ENDBRANCH   2  15
BRANCH   1  17
ATOM     17  C   UNL     1       0.194  11.585  20.853  0.00  0.00    +0.000 C 
BRANCH  17  18
ATOM     18  O   UNL     1      -1.178  11.931  21.022  0.00  0.00    +0.000 OA
BRANCH  18  29
ATOM     19  O   UNL     1      -3.877  13.120  20.740  0.00  0.00    +0.000 OA
ATOM     20  C   UNL     1      -3.401  12.425  19.849  0.00  0.00    +0.000 A 
ATOM     21  O   UNL     1      -4.146  12.175  18.697  0.00  0.00    +0.000 OA
ATOM     22  C   UNL     1      -3.655  11.392  17.641  0.00  0.00    +0.000 A 
ATOM     23  C   UNL     1      -4.471  11.228  16.524  0.00  0.00    +0.000 A 
ATOM     24  C   UNL     1      -4.009  10.468  15.452  0.00  0.00    +0.000 A 
ATOM     25  C   UNL     1      -2.742   9.882  15.511  0.00  0.00    +0.000 A 
ATOM     26  C   UNL     1      -1.936  10.052  16.642  0.00  0.00    +0.000 A 
ATOM     27  C   UNL     1      -2.394  10.815  17.720  0.00  0.00    +0.000 A 
ATOM     28  C   UNL     1      -1.601  11.034  18.916  0.00  0.00    +0.000 A 
ATOM     29  C   UNL     1      -2.039  11.792  19.932  0.00  0.00    +0.000 A 
ENDBRANCH  18  29
ENDBRANCH  17  18
ENDBRANCH   1  17
TORSDOF 6
ENDMDL
