MODEL 1
REMARK VINA RESULT:      -9.1      0.000      0.000
REMARK  Name = 
REMARK  6 active torsions:
REMARK  status: ('A' for Active; 'I' for Inactive)
REMARK    1  A    between atoms: C_1  and  N_2
REMARK    2  A    between atoms: C_7  and  S_8
REMARK    3  A    between atoms: S_8  and  N_11
REMARK    4  A    between atoms: C_15  and  C_16
REMARK    5  A    between atoms: N_18  and  C_19
REMARK    6  A    between atoms: C_19  and  C_20
REMARK                            x       y       z     vdW  Elec       q    Type
REMARK                         _______ _______ _______ _____ _____    ______ ____
ROOT
ATOM      1  N   UNL     1       0.036  11.701  21.840  0.00  0.00    +0.000 NA
ATOM      2  C   UNL     1      -0.975  11.036  22.707  0.00  0.00    +0.000 C 
ATOM      3  C   UNL     1      -0.430   9.738  23.294  0.00  0.00    +0.000 C 
ATOM      4  C   UNL     1       0.073   8.793  22.211  0.00  0.00    +0.000 C 
ATOM      5  C   UNL     1       1.129   9.475  21.346  0.00  0.00    +0.000 C 
ATOM      6  C   UNL     1       0.651  10.822  20.796  0.00  0.00    +0.000 C 
ENDROOT
BRANCH   5   7
ATOM      7  C   UNL     1       1.544   8.588  20.178  0.00  0.00    +0.000 C 
ATOM      8  O   UNL     1       1.360   8.938  19.008  0.00  0.00    +0.000 OA
ATOM      9  N   UNL     1       2.091   7.372  20.510  0.00  0.00    +0.000 N 
ATOM     10  H   UNL     1       2.450   7.212  21.447  0.00  0.00    +0.000 HD
BRANCH   9  11
ATOM     11  C   UNL     1       2.514   6.450  19.484  0.00  0.00    +0.000 C 
BRANCH  11  12
ATOM     12  C   UNL     1       2.076   5.044  19.775  0.00  0.00    +0.000 A 
ATOM     13  C   UNL     1       2.173   4.512  21.071  0.00  0.00    +0.000 A 
ATOM     14  C   UNL     1       1.733   3.211  21.336  0.00  0.00    +0.000 A 
ATOM     15  C   UNL     1       1.201   2.427  20.313  0.00  0.00    +0.000 A 
ATOM     16  C   UNL     1       1.115   2.941  19.020  0.00  0.00    +0.000 A 
ATOM     17  C   UNL     1       1.556   4.237  18.763  0.00  0.00    +0.000 A 
ATOM     18  F   UNL     1       1.465   4.714  17.513  0.00  0.00    +0.000 F 
ENDBRANCH  11  12
ENDBRANCH   9  11
ENDBRANCH   5   7
BRANCH   1  19
ATOM     19  S   UNL     1      -0.489  13.215  21.180  0.00  0.00    +0.000 S 
ATOM     20  O   UNL     1       0.550  13.684  20.282  0.00  0.00    +0.000 OA
ATOM     21  O   UNL     1      -0.959  14.041  22.269  0.00  0.00    +0.000 OA
BRANCH  19  28
ATOM     22  C   UNL     1      -6.452  11.461  18.026  0.00  0.00    +0.000 C 
ATOM     23  N   UNL     1      -5.018  11.468  17.834  0.00  0.00    +0.000 N 
ATOM     24  C   UNL     1      -4.359  10.969  16.743  0.00  0.00    +0.000 A 
ATOM     25  C   UNL     1      -3.008  11.127  16.960  0.00  0.00    +0.000 A 
ATOM     26  C   UNL     1      -2.839  11.759  18.223  0.00  0.00    +0.000 A 
ATOM     27  C   UNL     1      -1.716  12.163  18.972  0.00  0.00    +0.000 A 
ATOM     28  C   UNL     1      -1.919  12.787  20.212  0.00  0.00    +0.000 A 
ATOM     29  C   UNL     1      -3.204  12.998  20.718  0.00  0.00    +0.000 A 
ATOM     30  C   UNL     1      -4.325  12.593  19.989  0.00  0.00    +0.000 A 
ATOM     31  C   UNL     1      -4.116  11.974  18.747  0.00  0.00    +0.000 A 
ENDBRANCH  19  28
ENDBRANCH   1  19
TORSDOF 5
ENDMDL
MODEL 2
REMARK VINA RESULT:      -8.7      5.370      9.982
REMARK  Name = 
REMARK  6 active torsions:
REMARK  status: ('A' for Active; 'I' for Inactive)
REMARK    1  A    between atoms: C_1  and  N_2
REMARK    2  A    between atoms: C_7  and  S_8
REMARK    3  A    between atoms: S_8  and  N_11
REMARK    4  A    between atoms: C_15  and  C_16
REMARK    5  A    between atoms: N_18  and  C_19
REMARK    6  A    between atoms: C_19  and  C_20
REMARK                            x       y       z     vdW  Elec       q    Type
REMARK                         _______ _______ _______ _____ _____    ______ ____
ROOT
ATOM      1  N   UNL     1       4.547   5.667  18.308  0.00  0.00    +0.000 NA
ATOM      2  C   UNL     1       4.322   5.096  19.665  0.00  0.00    +0.000 C 
ATOM      3  C   UNL     1       2.841   5.101  20.027  0.00  0.00    +0.000 C 
ATOM      4  C   UNL     1       2.232   6.492  19.908  0.00  0.00    +0.000 C 
ATOM      5  C   UNL     1       2.443   7.057  18.506  0.00  0.00    +0.000 C 
ATOM      6  C   UNL     1       3.909   7.001  18.069  0.00  0.00    +0.000 C 
ENDROOT
BRANCH   5   7
ATOM      7  C   UNL     1       1.957   8.498  18.412  0.00  0.00    +0.000 C 
ATOM      8  O   UNL     1       2.204   9.196  17.424  0.00  0.00    +0.000 OA
ATOM      9  N   UNL     1       1.271   8.975  19.503  0.00  0.00    +0.000 N 
ATOM     10  H   UNL     1       0.876   8.330  20.181  0.00  0.00    +0.000 HD
BRANCH   9  11
ATOM     11  C   UNL     1       0.772  10.329  19.523  0.00  0.00    +0.000 C 
BRANCH  11  12
ATOM     12  C   UNL     1      -0.010  10.622  20.771  0.00  0.00    +0.000 A 
ATOM     13  C   UNL     1       0.105   9.800  21.904  0.00  0.00    +0.000 A 
ATOM     14  C   UNL     1      -0.604  10.101  23.071  0.00  0.00    +0.000 A 
ATOM     15  C   UNL     1      -1.440  11.217  23.117  0.00  0.00    +0.000 A 
ATOM     16  C   UNL     1      -1.573  12.030  21.993  0.00  0.00    +0.000 A 
ATOM     17  C   UNL     1      -0.863  11.724  20.833  0.00  0.00    +0.000 A 
ATOM     18  F   UNL     1      -1.004  12.517  19.762  0.00  0.00    +0.000 F 
ENDBRANCH  11  12
ENDBRANCH   9  11
ENDBRANCH   5   7
BRANCH   1  19
ATOM     19  S   UNL     1       6.202   5.643  17.799  0.00  0.00    +0.000 S 
ATOM     20  O   UNL     1       6.904   4.692  18.641  0.00  0.00    +0.000 OA
ATOM     21  O   UNL     1       6.657   7.010  17.684  0.00  0.00    +0.000 OA
BRANCH  19  28
ATOM     22  C   UNL     1       5.667   2.459  11.623  0.00  0.00    +0.000 C 
ATOM     23  N   UNL     1       6.381   3.517  12.303  0.00  0.00    +0.000 N 
ATOM     24  C   UNL     1       7.380   4.279  11.761  0.00  0.00    +0.000 A 
ATOM     25  C   UNL     1       7.828   5.141  12.737  0.00  0.00    +0.000 A 
ATOM     26  C   UNL     1       7.061   4.907  13.912  0.00  0.00    +0.000 A 
ATOM     27  C   UNL     1       7.061   5.463  15.207  0.00  0.00    +0.000 A 
ATOM     28  C   UNL     1       6.132   4.989  16.146  0.00  0.00    +0.000 A 
ATOM     29  C   UNL     1       5.226   3.975  15.825  0.00  0.00    +0.000 A 
ATOM     30  C   UNL     1       5.223   3.410  14.547  0.00  0.00    +0.000 A 
ATOM     31  C   UNL     1       6.150   3.891  13.611  0.00  0.00    +0.000 A 
ENDBRANCH  19  28
ENDBRANCH   1  19
TORSDOF 5
ENDMDL
MODEL 3
REMARK VINA RESULT:      -8.5      5.363     10.042
REMARK  Name = 
REMARK  6 active torsions:
REMARK  status: ('A' for Active; 'I' for Inactive)
REMARK    1  A    between atoms: C_1  and  N_2
REMARK    2  A    between atoms: C_7  and  S_8
REMARK    3  A    between atoms: S_8  and  N_11
REMARK    4  A    between atoms: C_15  and  C_16
REMARK    5  A    between atoms: N_18  and  C_19
REMARK    6  A    between atoms: C_19  and  C_20
REMARK                            x       y       z     vdW  Elec       q    Type
REMARK                         _______ _______ _______ _____ _____    ______ ____
ROOT
ATOM      1  N   UNL     1       4.450   5.891  18.260  0.00  0.00    +0.000 NA
ATOM      2  C   UNL     1       4.156   5.407  19.637  0.00  0.00    +0.000 C 
ATOM      3  C   UNL     1       2.666   5.504  19.949  0.00  0.00    +0.000 C 
ATOM      4  C   UNL     1       2.131   6.913  19.735  0.00  0.00    +0.000 C 
ATOM      5  C   UNL     1       2.413   7.388  18.312  0.00  0.00    +0.000 C 
ATOM      6  C   UNL     1       3.888   7.238  17.928  0.00  0.00    +0.000 C 
ENDROOT
BRANCH   5   7
ATOM      7  C   UNL     1       2.003   8.843  18.124  0.00  0.00    +0.000 C 
ATOM      8  O   UNL     1       2.667   9.613  17.422  0.00  0.00    +0.000 OA
ATOM      9  N   UNL     1       0.883   9.248  18.810  0.00  0.00    +0.000 N 
ATOM     10  H   UNL     1       0.230   8.559  19.174  0.00  0.00    +0.000 HD
BRANCH   9  11
ATOM     11  C   UNL     1       0.409  10.607  18.710  0.00  0.00    +0.000 C 
BRANCH  11  12
ATOM     12  C   UNL     1      -1.037  10.671  18.310  0.00  0.00    +0.000 A 
ATOM     13  C   UNL     1      -1.548   9.824  17.313  0.00  0.00    +0.000 A 
ATOM     14  C   UNL     1      -2.903   9.871  16.972  0.00  0.00    +0.000 A 
ATOM     15  C   UNL     1      -3.759  10.767  17.613  0.00  0.00    +0.000 A 
ATOM     16  C   UNL     1      -3.257  11.622  18.593  0.00  0.00    +0.000 A 
ATOM     17  C   UNL     1      -1.906  11.570  18.928  0.00  0.00    +0.000 A 
ATOM     18  F   UNL     1      -1.443  12.401  19.873  0.00  0.00    +0.000 F 
ENDBRANCH  11  12
ENDBRANCH   9  11
ENDBRANCH   5   7
BRANCH   1  19
ATOM     19  S   UNL     1       6.118   5.759  17.809  0.00  0.00    +0.000 S 
ATOM     20  O   UNL     1       6.736   4.792  18.698  0.00  0.00    +0.000 OA
ATOM     21  O   UNL     1       6.654   7.094  17.675  0.00  0.00    +0.000 OA
BRANCH  19  28
ATOM     22  C   UNL     1       5.637   2.429  11.705  0.00  0.00    +0.000 C 
ATOM     23  N   UNL     1       6.352   3.496  12.370  0.00  0.00    +0.000 N 
ATOM     24  C   UNL     1       7.368   4.234  11.824  0.00  0.00    +0.000 A 
ATOM     25  C   UNL     1       7.811   5.115  12.785  0.00  0.00    +0.000 A 
ATOM     26  C   UNL     1       7.025   4.918  13.954  0.00  0.00    +0.000 A 
ATOM     27  C   UNL     1       7.012   5.505  15.235  0.00  0.00    +0.000 A 
ATOM     28  C   UNL     1       6.064   5.065  16.171  0.00  0.00    +0.000 A 
ATOM     29  C   UNL     1       5.152   4.053  15.862  0.00  0.00    +0.000 A 
ATOM     30  C   UNL     1       5.161   3.457  14.598  0.00  0.00    +0.000 A 
ATOM     31  C   UNL     1       6.107   3.905  13.664  0.00  0.00    +0.000 A 
ENDBRANCH  19  28
ENDBRANCH   1  19
TORSDOF 5
ENDMDL
MODEL 4
REMARK VINA RESULT:      -8.5      3.108      5.055
REMARK  Name = 
REMARK  6 active torsions:
REMARK  status: ('A' for Active; 'I' for Inactive)
REMARK    1  A    between atoms: C_1  and  N_2
REMARK    2  A    between atoms: C_7  and  S_8
REMARK    3  A    between atoms: S_8  and  N_11
REMARK    4  A    between atoms: C_15  and  C_16
REMARK    5  A    between atoms: N_18  and  C_19
REMARK    6  A    between atoms: C_19  and  C_20
REMARK                            x       y       z     vdW  Elec       q    Type
REMARK                         _______ _______ _______ _____ _____    ______ ____
ROOT
ATOM      1  N   UNL     1       0.124  11.872  21.840  0.00  0.00    +0.000 NA
ATOM      2  C   UNL     1      -1.008  11.290  22.614  0.00  0.00    +0.000 C 
ATOM      3  C   UNL     1      -0.636   9.932  23.199  0.00  0.00    +0.000 C 
ATOM      4  C   UNL     1      -0.150   8.966  22.126  0.00  0.00    +0.000 C 
ATOM      5  C   UNL     1       1.027   9.559  21.358  0.00  0.00    +0.000 C 
ATOM      6  C   UNL     1       0.725  10.959  20.817  0.00  0.00    +0.000 C 
ENDROOT
BRANCH   5   7
ATOM      7  C   UNL     1       1.438   8.663  20.197  0.00  0.00    +0.000 C 
ATOM      8  O   UNL     1       1.209   8.981  19.026  0.00  0.00    +0.000 OA
ATOM      9  N   UNL     1       2.037   7.473  20.537  0.00  0.00    +0.000 N 
ATOM     10  H   UNL     1       2.428   7.344  21.466  0.00  0.00    +0.000 HD
BRANCH   9  11
ATOM     11  C   UNL     1       2.460   6.544  19.516  0.00  0.00    +0.000 C 
BRANCH  11  12
ATOM     12  C   UNL     1       2.067   5.132  19.843  0.00  0.00    +0.000 A 
ATOM     13  C   UNL     1       2.205   4.627  21.145  0.00  0.00    +0.000 A 
ATOM     14  C   UNL     1       1.806   3.321  21.443  0.00  0.00    +0.000 A 
ATOM     15  C   UNL     1       1.275   2.503  20.445  0.00  0.00    +0.000 A 
ATOM     16  C   UNL     1       1.149   2.990  19.146  0.00  0.00    +0.000 A 
ATOM     17  C   UNL     1       1.549   4.293  18.856  0.00  0.00    +0.000 A 
ATOM     18  F   UNL     1       1.420   4.744  17.599  0.00  0.00    +0.000 F 
ENDBRANCH  11  12
ENDBRANCH   9  11
ENDBRANCH   5   7
BRANCH   1  19
ATOM     19  S   UNL     1      -0.202  13.444  21.191  0.00  0.00    +0.000 S 
ATOM     20  O   UNL     1      -0.503  14.323  22.306  0.00  0.00    +0.000 OA
ATOM     21  O   UNL     1      -1.127  13.295  20.092  0.00  0.00    +0.000 OA
BRANCH  19  28
ATOM     22  C   UNL     1       5.708  14.991  17.835  0.00  0.00    +0.000 C 
ATOM     23  N   UNL     1       5.136  14.911  19.161  0.00  0.00    +0.000 N 
ATOM     24  C   UNL     1       5.808  15.134  20.333  0.00  0.00    +0.000 A 
ATOM     25  C   UNL     1       4.928  14.919  21.370  0.00  0.00    +0.000 A 
ATOM     26  C   UNL     1       3.669  14.568  20.809  0.00  0.00    +0.000 A 
ATOM     27  C   UNL     1       2.414  14.234  21.355  0.00  0.00    +0.000 A 
ATOM     28  C   UNL     1       1.353  13.945  20.483  0.00  0.00    +0.000 A 
ATOM     29  C   UNL     1       1.523  13.968  19.097  0.00  0.00    +0.000 A 
ATOM     30  C   UNL     1       2.766  14.289  18.544  0.00  0.00    +0.000 A 
ATOM     31  C   UNL     1       3.822  14.582  19.420  0.00  0.00    +0.000 A 
ENDBRANCH  19  28
ENDBRANCH   1  19
TORSDOF 5
ENDMDL
MODEL 5
REMARK VINA RESULT:      -8.3      5.263      9.937
REMARK  Name = 
REMARK  6 active torsions:
REMARK  status: ('A' for Active; 'I' for Inactive)
REMARK    1  A    between atoms: C_1  and  N_2
REMARK    2  A    between atoms: C_7  and  S_8
REMARK    3  A    between atoms: S_8  and  N_11
REMARK    4  A    between atoms: C_15  and  C_16
REMARK    5  A    between atoms: N_18  and  C_19
REMARK    6  A    between atoms: C_19  and  C_20
REMARK                            x       y       z     vdW  Elec       q    Type
REMARK                         _______ _______ _______ _____ _____    ______ ____
ROOT
ATOM      1  N   UNL     1       4.533   5.632  18.291  0.00  0.00    +0.000 NA
ATOM      2  C   UNL     1       4.315   5.073  19.653  0.00  0.00    +0.000 C 
ATOM      3  C   UNL     1       2.836   5.083  20.023  0.00  0.00    +0.000 C 
ATOM      4  C   UNL     1       2.229   6.474  19.897  0.00  0.00    +0.000 C 
ATOM      5  C   UNL     1       2.433   7.026  18.489  0.00  0.00    +0.000 C 
ATOM      6  C   UNL     1       3.896   6.965  18.044  0.00  0.00    +0.000 C 
ENDROOT
BRANCH   5   7
ATOM      7  C   UNL     1       1.949   8.467  18.385  0.00  0.00    +0.000 C 
ATOM      8  O   UNL     1       2.128   9.134  17.361  0.00  0.00    +0.000 OA
ATOM      9  N   UNL     1       1.345   8.983  19.507  0.00  0.00    +0.000 N 
ATOM     10  H   UNL     1       0.996   8.361  20.231  0.00  0.00    +0.000 HD
BRANCH   9  11
ATOM     11  C   UNL     1       0.855  10.340  19.522  0.00  0.00    +0.000 C 
BRANCH  11  12
ATOM     12  C   UNL     1       0.074  10.643  20.768  0.00  0.00    +0.000 A 
ATOM     13  C   UNL     1      -0.816  11.727  20.816  0.00  0.00    +0.000 A 
ATOM     14  C   UNL     1      -1.561  11.980  21.972  0.00  0.00    +0.000 A 
ATOM     15  C   UNL     1      -1.419  11.161  23.093  0.00  0.00    +0.000 A 
ATOM     16  C   UNL     1      -0.526  10.091  23.060  0.00  0.00    +0.000 A 
ATOM     17  C   UNL     1       0.212   9.845  21.904  0.00  0.00    +0.000 A 
ATOM     18  F   UNL     1       1.067   8.812  21.892  0.00  0.00    +0.000 F 
ENDBRANCH  11  12
ENDBRANCH   9  11
ENDBRANCH   5   7
BRANCH   1  19
ATOM     19  S   UNL     1       6.186   5.602  17.773  0.00  0.00    +0.000 S 
ATOM     20  O   UNL     1       6.886   4.639  18.603  0.00  0.00    +0.000 OA
ATOM     21  O   UNL     1       6.649   6.966  17.665  0.00  0.00    +0.000 OA
BRANCH  19  28
ATOM     22  C   UNL     1       5.570   2.477  11.573  0.00  0.00    +0.000 C 
ATOM     23  N   UNL     1       6.323   3.498  12.266  0.00  0.00    +0.000 N 
ATOM     24  C   UNL     1       7.361   4.218  11.739  0.00  0.00    +0.000 A 
ATOM     25  C   UNL     1       7.837   5.054  12.724  0.00  0.00    +0.000 A 
ATOM     26  C   UNL     1       7.049   4.848  13.889  0.00  0.00    +0.000 A 
ATOM     27  C   UNL     1       7.061   5.396  15.188  0.00  0.00    +0.000 A 
ATOM     28  C   UNL     1       6.103   4.960  16.115  0.00  0.00    +0.000 A 
ATOM     29  C   UNL     1       5.156   3.989  15.779  0.00  0.00    +0.000 A 
ATOM     30  C   UNL     1       5.140   3.432  14.498  0.00  0.00    +0.000 A 
ATOM     31  C   UNL     1       6.097   3.876  13.574  0.00  0.00    +0.000 A 
ENDBRANCH  19  28
ENDBRANCH   1  19
TORSDOF 5
ENDMDL
MODEL 6
REMARK VINA RESULT:      -8.3      3.016      4.238
REMARK  Name = 
REMARK  6 active torsions:
REMARK  status: ('A' for Active; 'I' for Inactive)
REMARK    1  A    between atoms: C_1  and  N_2
REMARK    2  A    between atoms: C_7  and  S_8
REMARK    3  A    between atoms: S_8  and  N_11
REMARK    4  A    between atoms: C_15  and  C_16
REMARK    5  A    between atoms: N_18  and  C_19
REMARK    6  A    between atoms: C_19  and  C_20
REMARK                            x       y       z     vdW  Elec       q    Type
REMARK                         _______ _______ _______ _____ _____    ______ ____
ROOT
ATOM      1  N   UNL     1       0.738   9.912  20.286  0.00  0.00    +0.000 NA
ATOM      2  C   UNL     1       1.243  10.565  19.046  0.00  0.00    +0.000 C 
ATOM      3  C   UNL     1       1.213   9.602  17.864  0.00  0.00    +0.000 C 
ATOM      4  C   UNL     1       1.976   8.317  18.159  0.00  0.00    +0.000 C 
ATOM      5  C   UNL     1       1.432   7.641  19.414  0.00  0.00    +0.000 C 
ATOM      6  C   UNL     1       1.373   8.595  20.611  0.00  0.00    +0.000 C 
ENDROOT
BRANCH   5   7
ATOM      7  C   UNL     1       2.271   6.428  19.796  0.00  0.00    +0.000 C 
ATOM      8  O   UNL     1       1.931   5.675  20.714  0.00  0.00    +0.000 OA
ATOM      9  N   UNL     1       3.436   6.253  19.088  0.00  0.00    +0.000 N 
ATOM     10  H   UNL     1       3.570   6.728  18.200  0.00  0.00    +0.000 HD
BRANCH   9  11
ATOM     11  C   UNL     1       4.310   5.140  19.371  0.00  0.00    +0.000 C 
BRANCH  11  12
ATOM     12  C   UNL     1       5.229   4.841  18.223  0.00  0.00    +0.000 A 
ATOM     13  C   UNL     1       6.609   5.078  18.322  0.00  0.00    +0.000 A 
ATOM     14  C   UNL     1       7.459   4.765  17.257  0.00  0.00    +0.000 A 
ATOM     15  C   UNL     1       6.942   4.222  16.081  0.00  0.00    +0.000 A 
ATOM     16  C   UNL     1       5.570   3.997  15.967  0.00  0.00    +0.000 A 
ATOM     17  C   UNL     1       4.730   4.311  17.033  0.00  0.00    +0.000 A 
ATOM     18  F   UNL     1       3.413   4.089  16.904  0.00  0.00    +0.000 F 
ENDBRANCH  11  12
ENDBRANCH   9  11
ENDBRANCH   5   7
BRANCH   1  19
ATOM     19  S   UNL     1       0.687  10.961  21.663  0.00  0.00    +0.000 S 
ATOM     20  O   UNL     1       1.582  12.073  21.399  0.00  0.00    +0.000 OA
ATOM     21  O   UNL     1       0.839  10.152  22.851  0.00  0.00    +0.000 OA
BRANCH  19  28
ATOM     22  C   UNL     1      -5.682  13.735  21.097  0.00  0.00    +0.000 C 
ATOM     23  N   UNL     1      -4.767  13.165  22.061  0.00  0.00    +0.000 N 
ATOM     24  C   UNL     1      -4.992  13.061  23.407  0.00  0.00    +0.000 A 
ATOM     25  C   UNL     1      -3.871  12.503  23.979  0.00  0.00    +0.000 A 
ATOM     26  C   UNL     1      -2.934  12.243  22.941  0.00  0.00    +0.000 A 
ATOM     27  C   UNL     1      -1.634  11.699  22.910  0.00  0.00    +0.000 A 
ATOM     28  C   UNL     1      -0.984  11.572  21.674  0.00  0.00    +0.000 A 
ATOM     29  C   UNL     1      -1.593  11.986  20.486  0.00  0.00    +0.000 A 
ATOM     30  C   UNL     1      -2.877  12.536  20.505  0.00  0.00    +0.000 A 
ATOM     31  C   UNL     1      -3.524  12.655  21.744  0.00  0.00    +0.000 A 
ENDBRANCH  19  28
ENDBRANCH   1  19
TORSDOF 5
ENDMDL
MODEL 7
REMARK VINA RESULT:      -8.3      2.125      3.078
REMARK  Name = 
REMARK  6 active torsions:
REMARK  status: ('A' for Active; 'I' for Inactive)
REMARK    1  A    between atoms: C_1  and  N_2
REMARK    2  A    between atoms: C_7  and  S_8
REMARK    3  A    between atoms: S_8  and  N_11
REMARK    4  A    between atoms: C_15  and  C_16
REMARK    5  A    between atoms: N_18  and  C_19
REMARK    6  A    between atoms: C_19  and  C_20
REMARK                            x       y       z     vdW  Elec       q    Type
REMARK                         _______ _______ _______ _____ _____    ______ ____
ROOT
ATOM      1  N   UNL     1      -0.169  11.604  22.336  0.00  0.00    +0.000 NA
ATOM      2  C   UNL     1      -1.025  10.608  23.037  0.00  0.00    +0.000 C 
ATOM      3  C   UNL     1      -0.363   9.234  23.062  0.00  0.00    +0.000 C 
ATOM      4  C   UNL     1       0.005   8.756  21.663  0.00  0.00    +0.000 C 
ATOM      5  C   UNL     1       0.905   9.771  20.965  0.00  0.00    +0.000 C 
ATOM      6  C   UNL     1       0.314  11.183  20.983  0.00  0.00    +0.000 C 
ENDROOT
BRANCH   5   7
ATOM      7  C   UNL     1       1.172   9.370  19.519  0.00  0.00    +0.000 C 
ATOM      8  O   UNL     1       0.664   9.985  18.577  0.00  0.00    +0.000 OA
ATOM      9  N   UNL     1       1.974   8.268  19.338  0.00  0.00    +0.000 N 
ATOM     10  H   UNL     1       2.565   7.935  20.095  0.00  0.00    +0.000 HD
BRANCH   9  11
ATOM     11  C   UNL     1       2.288   7.796  18.011  0.00  0.00    +0.000 C 
BRANCH  11  12
ATOM     12  C   UNL     1       2.850   6.404  18.027  0.00  0.00    +0.000 A 
ATOM     13  C   UNL     1       2.218   5.379  18.748  0.00  0.00    +0.000 A 
ATOM     14  C   UNL     1       2.734   4.079  18.730  0.00  0.00    +0.000 A 
ATOM     15  C   UNL     1       3.888   3.791  18.000  0.00  0.00    +0.000 A 
ATOM     16  C   UNL     1       4.531   4.806  17.293  0.00  0.00    +0.000 A 
ATOM     17  C   UNL     1       4.011   6.099  17.316  0.00  0.00    +0.000 A 
ATOM     18  F   UNL     1       4.644   7.061  16.630  0.00  0.00    +0.000 F 
ENDBRANCH  11  12
ENDBRANCH   9  11
ENDBRANCH   5   7
BRANCH   1  19
ATOM     19  S   UNL     1      -0.827  13.207  22.316  0.00  0.00    +0.000 S 
ATOM     20  O   UNL     1      -0.234  13.908  21.192  0.00  0.00    +0.000 OA
ATOM     21  O   UNL     1      -0.743  13.744  23.655  0.00  0.00    +0.000 OA
BRANCH  19  28
ATOM     22  C   UNL     1      -7.461  12.482  20.306  0.00  0.00    +0.000 C 
ATOM     23  N   UNL     1      -6.637  12.652  21.482  0.00  0.00    +0.000 N 
ATOM     24  C   UNL     1      -7.098  12.783  22.764  0.00  0.00    +0.000 A 
ATOM     25  C   UNL     1      -6.008  12.966  23.586  0.00  0.00    +0.000 A 
ATOM     26  C   UNL     1      -4.840  12.929  22.777  0.00  0.00    +0.000 A 
ATOM     27  C   UNL     1      -3.461  13.060  23.041  0.00  0.00    +0.000 A 
ATOM     28  C   UNL     1      -2.555  12.955  21.976  0.00  0.00    +0.000 A 
ATOM     29  C   UNL     1      -2.994  12.739  20.667  0.00  0.00    +0.000 A 
ATOM     30  C   UNL     1      -4.358  12.617  20.391  0.00  0.00    +0.000 A 
ATOM     31  C   UNL     1      -5.259  12.717  21.461  0.00  0.00    +0.000 A 
ENDBRANCH  19  28
ENDBRANCH   1  19
TORSDOF 5
ENDMDL
MODEL 8
REMARK VINA RESULT:      -8.2      1.120      1.281
REMARK  Name = 
REMARK  6 active torsions:
REMARK  status: ('A' for Active; 'I' for Inactive)
REMARK    1  A    between atoms: C_1  and  N_2
REMARK    2  A    between atoms: C_7  and  S_8
REMARK    3  A    between atoms: S_8  and  N_11
REMARK    4  A    between atoms: C_15  and  C_16
REMARK    5  A    between atoms: N_18  and  C_19
REMARK    6  A    between atoms: C_19  and  C_20
REMARK                            x       y       z     vdW  Elec       q    Type
REMARK                         _______ _______ _______ _____ _____    ______ ____
ROOT
ATOM      1  N   UNL     1       0.420  11.374  20.819  0.00  0.00    +0.000 NA
ATOM      2  C   UNL     1      -0.591  10.728  21.700  0.00  0.00    +0.000 C 
ATOM      3  C   UNL     1      -0.064   9.418  22.277  0.00  0.00    +0.000 C 
ATOM      4  C   UNL     1       0.405   8.465  21.186  0.00  0.00    +0.000 C 
ATOM      5  C   UNL     1       1.461   9.127  20.307  0.00  0.00    +0.000 C 
ATOM      6  C   UNL     1       1.003  10.485  19.766  0.00  0.00    +0.000 C 
ENDROOT
BRANCH   5   7
ATOM      7  C   UNL     1       1.842   8.235  19.132  0.00  0.00    +0.000 C 
ATOM      8  O   UNL     1       1.581   8.556  17.969  0.00  0.00    +0.000 OA
ATOM      9  N   UNL     1       2.450   7.044  19.452  0.00  0.00    +0.000 N 
ATOM     10  H   UNL     1       2.866   6.913  20.370  0.00  0.00    +0.000 HD
BRANCH   9  11
ATOM     11  C   UNL     1       2.847   6.119  18.418  0.00  0.00    +0.000 C 
BRANCH  11  12
ATOM     12  C   UNL     1       2.298   4.742  18.654  0.00  0.00    +0.000 A 
ATOM     13  C   UNL     1       1.450   4.480  19.741  0.00  0.00    +0.000 A 
ATOM     14  C   UNL     1       0.919   3.200  19.933  0.00  0.00    +0.000 A 
ATOM     15  C   UNL     1       1.236   2.169  19.048  0.00  0.00    +0.000 A 
ATOM     16  C   UNL     1       2.089   2.416  17.974  0.00  0.00    +0.000 A 
ATOM     17  C   UNL     1       2.614   3.693  17.790  0.00  0.00    +0.000 A 
ATOM     18  F   UNL     1       3.434   3.911  16.751  0.00  0.00    +0.000 F 
ENDBRANCH  11  12
ENDBRANCH   9  11
ENDBRANCH   5   7
BRANCH   1  19
ATOM     19  S   UNL     1      -0.083  12.899  20.170  0.00  0.00    +0.000 S 
ATOM     20  O   UNL     1       0.592  13.077  18.898  0.00  0.00    +0.000 OA
ATOM     21  O   UNL     1       0.026  13.891  21.215  0.00  0.00    +0.000 OA
BRANCH  19  28
ATOM     22  C   UNL     1      -6.989  12.093  19.676  0.00  0.00    +0.000 C 
ATOM     23  N   UNL     1      -5.753  11.790  18.990  0.00  0.00    +0.000 N 
ATOM     24  C   UNL     1      -5.641  11.065  17.834  0.00  0.00    +0.000 A 
ATOM     25  C   UNL     1      -4.302  10.965  17.528  0.00  0.00    +0.000 A 
ATOM     26  C   UNL     1      -3.572  11.669  18.525  0.00  0.00    +0.000 A 
ATOM     27  C   UNL     1      -2.202  11.909  18.748  0.00  0.00    +0.000 A 
ATOM     28  C   UNL     1      -1.822  12.678  19.858  0.00  0.00    +0.000 A 
ATOM     29  C   UNL     1      -2.770  13.194  20.745  0.00  0.00    +0.000 A 
ATOM     30  C   UNL     1      -4.131  12.955  20.539  0.00  0.00    +0.000 A 
ATOM     31  C   UNL     1      -4.506  12.190  19.425  0.00  0.00    +0.000 A 
ENDBRANCH  19  28
ENDBRANCH   1  19
TORSDOF 5
ENDMDL
MODEL 9
REMARK VINA RESULT:      -8.2      1.185      1.925
REMARK  Name = 
REMARK  6 active torsions:
REMARK  status: ('A' for Active; 'I' for Inactive)
REMARK    1  A    between atoms: C_1  and  N_2
REMARK    2  A    between atoms: C_7  and  S_8
REMARK    3  A    between atoms: S_8  and  N_11
REMARK    4  A    between atoms: C_15  and  C_16
REMARK    5  A    between atoms: N_18  and  C_19
REMARK    6  A    between atoms: C_19  and  C_20
REMARK                            x       y       z     vdW  Elec       q    Type
REMARK                         _______ _______ _______ _____ _____    ______ ____
ROOT
ATOM      1  N   UNL     1       0.255  11.177  20.756  0.00  0.00    +0.000 NA
ATOM      2  C   UNL     1      -0.808  10.532  21.575  0.00  0.00    +0.000 C 
ATOM      3  C   UNL     1      -0.277   9.296  22.293  0.00  0.00    +0.000 C 
ATOM      4  C   UNL     1       0.350   8.302  21.325  0.00  0.00    +0.000 C 
ATOM      5  C   UNL     1       1.457   8.965  20.511  0.00  0.00    +0.000 C 
ATOM      6  C   UNL     1       0.988  10.255  19.832  0.00  0.00    +0.000 C 
ENDROOT
BRANCH   5   7
ATOM      7  C   UNL     1       2.002   8.021  19.446  0.00  0.00    +0.000 C 
ATOM      8  O   UNL     1       1.837   8.245  18.243  0.00  0.00    +0.000 OA
ATOM      9  N   UNL     1       2.646   6.899  19.909  0.00  0.00    +0.000 N 
ATOM     10  H   UNL     1       2.978   6.859  20.869  0.00  0.00    +0.000 HD
BRANCH   9  11
ATOM     11  C   UNL     1       3.196   5.933  18.988  0.00  0.00    +0.000 C 
BRANCH  11  12
ATOM     12  C   UNL     1       2.439   4.637  19.013  0.00  0.00    +0.000 A 
ATOM     13  C   UNL     1       1.515   4.360  20.033  0.00  0.00    +0.000 A 
ATOM     14  C   UNL     1       0.793   3.163  20.028  0.00  0.00    +0.000 A 
ATOM     15  C   UNL     1       0.990   2.228  19.011  0.00  0.00    +0.000 A 
ATOM     16  C   UNL     1       1.916   2.487  18.002  0.00  0.00    +0.000 A 
ATOM     17  C   UNL     1       2.632   3.682  18.014  0.00  0.00    +0.000 A 
ATOM     18  F   UNL     1       3.519   3.913  17.035  0.00  0.00    +0.000 F 
ENDBRANCH  11  12
ENDBRANCH   9  11
ENDBRANCH   5   7
BRANCH   1  19
ATOM     19  S   UNL     1      -0.256  12.624  19.953  0.00  0.00    +0.000 S 
ATOM     20  O   UNL     1       0.423  12.676  18.671  0.00  0.00    +0.000 OA
ATOM     21  O   UNL     1      -0.157  13.719  20.891  0.00  0.00    +0.000 OA
BRANCH  19  28
ATOM     22  C   UNL     1      -6.890  11.577  18.088  0.00  0.00    +0.000 C 
ATOM     23  N   UNL     1      -6.076  12.122  19.152  0.00  0.00    +0.000 N 
ATOM     24  C   UNL     1      -6.548  12.741  20.278  0.00  0.00    +0.000 A 
ATOM     25  C   UNL     1      -5.462  13.153  21.018  0.00  0.00    +0.000 A 
ATOM     26  C   UNL     1      -4.286  12.756  20.325  0.00  0.00    +0.000 A 
ATOM     27  C   UNL     1      -2.906  12.900  20.577  0.00  0.00    +0.000 A 
ATOM     28  C   UNL     1      -1.992  12.361  19.660  0.00  0.00    +0.000 A 
ATOM     29  C   UNL     1      -2.422  11.703  18.505  0.00  0.00    +0.000 A 
ATOM     30  C   UNL     1      -3.787  11.563  18.239  0.00  0.00    +0.000 A 
ATOM     31  C   UNL     1      -4.697  12.099  19.163  0.00  0.00    +0.000 A 
ENDBRANCH  19  28
ENDBRANCH   1  19
TORSDOF 5
ENDMDL
