MODEL 1
REMARK VINA RESULT:     -11.1      0.000      0.000
REMARK  Name = 
REMARK  5 active torsions:
REMARK  status: ('A' for Active; 'I' for Inactive)
REMARK    1  A    between atoms: C_5  and  C_6
REMARK    2  A    between atoms: C_7  and  C_8
REMARK    3  A    between atoms: C_8  and  C_9
REMARK    4  A    between atoms: C_9  and  N_10
REMARK    5  A    between atoms: N_22  and  C_23
REMARK                            x       y       z     vdW  Elec       q    Type
REMARK                         _______ _______ _______ _____ _____    ______ ____
ROOT
ATOM      1  N   UNL     1       6.731   5.223  17.954  0.00  0.00    +0.000 NA
ATOM      2  C   UNL     1       5.689   5.775  17.014  0.00  0.00    +0.000 C 
ATOM      3  C   UNL     1       4.438   4.966  16.781  0.00  0.00    +0.000 C 
ATOM      4  C   UNL     1       3.979   4.593  18.116  0.00  0.00    +0.000 A 
ATOM      5  C   UNL     1       4.799   3.764  18.836  0.00  0.00    +0.000 A 
ATOM      6  C   UNL     1       3.667   3.112  19.447  0.00  0.00    +0.000 A 
ATOM      7  C   UNL     1       2.580   2.389  18.773  0.00  0.00    +0.000 A 
ATOM      8  C   UNL     1       1.239   2.595  19.144  0.00  0.00    +0.000 A 
ATOM      9  F   UNL     1       0.243   2.194  18.338  0.00  0.00    +0.000 F 
ATOM     10  C   UNL     1       0.939   3.251  20.319  0.00  0.00    +0.000 A 
ATOM     11  C   UNL     1       1.982   3.873  20.998  0.00  0.00    +0.000 A 
ATOM     12  C   UNL     1       3.139   4.175  20.227  0.00  0.00    +0.000 A 
ATOM     13  N   UNL     1       3.232   5.200  19.159  0.00  0.00    +0.000 N 
ATOM     14  C   UNL     1       6.229   4.313  19.082  0.00  0.00    +0.000 C 
ENDROOT
BRANCH  13  15
ATOM     15  C   UNL     1       2.604   6.472  19.204  0.00  0.00    +0.000 A 
ATOM     16  C   UNL     1       2.548   7.253  18.030  0.00  0.00    +0.000 A 
ATOM     17  C   UNL     1       1.998   8.550  18.096  0.00  0.00    +0.000 A 
ATOM     18  C   UNL     1       1.518   9.024  19.308  0.00  0.00    +0.000 A 
ATOM     19  F   UNL     1       1.032  10.277  19.376  0.00  0.00    +0.000 F 
ATOM     20  C   UNL     1       1.526   8.249  20.444  0.00  0.00    +0.000 A 
ATOM     21  C   UNL     1       2.064   6.968  20.390  0.00  0.00    +0.000 A 
ENDBRANCH  13  15
BRANCH   1  22
ATOM     22  C   UNL     1       7.494   6.457  18.320  0.00  0.00    +0.000 C 
BRANCH  22  23
ATOM     23  C   UNL     1       7.515   7.808  17.586  0.00  0.00    +0.000 C 
BRANCH  23  25
ATOM     24  C   UNL     1       8.607  10.157  17.995  0.00  0.00    +0.000 C 
ATOM     25  C   UNL     1       8.552   8.818  18.153  0.00  0.00    +0.000 C 
BRANCH  24  30
ATOM     26  F   UNL     1      12.332  13.947  19.909  0.00  0.00    +0.000 F 
ATOM     27  C   UNL     1      11.463  13.031  19.462  0.00  0.00    +0.000 A 
ATOM     28  C   UNL     1      11.162  12.965  18.108  0.00  0.00    +0.000 A 
ATOM     29  C   UNL     1      10.244  12.014  17.647  0.00  0.00    +0.000 A 
ATOM     30  C   UNL     1       9.621  11.106  18.529  0.00  0.00    +0.000 A 
ATOM     31  C   UNL     1       9.939  11.202  19.893  0.00  0.00    +0.000 A 
ATOM     32  C   UNL     1      10.858  12.159  20.357  0.00  0.00    +0.000 A 
ENDBRANCH  24  30
ENDBRANCH  23  25
ENDBRANCH  22  23
ENDBRANCH   1  22
TORSDOF 5
ENDMDL
MODEL 2
REMARK VINA RESULT:     -10.8      0.800      1.203
REMARK  Name = 
REMARK  5 active torsions:
REMARK  status: ('A' for Active; 'I' for Inactive)
REMARK    1  A    between atoms: C_5  and  C_6
REMARK    2  A    between atoms: C_7  and  C_8
REMARK    3  A    between atoms: C_8  and  C_9
REMARK    4  A    between atoms: C_9  and  N_10
REMARK    5  A    between atoms: N_22  and  C_23
REMARK                            x       y       z     vdW  Elec       q    Type
REMARK                         _______ _______ _______ _____ _____    ______ ____
ROOT
ATOM      1  N   UNL     1       6.768   5.640  17.996  0.00  0.00    +0.000 NA
ATOM      2  C   UNL     1       5.730   6.107  17.008  0.00  0.00    +0.000 C 
ATOM      3  C   UNL     1       4.511   5.244  16.793  0.00  0.00    +0.000 C 
ATOM      4  C   UNL     1       4.036   4.925  18.135  0.00  0.00    +0.000 A 
ATOM      5  C   UNL     1       4.868   4.162  18.914  0.00  0.00    +0.000 A 
ATOM      6  C   UNL     1       3.745   3.503  19.536  0.00  0.00    +0.000 A 
ATOM      7  C   UNL     1       2.698   2.710  18.878  0.00  0.00    +0.000 A 
ATOM      8  C   UNL     1       1.343   2.888  19.211  0.00  0.00    +0.000 A 
ATOM      9  F   UNL     1       0.379   2.412  18.407  0.00  0.00    +0.000 F 
ATOM     10  C   UNL     1       0.995   3.593  20.344  0.00  0.00    +0.000 A 
ATOM     11  C   UNL     1       2.002   4.285  21.010  0.00  0.00    +0.000 A 
ATOM     12  C   UNL     1       3.165   4.586  20.248  0.00  0.00    +0.000 A 
ATOM     13  N   UNL     1       3.247   5.558  19.130  0.00  0.00    +0.000 N 
ATOM     14  C   UNL     1       6.272   4.772  19.160  0.00  0.00    +0.000 C 
ENDROOT
BRANCH  13  15
ATOM     15  C   UNL     1       2.576   6.808  19.097  0.00  0.00    +0.000 A 
ATOM     16  C   UNL     1       2.487   7.508  17.874  0.00  0.00    +0.000 A 
ATOM     17  C   UNL     1       1.893   8.787  17.859  0.00  0.00    +0.000 A 
ATOM     18  C   UNL     1       1.403   9.323  19.041  0.00  0.00    +0.000 A 
ATOM     19  F   UNL     1       0.874  10.561  19.030  0.00  0.00    +0.000 F 
ATOM     20  C   UNL     1       1.443   8.625  20.225  0.00  0.00    +0.000 A 
ATOM     21  C   UNL     1       2.024   7.362  20.251  0.00  0.00    +0.000 A 
ENDBRANCH  13  15
BRANCH   1  22
ATOM     22  C   UNL     1       7.481   6.917  18.313  0.00  0.00    +0.000 C 
BRANCH  22  23
ATOM     23  C   UNL     1       7.798   8.084  17.363  0.00  0.00    +0.000 C 
BRANCH  23  25
ATOM     24  C   UNL     1       9.286   9.710  18.785  0.00  0.00    +0.000 C 
ATOM     25  C   UNL     1       8.168   9.407  18.090  0.00  0.00    +0.000 C 
BRANCH  24  30
ATOM     26  F   UNL     1      10.625  14.383  21.660  0.00  0.00    +0.000 F 
ATOM     27  C   UNL     1      10.294  13.289  20.963  0.00  0.00    +0.000 A 
ATOM     28  C   UNL     1       9.529  12.295  21.557  0.00  0.00    +0.000 A 
ATOM     29  C   UNL     1       9.196  11.146  20.829  0.00  0.00    +0.000 A 
ATOM     30  C   UNL     1       9.613  10.977  19.492  0.00  0.00    +0.000 A 
ATOM     31  C   UNL     1      10.393  11.996  18.921  0.00  0.00    +0.000 A 
ATOM     32  C   UNL     1      10.730  13.147  19.653  0.00  0.00    +0.000 A 
ENDBRANCH  24  30
ENDBRANCH  23  25
ENDBRANCH  22  23
ENDBRANCH   1  22
TORSDOF 5
ENDMDL
MODEL 3
REMARK VINA RESULT:     -10.4      0.903      1.478
REMARK  Name = 
REMARK  5 active torsions:
REMARK  status: ('A' for Active; 'I' for Inactive)
REMARK    1  A    between atoms: C_5  and  C_6
REMARK    2  A    between atoms: C_7  and  C_8
REMARK    3  A    between atoms: C_8  and  C_9
REMARK    4  A    between atoms: C_9  and  N_10
REMARK    5  A    between atoms: N_22  and  C_23
REMARK                            x       y       z     vdW  Elec       q    Type
REMARK                         _______ _______ _______ _____ _____    ______ ____
ROOT
ATOM      1  N   UNL     1       6.594   5.764  17.213  0.00  0.00    +0.000 NA
ATOM      2  C   UNL     1       5.402   6.161  16.380  0.00  0.00    +0.000 C 
ATOM      3  C   UNL     1       4.173   5.286  16.431  0.00  0.00    +0.000 C 
ATOM      4  C   UNL     1       3.930   5.065  17.853  0.00  0.00    +0.000 A 
ATOM      5  C   UNL     1       4.887   4.359  18.535  0.00  0.00    +0.000 A 
ATOM      6  C   UNL     1       3.889   3.748  19.380  0.00  0.00    +0.000 A 
ATOM      7  C   UNL     1       2.755   2.912  18.962  0.00  0.00    +0.000 A 
ATOM      8  C   UNL     1       1.472   3.115  19.502  0.00  0.00    +0.000 A 
ATOM      9  F   UNL     1       0.394   2.584  18.905  0.00  0.00    +0.000 F 
ATOM     10  C   UNL     1       1.310   3.900  20.624  0.00  0.00    +0.000 A 
ATOM     11  C   UNL     1       2.405   4.636  21.063  0.00  0.00    +0.000 A 
ATOM     12  C   UNL     1       3.423   4.881  20.100  0.00  0.00    +0.000 A 
ATOM     13  N   UNL     1       3.309   5.770  18.917  0.00  0.00    +0.000 N 
ATOM     14  C   UNL     1       6.306   4.983  18.501  0.00  0.00    +0.000 C 
ENDROOT
BRANCH  13  15
ATOM     15  C   UNL     1       2.629   7.015  18.907  0.00  0.00    +0.000 A 
ATOM     16  C   UNL     1       2.021   7.476  20.095  0.00  0.00    +0.000 A 
ATOM     17  C   UNL     1       1.276   8.672  20.062  0.00  0.00    +0.000 A 
ATOM     18  C   UNL     1       1.164   9.372  18.869  0.00  0.00    +0.000 A 
ATOM     19  F   UNL     1       0.418  10.492  18.833  0.00  0.00    +0.000 F 
ATOM     20  C   UNL     1       1.796   8.953  17.722  0.00  0.00    +0.000 A 
ATOM     21  C   UNL     1       2.535   7.776  17.742  0.00  0.00    +0.000 A 
ENDBRANCH  13  15
BRANCH   1  22
ATOM     22  C   UNL     1       7.336   7.059  17.316  0.00  0.00    +0.000 C 
BRANCH  22  23
ATOM     23  C   UNL     1       8.156   7.587  18.505  0.00  0.00    +0.000 C 
BRANCH  23  25
ATOM     24  C   UNL     1       9.335   9.825  19.196  0.00  0.00    +0.000 C 
ATOM     25  C   UNL     1       8.545   9.087  18.387  0.00  0.00    +0.000 C 
BRANCH  24  30
ATOM     26  F   UNL     1      10.886  15.241  18.792  0.00  0.00    +0.000 F 
ATOM     27  C   UNL     1      10.495  13.964  18.889  0.00  0.00    +0.000 A 
ATOM     28  C   UNL     1      10.839  13.218  20.007  0.00  0.00    +0.000 A 
ATOM     29  C   UNL     1      10.438  11.879  20.099  0.00  0.00    +0.000 A 
ATOM     30  C   UNL     1       9.680  11.268  19.078  0.00  0.00    +0.000 A 
ATOM     31  C   UNL     1       9.355  12.045  17.955  0.00  0.00    +0.000 A 
ATOM     32  C   UNL     1       9.759  13.388  17.862  0.00  0.00    +0.000 A 
ENDBRANCH  24  30
ENDBRANCH  23  25
ENDBRANCH  22  23
ENDBRANCH   1  22
TORSDOF 5
ENDMDL
MODEL 4
REMARK VINA RESULT:      -9.2      3.702     10.988
REMARK  Name = 
REMARK  5 active torsions:
REMARK  status: ('A' for Active; 'I' for Inactive)
REMARK    1  A    between atoms: C_5  and  C_6
REMARK    2  A    between atoms: C_7  and  C_8
REMARK    3  A    between atoms: C_8  and  C_9
REMARK    4  A    between atoms: C_9  and  N_10
REMARK    5  A    between atoms: N_22  and  C_23
REMARK                            x       y       z     vdW  Elec       q    Type
REMARK                         _______ _______ _______ _____ _____    ______ ____
ROOT
ATOM      1  N   UNL     1      10.145  11.038  19.880  0.00  0.00    +0.000 NA
ATOM      2  C   UNL     1       9.341  11.954  20.767  0.00  0.00    +0.000 C 
ATOM      3  C   UNL     1       9.908  13.316  21.085  0.00  0.00    +0.000 C 
ATOM      4  C   UNL     1      10.327  13.858  19.797  0.00  0.00    +0.000 A 
ATOM      5  C   UNL     1      11.345  13.200  19.157  0.00  0.00    +0.000 A 
ATOM      6  C   UNL     1      11.858  14.437  18.620  0.00  0.00    +0.000 A 
ATOM      7  C   UNL     1      12.324  15.612  19.368  0.00  0.00    +0.000 A 
ATOM      8  C   UNL     1      11.937  16.909  18.986  0.00  0.00    +0.000 A 
ATOM      9  F   UNL     1      12.090  17.939  19.833  0.00  0.00    +0.000 F 
ATOM     10  C   UNL     1      11.357  17.124  17.754  0.00  0.00    +0.000 A 
ATOM     11  C   UNL     1      10.983  16.008  17.011  0.00  0.00    +0.000 A 
ATOM     12  C   UNL     1      10.803  14.801  17.742  0.00  0.00    +0.000 A 
ATOM     13  N   UNL     1       9.709  14.519  18.703  0.00  0.00    +0.000 N 
ATOM     14  C   UNL     1      11.065  11.706  18.850  0.00  0.00    +0.000 C 
ENDROOT
BRANCH  13  15
ATOM     15  C   UNL     1       8.361  14.932  18.536  0.00  0.00    +0.000 A 
ATOM     16  C   UNL     1       7.938  16.145  19.119  0.00  0.00    +0.000 A 
ATOM     17  C   UNL     1       6.580  16.514  19.023  0.00  0.00    +0.000 A 
ATOM     18  C   UNL     1       5.695  15.682  18.351  0.00  0.00    +0.000 A 
ATOM     19  F   UNL     1       4.393  16.016  18.297  0.00  0.00    +0.000 F 
ATOM     20  C   UNL     1       6.113  14.523  17.740  0.00  0.00    +0.000 A 
ATOM     21  C   UNL     1       7.450  14.151  17.826  0.00  0.00    +0.000 A 
ENDBRANCH  13  15
BRANCH   1  22
ATOM     22  C   UNL     1       9.094  10.092  19.390  0.00  0.00    +0.000 C 
BRANCH  22  23
ATOM     23  C   UNL     1       8.773   9.708  17.936  0.00  0.00    +0.000 C 
BRANCH  23  25
ATOM     24  C   UNL     1       7.671   7.450  17.183  0.00  0.00    +0.000 C 
ATOM     25  C   UNL     1       7.641   8.652  17.798  0.00  0.00    +0.000 C 
BRANCH  24  30
ATOM     26  F   UNL     1       3.647   3.514  16.728  0.00  0.00    +0.000 F 
ATOM     27  C   UNL     1       4.587   4.462  16.824  0.00  0.00    +0.000 A 
ATOM     28  C   UNL     1       5.808   4.295  16.184  0.00  0.00    +0.000 A 
ATOM     29  C   UNL     1       6.792   5.284  16.297  0.00  0.00    +0.000 A 
ATOM     30  C   UNL     1       6.569   6.461  17.043  0.00  0.00    +0.000 A 
ATOM     31  C   UNL     1       5.328   6.598  17.686  0.00  0.00    +0.000 A 
ATOM     32  C   UNL     1       4.341   5.604  17.575  0.00  0.00    +0.000 A 
ENDBRANCH  24  30
ENDBRANCH  23  25
ENDBRANCH  22  23
ENDBRANCH   1  22
TORSDOF 5
ENDMDL
MODEL 5
REMARK VINA RESULT:      -8.9      3.769     10.905
REMARK  Name = 
REMARK  5 active torsions:
REMARK  status: ('A' for Active; 'I' for Inactive)
REMARK    1  A    between atoms: C_5  and  C_6
REMARK    2  A    between atoms: C_7  and  C_8
REMARK    3  A    between atoms: C_8  and  C_9
REMARK    4  A    between atoms: C_9  and  N_10
REMARK    5  A    between atoms: N_22  and  C_23
REMARK                            x       y       z     vdW  Elec       q    Type
REMARK                         _______ _______ _______ _____ _____    ______ ____
ROOT
ATOM      1  N   UNL     1      10.331  10.858  20.002  0.00  0.00    +0.000 NA
ATOM      2  C   UNL     1       9.434  11.671  20.900  0.00  0.00    +0.000 C 
ATOM      3  C   UNL     1       9.918  13.025  21.355  0.00  0.00    +0.000 C 
ATOM      4  C   UNL     1      10.393  13.681  20.140  0.00  0.00    +0.000 A 
ATOM      5  C   UNL     1      11.477  13.114  19.522  0.00  0.00    +0.000 A 
ATOM      6  C   UNL     1      11.968  14.408  19.113  0.00  0.00    +0.000 A 
ATOM      7  C   UNL     1      12.333  15.540  19.975  0.00  0.00    +0.000 A 
ATOM      8  C   UNL     1      11.914  16.846  19.666  0.00  0.00    +0.000 A 
ATOM      9  F   UNL     1      11.968  17.813  20.595  0.00  0.00    +0.000 F 
ATOM     10  C   UNL     1      11.404  17.132  18.418  0.00  0.00    +0.000 A 
ATOM     11  C   UNL     1      11.127  16.063  17.571  0.00  0.00    +0.000 A 
ATOM     12  C   UNL     1      10.954  14.797  18.197  0.00  0.00    +0.000 A 
ATOM     13  N   UNL     1       9.816  14.399  19.061  0.00  0.00    +0.000 N 
ATOM     14  C   UNL     1      11.283  11.639  19.087  0.00  0.00    +0.000 C 
ENDROOT
BRANCH  13  15
ATOM     15  C   UNL     1       8.464  14.770  18.836  0.00  0.00    +0.000 A 
ATOM     16  C   UNL     1       7.705  14.057  17.883  0.00  0.00    +0.000 A 
ATOM     17  C   UNL     1       6.390  14.480  17.602  0.00  0.00    +0.000 A 
ATOM     18  C   UNL     1       5.870  15.578  18.272  0.00  0.00    +0.000 A 
ATOM     19  F   UNL     1       4.629  16.003  17.971  0.00  0.00    +0.000 F 
ATOM     20  C   UNL     1       6.588  16.245  19.236  0.00  0.00    +0.000 A 
ATOM     21  C   UNL     1       7.885  15.836  19.524  0.00  0.00    +0.000 A 
ENDBRANCH  13  15
BRANCH   1  22
ATOM     22  C   UNL     1       9.356   9.912  19.375  0.00  0.00    +0.000 C 
BRANCH  22  23
ATOM     23  C   UNL     1       8.558  10.103  18.075  0.00  0.00    +0.000 C 
BRANCH  23  25
ATOM     24  C   UNL     1       7.830   7.590  17.889  0.00  0.00    +0.000 C 
ATOM     25  C   UNL     1       7.617   8.914  17.731  0.00  0.00    +0.000 C 
BRANCH  24  30
ATOM     26  F   UNL     1       4.241   3.481  16.426  0.00  0.00    +0.000 F 
ATOM     27  C   UNL     1       5.103   4.440  16.788  0.00  0.00    +0.000 A 
ATOM     28  C   UNL     1       4.646   5.562  17.467  0.00  0.00    +0.000 A 
ATOM     29  C   UNL     1       5.550   6.567  17.832  0.00  0.00    +0.000 A 
ATOM     30  C   UNL     1       6.925   6.464  17.534  0.00  0.00    +0.000 A 
ATOM     31  C   UNL     1       7.355   5.322  16.839  0.00  0.00    +0.000 A 
ATOM     32  C   UNL     1       6.448   4.314  16.470  0.00  0.00    +0.000 A 
ENDBRANCH  24  30
ENDBRANCH  23  25
ENDBRANCH  22  23
ENDBRANCH   1  22
TORSDOF 5
ENDMDL
MODEL 6
REMARK VINA RESULT:      -8.8      4.257     11.115
REMARK  Name = 
REMARK  5 active torsions:
REMARK  status: ('A' for Active; 'I' for Inactive)
REMARK    1  A    between atoms: C_5  and  C_6
REMARK    2  A    between atoms: C_7  and  C_8
REMARK    3  A    between atoms: C_8  and  C_9
REMARK    4  A    between atoms: C_9  and  N_10
REMARK    5  A    between atoms: N_22  and  C_23
REMARK                            x       y       z     vdW  Elec       q    Type
REMARK                         _______ _______ _______ _____ _____    ______ ____
ROOT
ATOM      1  N   UNL     1      10.103  11.115  18.869  0.00  0.00    +0.000 NA
ATOM      2  C   UNL     1       9.464  11.887  19.996  0.00  0.00    +0.000 C 
ATOM      3  C   UNL     1      10.114  13.175  20.436  0.00  0.00    +0.000 C 
ATOM      4  C   UNL     1      10.362  13.912  19.201  0.00  0.00    +0.000 A 
ATOM      5  C   UNL     1      11.256  13.354  18.325  0.00  0.00    +0.000 A 
ATOM      6  C   UNL     1      11.727  14.655  17.917  0.00  0.00    +0.000 A 
ATOM      7  C   UNL     1      12.333  15.692  18.763  0.00  0.00    +0.000 A 
ATOM      8  C   UNL     1      11.938  17.037  18.649  0.00  0.00    +0.000 A 
ATOM      9  F   UNL     1      12.243  17.918  19.615  0.00  0.00    +0.000 F 
ATOM     10  C   UNL     1      11.195  17.451  17.564  0.00  0.00    +0.000 A 
ATOM     11  C   UNL     1      10.682  16.471  16.719  0.00  0.00    +0.000 A 
ATOM     12  C   UNL     1      10.569  15.165  17.271  0.00  0.00    +0.000 A 
ATOM     13  N   UNL     1       9.615  14.743  18.326  0.00  0.00    +0.000 N 
ATOM     14  C   UNL     1      10.886  11.930  17.832  0.00  0.00    +0.000 C 
ENDROOT
BRANCH  13  15
ATOM     15  C   UNL     1       8.272  15.190  18.425  0.00  0.00    +0.000 A 
ATOM     16  C   UNL     1       7.971  16.281  19.268  0.00  0.00    +0.000 A 
ATOM     17  C   UNL     1       6.626  16.671  19.429  0.00  0.00    +0.000 A 
ATOM     18  C   UNL     1       5.631  15.982  18.749  0.00  0.00    +0.000 A 
ATOM     19  F   UNL     1       4.345  16.331  18.938  0.00  0.00    +0.000 F 
ATOM     20  C   UNL     1       5.924  14.951  17.888  0.00  0.00    +0.000 A 
ATOM     21  C   UNL     1       7.248  14.559  17.720  0.00  0.00    +0.000 A 
ENDBRANCH  13  15
BRANCH   1  22
ATOM     22  C   UNL     1       8.962  10.270  18.396  0.00  0.00    +0.000 C 
BRANCH  22  23
ATOM     23  C   UNL     1       8.643   8.815  18.776  0.00  0.00    +0.000 C 
BRANCH  23  25
ATOM     24  C   UNL     1       7.434   6.754  17.694  0.00  0.00    +0.000 C 
ATOM     25  C   UNL     1       7.907   8.018  17.662  0.00  0.00    +0.000 C 
BRANCH  24  30
ATOM     26  F   UNL     1       5.004   3.708  13.606  0.00  0.00    +0.000 F 
ATOM     27  C   UNL     1       5.567   4.449  14.568  0.00  0.00    +0.000 A 
ATOM     28  C   UNL     1       6.929   4.715  14.529  0.00  0.00    +0.000 A 
ATOM     29  C   UNL     1       7.516   5.480  15.544  0.00  0.00    +0.000 A 
ATOM     30  C   UNL     1       6.750   6.001  16.609  0.00  0.00    +0.000 A 
ATOM     31  C   UNL     1       5.377   5.708  16.625  0.00  0.00    +0.000 A 
ATOM     32  C   UNL     1       4.788   4.937  15.608  0.00  0.00    +0.000 A 
ENDBRANCH  24  30
ENDBRANCH  23  25
ENDBRANCH  22  23
ENDBRANCH   1  22
TORSDOF 5
ENDMDL
MODEL 7
REMARK VINA RESULT:      -8.7      4.477     11.213
REMARK  Name = 
REMARK  5 active torsions:
REMARK  status: ('A' for Active; 'I' for Inactive)
REMARK    1  A    between atoms: C_5  and  C_6
REMARK    2  A    between atoms: C_7  and  C_8
REMARK    3  A    between atoms: C_8  and  C_9
REMARK    4  A    between atoms: C_9  and  N_10
REMARK    5  A    between atoms: N_22  and  C_23
REMARK                            x       y       z     vdW  Elec       q    Type
REMARK                         _______ _______ _______ _____ _____    ______ ____
ROOT
ATOM      1  N   UNL     1      10.990  11.674  18.767  0.00  0.00    +0.000 NA
ATOM      2  C   UNL     1      10.140  12.151  19.917  0.00  0.00    +0.000 C 
ATOM      3  C   UNL     1      10.471  13.484  20.542  0.00  0.00    +0.000 C 
ATOM      4  C   UNL     1      10.618  14.400  19.416  0.00  0.00    +0.000 A 
ATOM      5  C   UNL     1      11.658  14.153  18.558  0.00  0.00    +0.000 A 
ATOM      6  C   UNL     1      11.856  15.564  18.330  0.00  0.00    +0.000 A 
ATOM      7  C   UNL     1      12.176  16.594  19.328  0.00  0.00    +0.000 A 
ATOM      8  C   UNL     1      11.505  17.830  19.328  0.00  0.00    +0.000 A 
ATOM      9  F   UNL     1      11.561  18.631  20.404  0.00  0.00    +0.000 F 
ATOM     10  C   UNL     1      10.749  18.208  18.239  0.00  0.00    +0.000 A 
ATOM     11  C   UNL     1      10.507  17.253  17.256  0.00  0.00    +0.000 A 
ATOM     12  C   UNL     1      10.651  15.895  17.654  0.00  0.00    +0.000 A 
ATOM     13  N   UNL     1       9.756  15.157  18.581  0.00  0.00    +0.000 N 
ATOM     14  C   UNL     1      11.632  12.755  17.888  0.00  0.00    +0.000 C 
ENDROOT
BRANCH  13  15
ATOM     15  C   UNL     1       8.345  15.298  18.621  0.00  0.00    +0.000 A 
ATOM     16  C   UNL     1       7.767  16.151  19.586  0.00  0.00    +0.000 A 
ATOM     17  C   UNL     1       6.362  16.226  19.680  0.00  0.00    +0.000 A 
ATOM     18  C   UNL     1       5.582  15.469  18.818  0.00  0.00    +0.000 A 
ATOM     19  F   UNL     1       4.242  15.511  18.938  0.00  0.00    +0.000 F 
ATOM     20  C   UNL     1       6.140  14.675  17.844  0.00  0.00    +0.000 A 
ATOM     21  C   UNL     1       7.524  14.594  17.741  0.00  0.00    +0.000 A 
ENDBRANCH  13  15
BRANCH   1  22
ATOM     22  C   UNL     1      10.087  10.672  18.118  0.00  0.00    +0.000 C 
BRANCH  22  23
ATOM     23  C   UNL     1       8.706  10.195  18.597  0.00  0.00    +0.000 C 
BRANCH  23  25
ATOM     24  C   UNL     1       7.180   8.308  17.603  0.00  0.00    +0.000 C 
ATOM     25  C   UNL     1       8.338   8.758  18.131  0.00  0.00    +0.000 C 
BRANCH  24  30
ATOM     26  F   UNL     1       5.897   3.124  15.763  0.00  0.00    +0.000 F 
ATOM     27  C   UNL     1       6.195   4.346  16.222  0.00  0.00    +0.000 A 
ATOM     28  C   UNL     1       5.453   5.443  15.803  0.00  0.00    +0.000 A 
ATOM     29  C   UNL     1       5.776   6.721  16.276  0.00  0.00    +0.000 A 
ATOM     30  C   UNL     1       6.839   6.922  17.181  0.00  0.00    +0.000 A 
ATOM     31  C   UNL     1       7.577   5.795  17.579  0.00  0.00    +0.000 A 
ATOM     32  C   UNL     1       7.254   4.513  17.103  0.00  0.00    +0.000 A 
ENDBRANCH  24  30
ENDBRANCH  23  25
ENDBRANCH  22  23
ENDBRANCH   1  22
TORSDOF 5
ENDMDL
MODEL 8
REMARK VINA RESULT:      -8.6      5.858     10.293
REMARK  Name = 
REMARK  5 active torsions:
REMARK  status: ('A' for Active; 'I' for Inactive)
REMARK    1  A    between atoms: C_5  and  C_6
REMARK    2  A    between atoms: C_7  and  C_8
REMARK    3  A    between atoms: C_8  and  C_9
REMARK    4  A    between atoms: C_9  and  N_10
REMARK    5  A    between atoms: N_22  and  C_23
REMARK                            x       y       z     vdW  Elec       q    Type
REMARK                         _______ _______ _______ _____ _____    ______ ____
ROOT
ATOM      1  N   UNL     1       1.148  10.797  19.913  0.00  0.00    +0.000 NA
ATOM      2  C   UNL     1      -0.058  10.018  20.372  0.00  0.00    +0.000 C 
ATOM      3  C   UNL     1      -0.787  10.493  21.605  0.00  0.00    +0.000 C 
ATOM      4  C   UNL     1      -0.976  11.925  21.399  0.00  0.00    +0.000 A 
ATOM      5  C   UNL     1       0.160  12.692  21.351  0.00  0.00    +0.000 A 
ATOM      6  C   UNL     1      -0.513  13.797  21.990  0.00  0.00    +0.000 A 
ATOM      7  C   UNL     1      -1.151  13.810  23.314  0.00  0.00    +0.000 A 
ATOM      8  C   UNL     1      -2.419  14.390  23.497  0.00  0.00    +0.000 A 
ATOM      9  F   UNL     1      -3.131  14.127  24.604  0.00  0.00    +0.000 F 
ATOM     10  C   UNL     1      -2.958  15.199  22.519  0.00  0.00    +0.000 A 
ATOM     11  C   UNL     1      -2.312  15.245  21.288  0.00  0.00    +0.000 A 
ATOM     12  C   UNL     1      -1.457  14.147  20.988  0.00  0.00    +0.000 A 
ATOM     13  N   UNL     1      -1.889  12.758  20.702  0.00  0.00    +0.000 N 
ATOM     14  C   UNL     1       1.168  12.295  20.242  0.00  0.00    +0.000 C 
ENDROOT
BRANCH  13  15
ATOM     15  C   UNL     1      -3.041  12.410  19.949  0.00  0.00    +0.000 A 
ATOM     16  C   UNL     1      -2.878  11.840  18.668  0.00  0.00    +0.000 A 
ATOM     17  C   UNL     1      -4.021  11.572  17.887  0.00  0.00    +0.000 A 
ATOM     18  C   UNL     1      -5.278  11.866  18.398  0.00  0.00    +0.000 A 
ATOM     19  F   UNL     1      -6.364  11.647  17.634  0.00  0.00    +0.000 F 
ATOM     20  C   UNL     1      -5.444  12.376  19.664  0.00  0.00    +0.000 A 
ATOM     21  C   UNL     1      -4.324  12.642  20.444  0.00  0.00    +0.000 A 
ENDBRANCH  13  15
BRANCH   1  22
ATOM     22  C   UNL     1       1.249  10.381  18.479  0.00  0.00    +0.000 C 
BRANCH  22  23
ATOM     23  C   UNL     1       2.257   9.407  17.846  0.00  0.00    +0.000 C 
BRANCH  23  25
ATOM     24  C   UNL     1       2.591   6.961  18.731  0.00  0.00    +0.000 C 
ATOM     25  C   UNL     1       1.904   7.908  18.058  0.00  0.00    +0.000 C 
BRANCH  24  30
ATOM     26  F   UNL     1       1.510   1.446  19.300  0.00  0.00    +0.000 F 
ATOM     27  C   UNL     1       1.743   2.758  19.170  0.00  0.00    +0.000 A 
ATOM     28  C   UNL     1       2.147   3.271  17.944  0.00  0.00    +0.000 A 
ATOM     29  C   UNL     1       2.401   4.643  17.816  0.00  0.00    +0.000 A 
ATOM     30  C   UNL     1       2.247   5.524  18.906  0.00  0.00    +0.000 A 
ATOM     31  C   UNL     1       1.846   4.974  20.135  0.00  0.00    +0.000 A 
ATOM     32  C   UNL     1       1.593   3.598  20.265  0.00  0.00    +0.000 A 
ENDBRANCH  24  30
ENDBRANCH  23  25
ENDBRANCH  22  23
ENDBRANCH   1  22
TORSDOF 5
ENDMDL
MODEL 9
REMARK VINA RESULT:      -8.6      5.736     10.379
REMARK  Name = 
REMARK  5 active torsions:
REMARK  status: ('A' for Active; 'I' for Inactive)
REMARK    1  A    between atoms: C_5  and  C_6
REMARK    2  A    between atoms: C_7  and  C_8
REMARK    3  A    between atoms: C_8  and  C_9
REMARK    4  A    between atoms: C_9  and  N_10
REMARK    5  A    between atoms: N_22  and  C_23
REMARK                            x       y       z     vdW  Elec       q    Type
REMARK                         _______ _______ _______ _____ _____    ______ ____
ROOT
ATOM      1  N   UNL     1       0.039  10.522  19.537  0.00  0.00    +0.000 NA
ATOM      2  C   UNL     1      -1.070  11.264  18.836  0.00  0.00    +0.000 C 
ATOM      3  C   UNL     1      -2.264  11.696  19.651  0.00  0.00    +0.000 C 
ATOM      4  C   UNL     1      -1.699  12.335  20.835  0.00  0.00    +0.000 A 
ATOM      5  C   UNL     1      -0.977  11.531  21.678  0.00  0.00    +0.000 A 
ATOM      6  C   UNL     1      -1.434  12.266  22.833  0.00  0.00    +0.000 A 
ATOM      7  C   UNL     1      -2.821  12.457  23.279  0.00  0.00    +0.000 A 
ATOM      8  C   UNL     1      -3.278  13.723  23.688  0.00  0.00    +0.000 A 
ATOM      9  F   UNL     1      -4.594  13.968  23.787  0.00  0.00    +0.000 F 
ATOM     10  C   UNL     1      -2.377  14.734  23.947  0.00  0.00    +0.000 A 
ATOM     11  C   UNL     1      -1.049  14.524  23.591  0.00  0.00    +0.000 A 
ATOM     12  C   UNL     1      -0.814  13.524  22.607  0.00  0.00    +0.000 A 
ATOM     13  N   UNL     1      -1.177  13.611  21.171  0.00  0.00    +0.000 N 
ATOM     14  C   UNL     1       0.242  10.829  21.026  0.00  0.00    +0.000 C 
ENDROOT
BRANCH  13  15
ATOM     15  C   UNL     1      -1.076  14.787  20.383  0.00  0.00    +0.000 A 
ATOM     16  C   UNL     1      -0.016  14.905  19.459  0.00  0.00    +0.000 A 
ATOM     17  C   UNL     1       0.131  16.108  18.737  0.00  0.00    +0.000 A 
ATOM     18  C   UNL     1      -0.772  17.141  18.944  0.00  0.00    +0.000 A 
ATOM     19  F   UNL     1      -0.605  18.301  18.284  0.00  0.00    +0.000 F 
ATOM     20  C   UNL     1      -1.835  17.011  19.807  0.00  0.00    +0.000 A 
ATOM     21  C   UNL     1      -1.991  15.829  20.523  0.00  0.00    +0.000 A 
ENDBRANCH  13  15
BRANCH   1  22
ATOM     22  C   UNL     1       1.187  10.739  18.602  0.00  0.00    +0.000 C 
BRANCH  22  23
ATOM     23  C   UNL     1       2.118   9.681  17.986  0.00  0.00    +0.000 C 
BRANCH  23  25
ATOM     24  C   UNL     1       2.505   7.094  18.184  0.00  0.00    +0.000 C 
ATOM     25  C   UNL     1       1.860   8.237  18.501  0.00  0.00    +0.000 C 
BRANCH  24  30
ATOM     26  F   UNL     1       1.657   1.782  19.904  0.00  0.00    +0.000 F 
ATOM     27  C   UNL     1       1.837   3.047  19.505  0.00  0.00    +0.000 A 
ATOM     28  C   UNL     1       1.925   3.340  18.151  0.00  0.00    +0.000 A 
ATOM     29  C   UNL     1       2.125   4.664  17.739  0.00  0.00    +0.000 A 
ATOM     30  C   UNL     1       2.229   5.716  18.672  0.00  0.00    +0.000 A 
ATOM     31  C   UNL     1       2.145   5.387  20.035  0.00  0.00    +0.000 A 
ATOM     32  C   UNL     1       1.947   4.059  20.449  0.00  0.00    +0.000 A 
ENDBRANCH  24  30
ENDBRANCH  23  25
ENDBRANCH  22  23
ENDBRANCH   1  22
TORSDOF 5
ENDMDL
