MODEL 1
REMARK VINA RESULT:      -8.5      0.000      0.000
REMARK  Name = 
REMARK  6 active torsions:
REMARK  status: ('A' for Active; 'I' for Inactive)
REMARK    1  A    between atoms: C_2  and  C_3
REMARK    2  A    between atoms: C_5  and  S_6
REMARK    3  A    between atoms: S_6  and  N_9
REMARK    4  A    between atoms: C_17  and  O_18
REMARK    5  A    between atoms: O_18  and  C_19
REMARK    6  A    between atoms: C_25  and  C_26
REMARK                            x       y       z     vdW  Elec       q    Type
REMARK                         _______ _______ _______ _____ _____    ______ ____
ROOT
ATOM      1  C   UNL     1       1.151   8.603  20.417  0.00  0.00    +0.000 A 
ATOM      2  C   UNL     1       1.867   7.398  20.401  0.00  0.00    +0.000 A 
ATOM      3  C   UNL     1       2.494   6.970  19.231  0.00  0.00    +0.000 A 
ATOM      4  C   UNL     1       2.402   7.725  18.062  0.00  0.00    +0.000 A 
ATOM      5  C   UNL     1       1.736   8.951  18.090  0.00  0.00    +0.000 A 
ATOM      6  C   UNL     1       1.140   9.418  19.273  0.00  0.00    +0.000 A 
ENDROOT
BRANCH   3   7
ATOM      7  S   UNL     1       3.275   5.374  19.192  0.00  0.00    +0.000 S 
ATOM      8  O   UNL     1       2.771   4.624  20.322  0.00  0.00    +0.000 OA
ATOM      9  O   UNL     1       3.150   4.877  17.841  0.00  0.00    +0.000 OA
BRANCH   7  10
ATOM     10  N   UNL     1       4.877   5.777  19.577  0.00  0.00    +0.000 N 
ATOM     11  C   UNL     1       5.725   5.576  18.467  0.00  0.00    +0.000 A 
ATOM     12  N   UNL     1       6.422   4.472  18.395  0.00  0.00    +0.000 NA
ATOM     13  C   UNL     1       7.121   4.471  17.201  0.00  0.00    +0.000 A 
ATOM     14  C   UNL     1       7.030   5.629  16.457  0.00  0.00    +0.000 A 
ATOM     15  S   UNL     1       5.990   6.741  17.249  0.00  0.00    +0.000 S 
ATOM     16  H   UNL     1       5.153   5.113  20.304  0.00  0.00    +0.000 HD
ENDBRANCH   7  10
ENDBRANCH   3   7
BRANCH   1  18
ATOM     17  N   UNL     1      -0.092   9.137  22.629  0.00  0.00    +0.000 NA
ATOM     18  C   UNL     1       0.435   8.909  21.618  0.00  0.00    +0.000 C 
ENDBRANCH   1  18
BRANCH   6  19
ATOM     19  O   UNL     1       0.500  10.626  19.123  0.00  0.00    +0.000 OA
BRANCH  19  20
ATOM     20  C   UNL     1      -0.805  10.725  18.683  0.00  0.00    +0.000 A 
ATOM     21  C   UNL     1      -1.315   9.920  17.653  0.00  0.00    +0.000 A 
ATOM     22  C   UNL     1      -2.572  10.182  17.109  0.00  0.00    +0.000 A 
ATOM     23  C   UNL     1      -3.351  11.199  17.643  0.00  0.00    +0.000 A 
ATOM     24 CL   UNL     1      -4.884  11.553  16.948  0.00  0.00    +0.000 Cl
ATOM     25  C   UNL     1      -2.905  11.916  18.753  0.00  0.00    +0.000 A 
ATOM     26  C   UNL     1      -1.632  11.683  19.324  0.00  0.00    +0.000 A 
BRANCH  26  27
ATOM     27  C   UNL     1      -1.248  12.423  20.557  0.00  0.00    +0.000 A 
ATOM     28  C   UNL     1      -1.652  12.049  21.840  0.00  0.00    +0.000 A 
ATOM     29  C   UNL     1      -1.296  12.833  22.937  0.00  0.00    +0.000 A 
ATOM     30  C   UNL     1      -0.569  13.995  22.734  0.00  0.00    +0.000 A 
ATOM     31  C   UNL     1      -0.223  14.321  21.436  0.00  0.00    +0.000 A 
ATOM     32  N   UNL     1      -0.542  13.569  20.358  0.00  0.00    +0.000 NA
ENDBRANCH  26  27
ENDBRANCH  19  20
ENDBRANCH   6  19
TORSDOF 6
ENDMDL
MODEL 2
REMARK VINA RESULT:      -8.4      1.951      2.556
REMARK  Name = 
REMARK  6 active torsions:
REMARK  status: ('A' for Active; 'I' for Inactive)
REMARK    1  A    between atoms: C_2  and  C_3
REMARK    2  A    between atoms: C_5  and  S_6
REMARK    3  A    between atoms: S_6  and  N_9
REMARK    4  A    between atoms: C_17  and  O_18
REMARK    5  A    between atoms: O_18  and  C_19
REMARK    6  A    between atoms: C_25  and  C_26
REMARK                            x       y       z     vdW  Elec       q    Type
REMARK                         _______ _______ _______ _____ _____    ______ ____
ROOT
ATOM      1  C   UNL     1       1.089   8.796  20.082  0.00  0.00    +0.000 A 
ATOM      2  C   UNL     1       1.919   7.682  19.891  0.00  0.00    +0.000 A 
ATOM      3  C   UNL     1       2.588   7.505  18.680  0.00  0.00    +0.000 A 
ATOM      4  C   UNL     1       2.425   8.422  17.642  0.00  0.00    +0.000 A 
ATOM      5  C   UNL     1       1.643   9.559  17.849  0.00  0.00    +0.000 A 
ATOM      6  C   UNL     1       1.002   9.776  19.080  0.00  0.00    +0.000 A 
ENDROOT
BRANCH   3   7
ATOM      7  S   UNL     1       3.519   6.018  18.407  0.00  0.00    +0.000 S 
ATOM      8  O   UNL     1       4.351   6.242  17.244  0.00  0.00    +0.000 OA
ATOM      9  O   UNL     1       4.088   5.637  19.679  0.00  0.00    +0.000 OA
BRANCH   7  10
ATOM     10  N   UNL     1       2.301   4.948  17.907  0.00  0.00    +0.000 N 
ATOM     11  C   UNL     1       2.098   3.935  18.869  0.00  0.00    +0.000 A 
ATOM     12  N   UNL     1       2.665   2.770  18.690  0.00  0.00    +0.000 NA
ATOM     13  C   UNL     1       2.379   1.970  19.781  0.00  0.00    +0.000 A 
ATOM     14  C   UNL     1       1.502   2.508  20.701  0.00  0.00    +0.000 A 
ATOM     15  S   UNL     1       1.060   4.093  20.214  0.00  0.00    +0.000 S 
ATOM     16  H   UNL     1       2.664   4.505  17.060  0.00  0.00    +0.000 HD
ENDBRANCH   7  10
ENDBRANCH   3   7
BRANCH   1  18
ATOM     17  N   UNL     1      -0.320   8.869  22.258  0.00  0.00    +0.000 NA
ATOM     18  C   UNL     1       0.343   8.840  21.304  0.00  0.00    +0.000 C 
ENDBRANCH   1  18
BRANCH   6  19
ATOM     19  O   UNL     1       0.248  10.926  19.109  0.00  0.00    +0.000 OA
BRANCH  19  20
ATOM     20  C   UNL     1      -1.091  10.944  18.770  0.00  0.00    +0.000 A 
ATOM     21  C   UNL     1      -1.622  10.133  17.755  0.00  0.00    +0.000 A 
ATOM     22  C   UNL     1      -2.932  10.321  17.315  0.00  0.00    +0.000 A 
ATOM     23  C   UNL     1      -3.735  11.266  17.937  0.00  0.00    +0.000 A 
ATOM     24 CL   UNL     1      -5.337  11.529  17.370  0.00  0.00    +0.000 Cl
ATOM     25  C   UNL     1      -3.256  11.982  19.034  0.00  0.00    +0.000 A 
ATOM     26  C   UNL     1      -1.930  11.824  19.501  0.00  0.00    +0.000 A 
BRANCH  26  27
ATOM     27  C   UNL     1      -1.506  12.555  20.726  0.00  0.00    +0.000 A 
ATOM     28  C   UNL     1      -1.750  12.099  22.023  0.00  0.00    +0.000 A 
ATOM     29  C   UNL     1      -1.370  12.876  23.116  0.00  0.00    +0.000 A 
ATOM     30  C   UNL     1      -0.779  14.111  22.899  0.00  0.00    +0.000 A 
ATOM     31  C   UNL     1      -0.588  14.514  21.591  0.00  0.00    +0.000 A 
ATOM     32  N   UNL     1      -0.933  13.771  20.514  0.00  0.00    +0.000 NA
ENDBRANCH  26  27
ENDBRANCH  19  20
ENDBRANCH   6  19
TORSDOF 6
ENDMDL
MODEL 3
REMARK VINA RESULT:      -8.4      1.855      2.510
REMARK  Name = 
REMARK  6 active torsions:
REMARK  status: ('A' for Active; 'I' for Inactive)
REMARK    1  A    between atoms: C_2  and  C_3
REMARK    2  A    between atoms: C_5  and  S_6
REMARK    3  A    between atoms: S_6  and  N_9
REMARK    4  A    between atoms: C_17  and  O_18
REMARK    5  A    between atoms: O_18  and  C_19
REMARK    6  A    between atoms: C_25  and  C_26
REMARK                            x       y       z     vdW  Elec       q    Type
REMARK                         _______ _______ _______ _____ _____    ______ ____
ROOT
ATOM      1  C   UNL     1       1.039   8.914  20.155  0.00  0.00    +0.000 A 
ATOM      2  C   UNL     1       1.872   7.804  19.954  0.00  0.00    +0.000 A 
ATOM      3  C   UNL     1       2.498   7.609  18.723  0.00  0.00    +0.000 A 
ATOM      4  C   UNL     1       2.289   8.504  17.674  0.00  0.00    +0.000 A 
ATOM      5  C   UNL     1       1.504   9.638  17.889  0.00  0.00    +0.000 A 
ATOM      6  C   UNL     1       0.906   9.873  19.138  0.00  0.00    +0.000 A 
ENDROOT
BRANCH   3   7
ATOM      7  S   UNL     1       3.433   6.125  18.443  0.00  0.00    +0.000 S 
ATOM      8  O   UNL     1       2.554   5.185  17.780  0.00  0.00    +0.000 OA
ATOM      9  O   UNL     1       4.691   6.524  17.857  0.00  0.00    +0.000 OA
BRANCH   7  10
ATOM     10  N   UNL     1       3.622   5.547  20.027  0.00  0.00    +0.000 N 
ATOM     11  C   UNL     1       2.876   4.365  20.221  0.00  0.00    +0.000 A 
ATOM     12  N   UNL     1       1.704   4.443  20.796  0.00  0.00    +0.000 NA
ATOM     13  C   UNL     1       1.141   3.180  20.820  0.00  0.00    +0.000 A 
ATOM     14  C   UNL     1       1.952   2.157  20.371  0.00  0.00    +0.000 A 
ATOM     15  S   UNL     1       3.455   2.803  19.850  0.00  0.00    +0.000 S 
ATOM     16  H   UNL     1       3.220   6.271  20.626  0.00  0.00    +0.000 HD
ENDBRANCH   7  10
ENDBRANCH   3   7
BRANCH   1  18
ATOM     17  N   UNL     1      -0.183   9.065  22.437  0.00  0.00    +0.000 NA
ATOM     18  C   UNL     1       0.338   8.974  21.401  0.00  0.00    +0.000 C 
ENDBRANCH   1  18
BRANCH   6  19
ATOM     19  O   UNL     1       0.143  11.017  19.173  0.00  0.00    +0.000 OA
BRANCH  19  20
ATOM     20  C   UNL     1      -1.197  11.025  18.840  0.00  0.00    +0.000 A 
ATOM     21  C   UNL     1      -1.730  10.195  17.841  0.00  0.00    +0.000 A 
ATOM     22  C   UNL     1      -3.042  10.372  17.403  0.00  0.00    +0.000 A 
ATOM     23  C   UNL     1      -3.846  11.324  18.013  0.00  0.00    +0.000 A 
ATOM     24 CL   UNL     1      -5.451  11.573  17.448  0.00  0.00    +0.000 Cl
ATOM     25  C   UNL     1      -3.364  12.060  19.095  0.00  0.00    +0.000 A 
ATOM     26  C   UNL     1      -2.036  11.915  19.559  0.00  0.00    +0.000 A 
BRANCH  26  27
ATOM     27  C   UNL     1      -1.609  12.668  20.769  0.00  0.00    +0.000 A 
ATOM     28  C   UNL     1      -1.754  12.185  22.072  0.00  0.00    +0.000 A 
ATOM     29  C   UNL     1      -1.380  12.982  23.154  0.00  0.00    +0.000 A 
ATOM     30  C   UNL     1      -0.896  14.259  22.921  0.00  0.00    +0.000 A 
ATOM     31  C   UNL     1      -0.801  14.685  21.610  0.00  0.00    +0.000 A 
ATOM     32  N   UNL     1      -1.141  13.925  20.544  0.00  0.00    +0.000 NA
ENDBRANCH  26  27
ENDBRANCH  19  20
ENDBRANCH   6  19
TORSDOF 6
ENDMDL
MODEL 4
REMARK VINA RESULT:      -8.1      1.044      1.083
REMARK  Name = 
REMARK  6 active torsions:
REMARK  status: ('A' for Active; 'I' for Inactive)
REMARK    1  A    between atoms: C_2  and  C_3
REMARK    2  A    between atoms: C_5  and  S_6
REMARK    3  A    between atoms: S_6  and  N_9
REMARK    4  A    between atoms: C_17  and  O_18
REMARK    5  A    between atoms: O_18  and  C_19
REMARK    6  A    between atoms: C_25  and  C_26
REMARK                            x       y       z     vdW  Elec       q    Type
REMARK                         _______ _______ _______ _____ _____    ______ ____
ROOT
ATOM      1  C   UNL     1       1.011   8.886  20.278  0.00  0.00    +0.000 A 
ATOM      2  C   UNL     1       1.818   7.765  20.037  0.00  0.00    +0.000 A 
ATOM      3  C   UNL     1       2.382   7.564  18.777  0.00  0.00    +0.000 A 
ATOM      4  C   UNL     1       2.136   8.464  17.741  0.00  0.00    +0.000 A 
ATOM      5  C   UNL     1       1.378   9.608  17.994  0.00  0.00    +0.000 A 
ATOM      6  C   UNL     1       0.844   9.849  19.269  0.00  0.00    +0.000 A 
ENDROOT
BRANCH   3   7
ATOM      7  S   UNL     1       3.282   6.067  18.452  0.00  0.00    +0.000 S 
ATOM      8  O   UNL     1       4.047   5.761  19.642  0.00  0.00    +0.000 OA
ATOM      9  O   UNL     1       2.341   5.123  17.896  0.00  0.00    +0.000 OA
BRANCH   7  10
ATOM     10  N   UNL     1       4.408   6.599  17.300  0.00  0.00    +0.000 N 
ATOM     11  C   UNL     1       5.649   5.950  17.475  0.00  0.00    +0.000 A 
ATOM     12  N   UNL     1       6.599   6.565  18.129  0.00  0.00    +0.000 NA
ATOM     13  C   UNL     1       7.687   5.716  18.227  0.00  0.00    +0.000 A 
ATOM     14  C   UNL     1       7.576   4.524  17.539  0.00  0.00    +0.000 A 
ATOM     15  S   UNL     1       6.036   4.437  16.787  0.00  0.00    +0.000 S 
ATOM     16  H   UNL     1       4.546   7.593  17.499  0.00  0.00    +0.000 HD
ENDBRANCH   7  10
ENDBRANCH   3   7
BRANCH   1  18
ATOM     17  N   UNL     1      -0.117   9.068  22.606  0.00  0.00    +0.000 NA
ATOM     18  C   UNL     1       0.371   8.954  21.557  0.00  0.00    +0.000 C 
ENDBRANCH   1  18
BRANCH   6  19
ATOM     19  O   UNL     1       0.099  11.003  19.342  0.00  0.00    +0.000 OA
BRANCH  19  20
ATOM     20  C   UNL     1      -1.235  11.049  18.988  0.00  0.00    +0.000 A 
ATOM     21  C   UNL     1      -1.779  10.221  17.993  0.00  0.00    +0.000 A 
ATOM     22  C   UNL     1      -3.078  10.433  17.533  0.00  0.00    +0.000 A 
ATOM     23  C   UNL     1      -3.860  11.419  18.116  0.00  0.00    +0.000 A 
ATOM     24 CL   UNL     1      -5.448  11.710  17.523  0.00  0.00    +0.000 Cl
ATOM     25  C   UNL     1      -3.371  12.156  19.195  0.00  0.00    +0.000 A 
ATOM     26  C   UNL     1      -2.056  11.975  19.682  0.00  0.00    +0.000 A 
BRANCH  26  27
ATOM     27  C   UNL     1      -1.623  12.733  20.887  0.00  0.00    +0.000 A 
ATOM     28  C   UNL     1      -1.793  12.270  22.194  0.00  0.00    +0.000 A 
ATOM     29  C   UNL     1      -1.411  13.070  23.270  0.00  0.00    +0.000 A 
ATOM     30  C   UNL     1      -0.894  14.333  23.027  0.00  0.00    +0.000 A 
ATOM     31  C   UNL     1      -0.776  14.740  21.712  0.00  0.00    +0.000 A 
ATOM     32  N   UNL     1      -1.123  13.976  20.651  0.00  0.00    +0.000 NA
ENDBRANCH  26  27
ENDBRANCH  19  20
ENDBRANCH   6  19
TORSDOF 6
ENDMDL
MODEL 5
REMARK VINA RESULT:      -8.0      1.104      1.309
REMARK  Name = 
REMARK  6 active torsions:
REMARK  status: ('A' for Active; 'I' for Inactive)
REMARK    1  A    between atoms: C_2  and  C_3
REMARK    2  A    between atoms: C_5  and  S_6
REMARK    3  A    between atoms: S_6  and  N_9
REMARK    4  A    between atoms: C_17  and  O_18
REMARK    5  A    between atoms: O_18  and  C_19
REMARK    6  A    between atoms: C_25  and  C_26
REMARK                            x       y       z     vdW  Elec       q    Type
REMARK                         _______ _______ _______ _____ _____    ______ ____
ROOT
ATOM      1  C   UNL     1       1.009   8.847  20.241  0.00  0.00    +0.000 A 
ATOM      2  C   UNL     1       1.874   7.771  19.995  0.00  0.00    +0.000 A 
ATOM      3  C   UNL     1       2.493   7.639  18.751  0.00  0.00    +0.000 A 
ATOM      4  C   UNL     1       2.246   8.563  17.737  0.00  0.00    +0.000 A 
ATOM      5  C   UNL     1       1.429   9.663  17.998  0.00  0.00    +0.000 A 
ATOM      6  C   UNL     1       0.837   9.836  19.259  0.00  0.00    +0.000 A 
ENDROOT
BRANCH   3   7
ATOM      7  S   UNL     1       3.471   6.195  18.412  0.00  0.00    +0.000 S 
ATOM      8  O   UNL     1       4.053   5.768  19.666  0.00  0.00    +0.000 OA
ATOM      9  O   UNL     1       2.650   5.307  17.621  0.00  0.00    +0.000 OA
BRANCH   7  10
ATOM     10  N   UNL     1       4.744   6.859  17.510  0.00  0.00    +0.000 N 
ATOM     11  C   UNL     1       5.628   5.849  17.072  0.00  0.00    +0.000 A 
ATOM     12  N   UNL     1       6.726   5.632  17.748  0.00  0.00    +0.000 NA
ATOM     13  C   UNL     1       7.392   4.566  17.172  0.00  0.00    +0.000 A 
ATOM     14  C   UNL     1       6.844   4.081  16.003  0.00  0.00    +0.000 A 
ATOM     15  S   UNL     1       5.412   4.953  15.636  0.00  0.00    +0.000 S 
ATOM     16  H   UNL     1       5.254   7.456  18.165  0.00  0.00    +0.000 HD
ENDBRANCH   7  10
ENDBRANCH   3   7
BRANCH   1  18
ATOM     17  N   UNL     1      -0.270   8.898  22.496  0.00  0.00    +0.000 NA
ATOM     18  C   UNL     1       0.319   8.842  21.495  0.00  0.00    +0.000 C 
ENDBRANCH   1  18
BRANCH   6  19
ATOM     19  O   UNL     1       0.039  10.954  19.341  0.00  0.00    +0.000 OA
BRANCH  19  20
ATOM     20  C   UNL     1      -1.285  10.950  18.948  0.00  0.00    +0.000 A 
ATOM     21  C   UNL     1      -1.780  10.068  17.976  0.00  0.00    +0.000 A 
ATOM     22  C   UNL     1      -3.070  10.226  17.471  0.00  0.00    +0.000 A 
ATOM     23  C   UNL     1      -3.892  11.217  17.989  0.00  0.00    +0.000 A 
ATOM     24 CL   UNL     1      -5.469  11.442  17.340  0.00  0.00    +0.000 Cl
ATOM     25  C   UNL     1      -3.452  12.011  19.048  0.00  0.00    +0.000 A 
ATOM     26  C   UNL     1      -2.148  11.884  19.578  0.00  0.00    +0.000 A 
BRANCH  26  27
ATOM     27  C   UNL     1      -1.768  12.704  20.761  0.00  0.00    +0.000 A 
ATOM     28  C   UNL     1      -1.360  14.037  20.679  0.00  0.00    +0.000 A 
ATOM     29  C   UNL     1      -0.965  14.715  21.832  0.00  0.00    +0.000 A 
ATOM     30  C   UNL     1      -0.953  14.043  23.044  0.00  0.00    +0.000 A 
ATOM     31  C   UNL     1      -1.344  12.718  23.051  0.00  0.00    +0.000 A 
ATOM     32  N   UNL     1      -1.747  12.044  21.950  0.00  0.00    +0.000 NA
ENDBRANCH  26  27
ENDBRANCH  19  20
ENDBRANCH   6  19
TORSDOF 6
ENDMDL
MODEL 6
REMARK VINA RESULT:      -8.0      3.927      8.922
REMARK  Name = 
REMARK  6 active torsions:
REMARK  status: ('A' for Active; 'I' for Inactive)
REMARK    1  A    between atoms: C_2  and  C_3
REMARK    2  A    between atoms: C_5  and  S_6
REMARK    3  A    between atoms: S_6  and  N_9
REMARK    4  A    between atoms: C_17  and  O_18
REMARK    5  A    between atoms: O_18  and  C_19
REMARK    6  A    between atoms: C_25  and  C_26
REMARK                            x       y       z     vdW  Elec       q    Type
REMARK                         _______ _______ _______ _____ _____    ______ ____
ROOT
ATOM      1  C   UNL     1       2.678   6.476  19.546  0.00  0.00    +0.000 A 
ATOM      2  C   UNL     1       1.673   7.453  19.488  0.00  0.00    +0.000 A 
ATOM      3  C   UNL     1       1.785   8.524  18.601  0.00  0.00    +0.000 A 
ATOM      4  C   UNL     1       2.903   8.644  17.776  0.00  0.00    +0.000 A 
ATOM      5  C   UNL     1       3.877   7.645  17.793  0.00  0.00    +0.000 A 
ATOM      6  C   UNL     1       3.754   6.536  18.646  0.00  0.00    +0.000 A 
ENDROOT
BRANCH   3   7
ATOM      7  S   UNL     1       0.575   9.824  18.644  0.00  0.00    +0.000 S 
ATOM      8  O   UNL     1      -0.325   9.606  17.533  0.00  0.00    +0.000 OA
ATOM      9  O   UNL     1       0.092   9.904  20.003  0.00  0.00    +0.000 OA
BRANCH   7  10
ATOM     10  N   UNL     1       1.518  11.170  18.222  0.00  0.00    +0.000 N 
ATOM     11  C   UNL     1       1.070  12.326  18.897  0.00  0.00    +0.000 A 
ATOM     12  N   UNL     1       0.281  13.159  18.271  0.00  0.00    +0.000 NA
ATOM     13  C   UNL     1      -0.072  14.171  19.145  0.00  0.00    +0.000 A 
ATOM     14  C   UNL     1       0.554  14.143  20.374  0.00  0.00    +0.000 A 
ATOM     15  S   UNL     1       1.583  12.772  20.462  0.00  0.00    +0.000 S 
ATOM     16  H   UNL     1       1.353  11.310  17.223  0.00  0.00    +0.000 HD
ENDBRANCH   7  10
ENDBRANCH   3   7
BRANCH   1  18
ATOM     17  N   UNL     1       2.409   4.634  21.351  0.00  0.00    +0.000 NA
ATOM     18  C   UNL     1       2.549   5.481  20.567  0.00  0.00    +0.000 C 
ENDBRANCH   1  18
BRANCH   6  19
ATOM     19  O   UNL     1       4.812   5.661  18.561  0.00  0.00    +0.000 OA
BRANCH  19  20
ATOM     20  C   UNL     1       5.249   5.140  17.359  0.00  0.00    +0.000 A 
ATOM     21  C   UNL     1       6.387   5.626  16.696  0.00  0.00    +0.000 A 
ATOM     22  C   UNL     1       6.680   5.207  15.399  0.00  0.00    +0.000 A 
ATOM     23  C   UNL     1       5.883   4.248  14.792  0.00  0.00    +0.000 A 
ATOM     24 CL   UNL     1       6.218   3.759  13.177  0.00  0.00    +0.000 Cl
ATOM     25  C   UNL     1       4.830   3.664  15.494  0.00  0.00    +0.000 A 
ATOM     26  C   UNL     1       4.497   4.070  16.807  0.00  0.00    +0.000 A 
BRANCH  26  27
ATOM     27  C   UNL     1       3.415   3.351  17.533  0.00  0.00    +0.000 A 
ATOM     28  C   UNL     1       2.063   3.689  17.437  0.00  0.00    +0.000 A 
ATOM     29  C   UNL     1       1.119   2.999  18.197  0.00  0.00    +0.000 A 
ATOM     30  C   UNL     1       1.541   2.004  19.064  0.00  0.00    +0.000 A 
ATOM     31  C   UNL     1       2.896   1.736  19.129  0.00  0.00    +0.000 A 
ATOM     32  N   UNL     1       3.828   2.379  18.390  0.00  0.00    +0.000 NA
ENDBRANCH  26  27
ENDBRANCH  19  20
ENDBRANCH   6  19
TORSDOF 6
ENDMDL
MODEL 7
REMARK VINA RESULT:      -8.0      2.312      2.987
REMARK  Name = 
REMARK  6 active torsions:
REMARK  status: ('A' for Active; 'I' for Inactive)
REMARK    1  A    between atoms: C_2  and  C_3
REMARK    2  A    between atoms: C_5  and  S_6
REMARK    3  A    between atoms: S_6  and  N_9
REMARK    4  A    between atoms: C_17  and  O_18
REMARK    5  A    between atoms: O_18  and  C_19
REMARK    6  A    between atoms: C_25  and  C_26
REMARK                            x       y       z     vdW  Elec       q    Type
REMARK                         _______ _______ _______ _____ _____    ______ ____
ROOT
ATOM      1  C   UNL     1       1.185   8.682  20.350  0.00  0.00    +0.000 A 
ATOM      2  C   UNL     1       1.880   7.465  20.337  0.00  0.00    +0.000 A 
ATOM      3  C   UNL     1       2.465   7.003  19.158  0.00  0.00    +0.000 A 
ATOM      4  C   UNL     1       2.351   7.737  17.977  0.00  0.00    +0.000 A 
ATOM      5  C   UNL     1       1.706   8.974  18.001  0.00  0.00    +0.000 A 
ATOM      6  C   UNL     1       1.154   9.475  19.190  0.00  0.00    +0.000 A 
ENDROOT
BRANCH   3   7
ATOM      7  S   UNL     1       3.218   5.394  19.128  0.00  0.00    +0.000 S 
ATOM      8  O   UNL     1       2.667   4.645  20.236  0.00  0.00    +0.000 OA
ATOM      9  O   UNL     1       3.124   4.911  17.770  0.00  0.00    +0.000 OA
BRANCH   7  10
ATOM     10  N   UNL     1       4.815   5.765  19.564  0.00  0.00    +0.000 N 
ATOM     11  C   UNL     1       5.689   5.572  18.474  0.00  0.00    +0.000 A 
ATOM     12  N   UNL     1       6.372   4.459  18.398  0.00  0.00    +0.000 NA
ATOM     13  C   UNL     1       7.103   4.471  17.224  0.00  0.00    +0.000 A 
ATOM     14  C   UNL     1       7.050   5.645  16.501  0.00  0.00    +0.000 A 
ATOM     15  S   UNL     1       6.005   6.757  17.286  0.00  0.00    +0.000 S 
ATOM     16  H   UNL     1       5.060   5.082  20.285  0.00  0.00    +0.000 HD
ENDBRANCH   7  10
ENDBRANCH   3   7
BRANCH   1  18
ATOM     17  N   UNL     1      -0.026   9.238  22.574  0.00  0.00    +0.000 NA
ATOM     18  C   UNL     1       0.510   9.024  21.565  0.00  0.00    +0.000 C 
ENDBRANCH   1  18
BRANCH   6  19
ATOM     19  O   UNL     1       0.530  10.691  19.036  0.00  0.00    +0.000 OA
BRANCH  19  20
ATOM     20  C   UNL     1       1.216  11.889  19.091  0.00  0.00    +0.000 A 
ATOM     21  C   UNL     1       2.269  12.195  18.215  0.00  0.00    +0.000 A 
ATOM     22  C   UNL     1       3.057  13.325  18.427  0.00  0.00    +0.000 A 
ATOM     23  C   UNL     1       2.749  14.190  19.468  0.00  0.00    +0.000 A 
ATOM     24 CL   UNL     1       3.743  15.562  19.759  0.00  0.00    +0.000 Cl
ATOM     25  C   UNL     1       1.623  13.962  20.260  0.00  0.00    +0.000 A 
ATOM     26  C   UNL     1       0.807  12.821  20.079  0.00  0.00    +0.000 A 
BRANCH  26  27
ATOM     27  C   UNL     1      -0.425  12.678  20.902  0.00  0.00    +0.000 A 
ATOM     28  C   UNL     1      -1.716  12.680  20.367  0.00  0.00    +0.000 A 
ATOM     29  C   UNL     1      -2.818  12.600  21.216  0.00  0.00    +0.000 A 
ATOM     30  C   UNL     1      -2.619  12.550  22.587  0.00  0.00    +0.000 A 
ATOM     31  C   UNL     1      -1.317  12.578  23.051  0.00  0.00    +0.000 A 
ATOM     32  N   UNL     1      -0.231  12.638  22.247  0.00  0.00    +0.000 NA
ENDBRANCH  26  27
ENDBRANCH  19  20
ENDBRANCH   6  19
TORSDOF 6
ENDMDL
MODEL 8
REMARK VINA RESULT:      -7.9      3.705      8.448
REMARK  Name = 
REMARK  6 active torsions:
REMARK  status: ('A' for Active; 'I' for Inactive)
REMARK    1  A    between atoms: C_2  and  C_3
REMARK    2  A    between atoms: C_5  and  S_6
REMARK    3  A    between atoms: S_6  and  N_9
REMARK    4  A    between atoms: C_17  and  O_18
REMARK    5  A    between atoms: O_18  and  C_19
REMARK    6  A    between atoms: C_25  and  C_26
REMARK                            x       y       z     vdW  Elec       q    Type
REMARK                         _______ _______ _______ _____ _____    ______ ____
ROOT
ATOM      1  C   UNL     1       1.061   9.195  20.724  0.00  0.00    +0.000 A 
ATOM      2  C   UNL     1       0.141  10.163  20.298  0.00  0.00    +0.000 A 
ATOM      3  C   UNL     1      -0.075  10.374  18.936  0.00  0.00    +0.000 A 
ATOM      4  C   UNL     1       0.633   9.639  17.986  0.00  0.00    +0.000 A 
ATOM      5  C   UNL     1       1.509   8.638  18.408  0.00  0.00    +0.000 A 
ATOM      6  C   UNL     1       1.701   8.381  19.775  0.00  0.00    +0.000 A 
ENDROOT
BRANCH   3   7
ATOM      7  S   UNL     1      -1.136  11.700  18.416  0.00  0.00    +0.000 S 
ATOM      8  O   UNL     1      -1.875  11.229  17.264  0.00  0.00    +0.000 OA
ATOM      9  O   UNL     1      -1.810  12.188  19.597  0.00  0.00    +0.000 OA
BRANCH   7  10
ATOM     10  N   UNL     1      -0.007  12.816  17.819  0.00  0.00    +0.000 N 
ATOM     11  C   UNL     1       0.266  13.815  18.778  0.00  0.00    +0.000 A 
ATOM     12  N   UNL     1      -0.349  14.965  18.687  0.00  0.00    +0.000 NA
ATOM     13  C   UNL     1       0.027  15.751  19.761  0.00  0.00    +0.000 A 
ATOM     14  C   UNL     1       1.010  15.221  20.572  0.00  0.00    +0.000 A 
ATOM     15  S   UNL     1       1.443  13.660  20.004  0.00  0.00    +0.000 S 
ATOM     16  H   UNL     1      -0.468  13.265  17.024  0.00  0.00    +0.000 HD
ENDBRANCH   7  10
ENDBRANCH   3   7
BRANCH   1  18
ATOM     17  N   UNL     1       1.521   9.139  23.276  0.00  0.00    +0.000 NA
ATOM     18  C   UNL     1       1.316   9.126  22.131  0.00  0.00    +0.000 C 
ENDBRANCH   1  18
BRANCH   6  19
ATOM     19  O   UNL     1       2.617   7.384  20.021  0.00  0.00    +0.000 OA
BRANCH  19  20
ATOM     20  C   UNL     1       2.320   6.046  19.853  0.00  0.00    +0.000 A 
ATOM     21  C   UNL     1       1.121   5.477  20.309  0.00  0.00    +0.000 A 
ATOM     22  C   UNL     1       0.945   4.094  20.294  0.00  0.00    +0.000 A 
ATOM     23  C   UNL     1       1.934   3.284  19.754  0.00  0.00    +0.000 A 
ATOM     24 CL   UNL     1       1.740   1.575  19.771  0.00  0.00    +0.000 Cl
ATOM     25  C   UNL     1       3.070   3.852  19.178  0.00  0.00    +0.000 A 
ATOM     26  C   UNL     1       3.286   5.250  19.185  0.00  0.00    +0.000 A 
BRANCH  26  27
ATOM     27  C   UNL     1       4.477   5.799  18.482  0.00  0.00    +0.000 A 
ATOM     28  C   UNL     1       4.410   6.477  17.262  0.00  0.00    +0.000 A 
ATOM     29  C   UNL     1       5.582   6.908  16.642  0.00  0.00    +0.000 A 
ATOM     30  C   UNL     1       6.805   6.629  17.232  0.00  0.00    +0.000 A 
ATOM     31  C   UNL     1       6.801   5.933  18.426  0.00  0.00    +0.000 A 
ATOM     32  N   UNL     1       5.678   5.519  19.055  0.00  0.00    +0.000 NA
ENDBRANCH  26  27
ENDBRANCH  19  20
ENDBRANCH   6  19
TORSDOF 6
ENDMDL
MODEL 9
REMARK VINA RESULT:      -7.9      3.916      8.954
REMARK  Name = 
REMARK  6 active torsions:
REMARK  status: ('A' for Active; 'I' for Inactive)
REMARK    1  A    between atoms: C_2  and  C_3
REMARK    2  A    between atoms: C_5  and  S_6
REMARK    3  A    between atoms: S_6  and  N_9
REMARK    4  A    between atoms: C_17  and  O_18
REMARK    5  A    between atoms: O_18  and  C_19
REMARK    6  A    between atoms: C_25  and  C_26
REMARK                            x       y       z     vdW  Elec       q    Type
REMARK                         _______ _______ _______ _____ _____    ______ ____
ROOT
ATOM      1  C   UNL     1       2.604   6.559  19.490  0.00  0.00    +0.000 A 
ATOM      2  C   UNL     1       1.631   7.566  19.411  0.00  0.00    +0.000 A 
ATOM      3  C   UNL     1       1.803   8.641  18.538  0.00  0.00    +0.000 A 
ATOM      4  C   UNL     1       2.949   8.735  17.750  0.00  0.00    +0.000 A 
ATOM      5  C   UNL     1       3.892   7.707  17.787  0.00  0.00    +0.000 A 
ATOM      6  C   UNL     1       3.710   6.595  18.625  0.00  0.00    +0.000 A 
ENDROOT
BRANCH   3   7
ATOM      7  S   UNL     1       0.632   9.976  18.556  0.00  0.00    +0.000 S 
ATOM      8  O   UNL     1       1.381  11.204  18.395  0.00  0.00    +0.000 OA
ATOM      9  O   UNL     1      -0.432   9.616  17.647  0.00  0.00    +0.000 OA
BRANCH   7  10
ATOM     10  N   UNL     1       0.122   9.951  20.174  0.00  0.00    +0.000 N 
ATOM     11  C   UNL     1      -0.153  11.257  20.633  0.00  0.00    +0.000 A 
ATOM     12  N   UNL     1       0.757  11.890  21.327  0.00  0.00    +0.000 NA
ATOM     13  C   UNL     1       0.290  13.161  21.608  0.00  0.00    +0.000 A 
ATOM     14  C   UNL     1      -1.010  13.417  21.224  0.00  0.00    +0.000 A 
ATOM     15  S   UNL     1      -1.657  12.038  20.434  0.00  0.00    +0.000 S 
ATOM     16  H   UNL     1       0.924   9.599  20.702  0.00  0.00    +0.000 HD
ENDBRANCH   7  10
ENDBRANCH   3   7
BRANCH   1  18
ATOM     17  N   UNL     1       2.326   4.748  21.324  0.00  0.00    +0.000 NA
ATOM     18  C   UNL     1       2.413   5.559  20.497  0.00  0.00    +0.000 C 
ENDBRANCH   1  18
BRANCH   6  19
ATOM     19  O   UNL     1       4.743   5.689  18.564  0.00  0.00    +0.000 OA
BRANCH  19  20
ATOM     20  C   UNL     1       5.194   5.157  17.372  0.00  0.00    +0.000 A 
ATOM     21  C   UNL     1       6.335   5.643  16.714  0.00  0.00    +0.000 A 
ATOM     22  C   UNL     1       6.643   5.212  15.425  0.00  0.00    +0.000 A 
ATOM     23  C   UNL     1       5.858   4.240  14.821  0.00  0.00    +0.000 A 
ATOM     24 CL   UNL     1       6.211   3.736  13.215  0.00  0.00    +0.000 Cl
ATOM     25  C   UNL     1       4.802   3.657  15.521  0.00  0.00    +0.000 A 
ATOM     26  C   UNL     1       4.455   4.077  16.826  0.00  0.00    +0.000 A 
BRANCH  26  27
ATOM     27  C   UNL     1       3.371   3.358  17.549  0.00  0.00    +0.000 A 
ATOM     28  C   UNL     1       2.018   3.690  17.442  0.00  0.00    +0.000 A 
ATOM     29  C   UNL     1       1.072   3.002  18.201  0.00  0.00    +0.000 A 
ATOM     30  C   UNL     1       1.493   2.015  19.079  0.00  0.00    +0.000 A 
ATOM     31  C   UNL     1       2.848   1.753  19.155  0.00  0.00    +0.000 A 
ATOM     32  N   UNL     1       3.782   2.395  18.417  0.00  0.00    +0.000 NA
ENDBRANCH  26  27
ENDBRANCH  19  20
ENDBRANCH   6  19
TORSDOF 6
ENDMDL
