MODEL 1
REMARK VINA RESULT:      -7.9      0.000      0.000
REMARK  Name = 
REMARK  3 active torsions:
REMARK  status: ('A' for Active; 'I' for Inactive)
REMARK    1  A    between atoms: C_2  and  C_3
REMARK    2  A    between atoms: C_13  and  C_14
REMARK    3  A    between atoms: C_14  and  N_15
REMARK                            x       y       z     vdW  Elec       q    Type
REMARK                         _______ _______ _______ _____ _____    ______ ____
ROOT
ATOM      1  O   UNL     1       7.831   5.383  13.268  0.00  0.00    +0.000 OA
ATOM      2  C   UNL     1       6.866   4.713  13.636  0.00  0.00    +0.000 C 
ATOM      3  N   UNL     1       6.365   4.858  14.909  0.00  0.00    +0.000 N 
ATOM      4  C   UNL     1       6.599   6.049  15.750  0.00  0.00    +0.000 C 
ATOM      5  C   UNL     1       5.305   6.401  16.515  0.00  0.00    +0.000 C 
ATOM      6  N   UNL     1       4.611   5.193  16.945  0.00  0.00    +0.000 N 
ATOM      7  C   UNL     1       3.421   5.079  17.613  0.00  0.00    +0.000 A 
ATOM      8  C   UNL     1       3.141   3.723  17.610  0.00  0.00    +0.000 A 
ATOM      9  N   UNL     1       4.148   3.025  16.998  0.00  0.00    +0.000 NA
ATOM     10  C   UNL     1       4.985   3.927  16.561  0.00  0.00    +0.000 A 
ATOM     11  C   UNL     1       6.137   3.664  15.682  0.00  0.00    +0.000 C 
ENDROOT
BRANCH   2  12
ATOM     12  C   UNL     1       6.164   3.804  12.738  0.00  0.00    +0.000 A 
ATOM     13  C   UNL     1       4.850   3.870  12.308  0.00  0.00    +0.000 A 
ATOM     14  C   UNL     1       4.595   2.758  11.469  0.00  0.00    +0.000 A 
ATOM     15  C   UNL     1       5.744   2.006  11.434  0.00  0.00    +0.000 A 
ATOM     16  N   UNL     1       6.682   2.632  12.214  0.00  0.00    +0.000 N 
ATOM     17  H   UNL     1       7.619   2.278  12.378  0.00  0.00    +0.000 HD
ENDBRANCH   2  12
BRANCH   8  18
ATOM     18  C   UNL     1       1.968   2.948  18.082  0.00  0.00    +0.000 C 
BRANCH  18  19
ATOM     19  N   UNL     1       1.942   2.900  19.539  0.00  0.00    +0.000 N 
ATOM     20  C   UNL     1       0.888   3.194  20.367  0.00  0.00    +0.000 A 
ATOM     21  C   UNL     1       1.339   2.998  21.649  0.00  0.00    +0.000 A 
ATOM     22  C   UNL     1       2.662   2.548  21.493  0.00  0.00    +0.000 A 
ATOM     23  N   UNL     1       3.033   2.478  20.214  0.00  0.00    +0.000 NA
ENDBRANCH  18  19
ENDBRANCH   8  18
TORSDOF 3
ENDMDL
MODEL 2
REMARK VINA RESULT:      -7.4      6.413      8.532
REMARK  Name = 
REMARK  3 active torsions:
REMARK  status: ('A' for Active; 'I' for Inactive)
REMARK    1  A    between atoms: C_2  and  C_3
REMARK    2  A    between atoms: C_13  and  C_14
REMARK    3  A    between atoms: C_14  and  N_15
REMARK                            x       y       z     vdW  Elec       q    Type
REMARK                         _______ _______ _______ _____ _____    ______ ____
ROOT
ATOM      1  O   UNL     1      -2.025  12.144  19.950  0.00  0.00    +0.000 OA
ATOM      2  C   UNL     1      -1.495  11.302  19.224  0.00  0.00    +0.000 C 
ATOM      3  N   UNL     1      -0.359  10.646  19.638  0.00  0.00    +0.000 N 
ATOM      4  C   UNL     1       0.055  10.537  21.051  0.00  0.00    +0.000 C 
ATOM      5  C   UNL     1       0.613   9.122  21.317  0.00  0.00    +0.000 C 
ATOM      6  N   UNL     1       1.388   8.648  20.176  0.00  0.00    +0.000 N 
ATOM      7  C   UNL     1       2.012   7.441  20.005  0.00  0.00    +0.000 A 
ATOM      8  C   UNL     1       2.441   7.446  18.689  0.00  0.00    +0.000 A 
ATOM      9  N   UNL     1       2.130   8.636  18.086  0.00  0.00    +0.000 NA
ATOM     10  C   UNL     1       1.454   9.314  18.975  0.00  0.00    +0.000 A 
ATOM     11  C   UNL     1       0.753  10.584  18.724  0.00  0.00    +0.000 C 
ENDROOT
BRANCH   2  12
ATOM     12  C   UNL     1      -2.072  10.905  17.946  0.00  0.00    +0.000 A 
ATOM     13  C   UNL     1      -2.675   9.703  17.616  0.00  0.00    +0.000 A 
ATOM     14  C   UNL     1      -3.060   9.753  16.254  0.00  0.00    +0.000 A 
ATOM     15  C   UNL     1      -2.646  10.966  15.761  0.00  0.00    +0.000 A 
ATOM     16  N   UNL     1      -2.037  11.651  16.781  0.00  0.00    +0.000 N 
ATOM     17  H   UNL     1      -1.622  12.572  16.685  0.00  0.00    +0.000 HD
ENDBRANCH   2  12
BRANCH   8  18
ATOM     18  C   UNL     1       3.097   6.414  17.851  0.00  0.00    +0.000 C 
BRANCH  18  19
ATOM     19  N   UNL     1       2.618   5.085  18.212  0.00  0.00    +0.000 N 
ATOM     20  C   UNL     1       1.505   4.439  17.735  0.00  0.00    +0.000 A 
ATOM     21  C   UNL     1       1.473   3.216  18.360  0.00  0.00    +0.000 A 
ATOM     22  C   UNL     1       2.627   3.199  19.164  0.00  0.00    +0.000 A 
ATOM     23  N   UNL     1       3.332   4.328  19.073  0.00  0.00    +0.000 NA
ENDBRANCH  18  19
ENDBRANCH   8  18
TORSDOF 3
ENDMDL
MODEL 3
REMARK VINA RESULT:      -7.2      6.385      8.731
REMARK  Name = 
REMARK  3 active torsions:
REMARK  status: ('A' for Active; 'I' for Inactive)
REMARK    1  A    between atoms: C_2  and  C_3
REMARK    2  A    between atoms: C_13  and  C_14
REMARK    3  A    between atoms: C_14  and  N_15
REMARK                            x       y       z     vdW  Elec       q    Type
REMARK                         _______ _______ _______ _____ _____    ______ ____
ROOT
ATOM      1  O   UNL     1      -1.631  12.450  19.736  0.00  0.00    +0.000 OA
ATOM      2  C   UNL     1      -1.225  11.490  19.080  0.00  0.00    +0.000 C 
ATOM      3  N   UNL     1      -0.125  10.777  19.501  0.00  0.00    +0.000 N 
ATOM      4  C   UNL     1       0.368  10.781  20.892  0.00  0.00    +0.000 C 
ATOM      5  C   UNL     1       0.817   9.356  21.283  0.00  0.00    +0.000 C 
ATOM      6  N   UNL     1       1.472   8.693  20.161  0.00  0.00    +0.000 N 
ATOM      7  C   UNL     1       1.976   7.422  20.092  0.00  0.00    +0.000 A 
ATOM      8  C   UNL     1       2.318   7.248  18.761  0.00  0.00    +0.000 A 
ATOM      9  N   UNL     1       2.072   8.391  18.047  0.00  0.00    +0.000 NA
ATOM     10  C   UNL     1       1.517   9.219  18.891  0.00  0.00    +0.000 A 
ATOM     11  C   UNL     1       0.914  10.516  18.539  0.00  0.00    +0.000 C 
ENDROOT
BRANCH   2  12
ATOM     12  C   UNL     1      -1.917  11.015  17.888  0.00  0.00    +0.000 A 
ATOM     13  C   UNL     1      -2.532   9.791  17.686  0.00  0.00    +0.000 A 
ATOM     14  C   UNL     1      -3.046   9.760  16.366  0.00  0.00    +0.000 A 
ATOM     15  C   UNL     1      -2.698  10.946  15.768  0.00  0.00    +0.000 A 
ATOM     16  N   UNL     1      -2.003  11.693  16.685  0.00  0.00    +0.000 N 
ATOM     17  H   UNL     1      -1.611  12.610  16.497  0.00  0.00    +0.000 HD
ENDBRANCH   2  12
BRANCH   8  18
ATOM     18  C   UNL     1       2.825   6.075  18.008  0.00  0.00    +0.000 C 
BRANCH  18  19
ATOM     19  N   UNL     1       4.269   5.954  18.165  0.00  0.00    +0.000 N 
ATOM     20  C   UNL     1       5.246   6.521  17.386  0.00  0.00    +0.000 A 
ATOM     21  C   UNL     1       6.446   6.128  17.927  0.00  0.00    +0.000 A 
ATOM     22  C   UNL     1       6.093   5.361  19.050  0.00  0.00    +0.000 A 
ATOM     23  N   UNL     1       4.772   5.256  19.207  0.00  0.00    +0.000 NA
ENDBRANCH  18  19
ENDBRANCH   8  18
TORSDOF 3
ENDMDL
MODEL 4
REMARK VINA RESULT:      -7.2      0.883      1.058
REMARK  Name = 
REMARK  3 active torsions:
REMARK  status: ('A' for Active; 'I' for Inactive)
REMARK    1  A    between atoms: C_2  and  C_3
REMARK    2  A    between atoms: C_13  and  C_14
REMARK    3  A    between atoms: C_14  and  N_15
REMARK                            x       y       z     vdW  Elec       q    Type
REMARK                         _______ _______ _______ _____ _____    ______ ____
ROOT
ATOM      1  O   UNL     1       8.188   5.393  13.861  0.00  0.00    +0.000 OA
ATOM      2  C   UNL     1       7.107   4.870  14.133  0.00  0.00    +0.000 C 
ATOM      3  N   UNL     1       6.513   5.100  15.353  0.00  0.00    +0.000 N 
ATOM      4  C   UNL     1       6.832   6.256  16.214  0.00  0.00    +0.000 C 
ATOM      5  C   UNL     1       5.534   6.797  16.851  0.00  0.00    +0.000 C 
ATOM      6  N   UNL     1       4.638   5.704  17.212  0.00  0.00    +0.000 N 
ATOM      7  C   UNL     1       3.387   5.767  17.763  0.00  0.00    +0.000 A 
ATOM      8  C   UNL     1       2.919   4.464  17.731  0.00  0.00    +0.000 A 
ATOM      9  N   UNL     1       3.871   3.624  17.218  0.00  0.00    +0.000 NA
ATOM     10  C   UNL     1       4.865   4.393  16.864  0.00  0.00    +0.000 A 
ATOM     11  C   UNL     1       6.047   3.960  16.099  0.00  0.00    +0.000 C 
ENDROOT
BRANCH   2  12
ATOM     12  C   UNL     1       6.373   4.058  13.171  0.00  0.00    +0.000 A 
ATOM     13  C   UNL     1       6.881   3.227  12.187  0.00  0.00    +0.000 A 
ATOM     14  C   UNL     1       5.797   2.663  11.471  0.00  0.00    +0.000 A 
ATOM     15  C   UNL     1       4.645   3.192  12.000  0.00  0.00    +0.000 A 
ATOM     16  N   UNL     1       4.998   4.045  13.014  0.00  0.00    +0.000 N 
ATOM     17  H   UNL     1       4.338   4.586  13.563  0.00  0.00    +0.000 HD
ENDBRANCH   2  12
BRANCH   8  18
ATOM     18  C   UNL     1       1.609   3.867  18.088  0.00  0.00    +0.000 C 
BRANCH  18  19
ATOM     19  N   UNL     1       1.604   3.447  19.484  0.00  0.00    +0.000 N 
ATOM     20  C   UNL     1       1.324   4.213  20.587  0.00  0.00    +0.000 A 
ATOM     21  C   UNL     1       1.440   3.379  21.673  0.00  0.00    +0.000 A 
ATOM     22  C   UNL     1       1.753   2.124  21.124  0.00  0.00    +0.000 A 
ATOM     23  N   UNL     1       1.847   2.154  19.793  0.00  0.00    +0.000 NA
ENDBRANCH  18  19
ENDBRANCH   8  18
TORSDOF 3
ENDMDL
MODEL 5
REMARK VINA RESULT:      -7.0      4.662      6.658
REMARK  Name = 
REMARK  3 active torsions:
REMARK  status: ('A' for Active; 'I' for Inactive)
REMARK    1  A    between atoms: C_2  and  C_3
REMARK    2  A    between atoms: C_13  and  C_14
REMARK    3  A    between atoms: C_14  and  N_15
REMARK                            x       y       z     vdW  Elec       q    Type
REMARK                         _______ _______ _______ _____ _____    ______ ____
ROOT
ATOM      1  O   UNL     1       4.731   2.629  19.712  0.00  0.00    +0.000 OA
ATOM      2  C   UNL     1       4.705   3.770  19.249  0.00  0.00    +0.000 C 
ATOM      3  N   UNL     1       3.576   4.546  19.380  0.00  0.00    +0.000 N 
ATOM      4  C   UNL     1       2.533   4.309  20.398  0.00  0.00    +0.000 C 
ATOM      5  C   UNL     1       2.046   5.661  20.962  0.00  0.00    +0.000 C 
ATOM      6  N   UNL     1       1.978   6.668  19.908  0.00  0.00    +0.000 N 
ATOM      7  C   UNL     1       1.630   7.988  20.006  0.00  0.00    +0.000 A 
ATOM      8  C   UNL     1       1.905   8.521  18.758  0.00  0.00    +0.000 A 
ATOM      9  N   UNL     1       2.364   7.548  17.910  0.00  0.00    +0.000 NA
ATOM     10  C   UNL     1       2.452   6.464  18.634  0.00  0.00    +0.000 A 
ATOM     11  C   UNL     1       3.068   5.199  18.201  0.00  0.00    +0.000 C 
ENDROOT
BRANCH   2  12
ATOM     12  C   UNL     1       5.869   4.379  18.617  0.00  0.00    +0.000 A 
ATOM     13  C   UNL     1       6.616   5.457  19.059  0.00  0.00    +0.000 A 
ATOM     14  C   UNL     1       7.634   5.717  18.109  0.00  0.00    +0.000 A 
ATOM     15  C   UNL     1       7.465   4.823  17.080  0.00  0.00    +0.000 A 
ATOM     16  N   UNL     1       6.389   4.028  17.384  0.00  0.00    +0.000 N 
ATOM     17  H   UNL     1       6.033   3.293  16.783  0.00  0.00    +0.000 HD
ENDBRANCH   2  12
BRANCH   8  18
ATOM     18  C   UNL     1       1.842   9.905  18.229  0.00  0.00    +0.000 C 
BRANCH  18  19
ATOM     19  N   UNL     1       0.518  10.474  18.446  0.00  0.00    +0.000 N 
ATOM     20  C   UNL     1      -0.678  10.024  17.945  0.00  0.00    +0.000 A 
ATOM     21  C   UNL     1      -1.642  10.876  18.428  0.00  0.00    +0.000 A 
ATOM     22  C   UNL     1      -0.938  11.781  19.242  0.00  0.00    +0.000 A 
ATOM     23  N   UNL     1       0.374  11.539  19.264  0.00  0.00    +0.000 NA
ENDBRANCH  18  19
ENDBRANCH   8  18
TORSDOF 3
ENDMDL
MODEL 6
REMARK VINA RESULT:      -6.7      4.474      6.331
REMARK  Name = 
REMARK  3 active torsions:
REMARK  status: ('A' for Active; 'I' for Inactive)
REMARK    1  A    between atoms: C_2  and  C_3
REMARK    2  A    between atoms: C_13  and  C_14
REMARK    3  A    between atoms: C_14  and  N_15
REMARK                            x       y       z     vdW  Elec       q    Type
REMARK                         _______ _______ _______ _____ _____    ______ ____
ROOT
ATOM      1  O   UNL     1       4.135   2.128  18.895  0.00  0.00    +0.000 OA
ATOM      2  C   UNL     1       4.187   3.295  18.508  0.00  0.00    +0.000 C 
ATOM      3  N   UNL     1       3.212   4.193  18.878  0.00  0.00    +0.000 N 
ATOM      4  C   UNL     1       2.329   4.007  20.047  0.00  0.00    +0.000 C 
ATOM      5  C   UNL     1       2.131   5.361  20.762  0.00  0.00    +0.000 C 
ATOM      6  N   UNL     1       2.027   6.448  19.796  0.00  0.00    +0.000 N 
ATOM      7  C   UNL     1       1.882   7.790  20.027  0.00  0.00    +0.000 A 
ATOM      8  C   UNL     1       2.016   8.381  18.782  0.00  0.00    +0.000 A 
ATOM      9  N   UNL     1       2.192   7.428  17.813  0.00  0.00    +0.000 NA
ATOM     10  C   UNL     1       2.250   6.289  18.448  0.00  0.00    +0.000 A 
ATOM     11  C   UNL     1       2.609   4.994  17.844  0.00  0.00    +0.000 C 
ENDROOT
BRANCH   2  12
ATOM     12  C   UNL     1       5.302   3.803  17.718  0.00  0.00    +0.000 A 
ATOM     13  C   UNL     1       5.408   3.883  16.340  0.00  0.00    +0.000 A 
ATOM     14  C   UNL     1       6.681   4.415  16.018  0.00  0.00    +0.000 A 
ATOM     15  C   UNL     1       7.349   4.610  17.202  0.00  0.00    +0.000 A 
ATOM     16  N   UNL     1       6.520   4.224  18.223  0.00  0.00    +0.000 N 
ATOM     17  H   UNL     1       6.772   4.247  19.206  0.00  0.00    +0.000 HD
ENDBRANCH   2  12
BRANCH   8  18
ATOM     18  C   UNL     1       2.055   9.799  18.351  0.00  0.00    +0.000 C 
BRANCH  18  19
ATOM     19  N   UNL     1       0.830  10.486  18.745  0.00  0.00    +0.000 N 
ATOM     20  C   UNL     1       0.705  11.541  19.612  0.00  0.00    +0.000 A 
ATOM     21  C   UNL     1      -0.634  11.844  19.658  0.00  0.00    +0.000 A 
ATOM     22  C   UNL     1      -1.231  10.946  18.757  0.00  0.00    +0.000 A 
ATOM     23  N   UNL     1      -0.347  10.122  18.191  0.00  0.00    +0.000 NA
ENDBRANCH  18  19
ENDBRANCH   8  18
TORSDOF 3
ENDMDL
MODEL 7
REMARK VINA RESULT:      -6.6      4.773      6.793
REMARK  Name = 
REMARK  3 active torsions:
REMARK  status: ('A' for Active; 'I' for Inactive)
REMARK    1  A    between atoms: C_2  and  C_3
REMARK    2  A    between atoms: C_13  and  C_14
REMARK    3  A    between atoms: C_14  and  N_15
REMARK                            x       y       z     vdW  Elec       q    Type
REMARK                         _______ _______ _______ _____ _____    ______ ____
ROOT
ATOM      1  O   UNL     1       4.848   2.819  19.691  0.00  0.00    +0.000 OA
ATOM      2  C   UNL     1       4.799   3.978  19.277  0.00  0.00    +0.000 C 
ATOM      3  N   UNL     1       3.632   4.700  19.370  0.00  0.00    +0.000 N 
ATOM      4  C   UNL     1       2.540   4.373  20.309  0.00  0.00    +0.000 C 
ATOM      5  C   UNL     1       1.962   5.677  20.900  0.00  0.00    +0.000 C 
ATOM      6  N   UNL     1       1.913   6.728  19.888  0.00  0.00    +0.000 N 
ATOM      7  C   UNL     1       1.502   8.027  20.021  0.00  0.00    +0.000 A 
ATOM      8  C   UNL     1       1.828   8.627  18.816  0.00  0.00    +0.000 A 
ATOM      9  N   UNL     1       2.380   7.713  17.958  0.00  0.00    +0.000 NA
ATOM     10  C   UNL     1       2.472   6.602  18.638  0.00  0.00    +0.000 A 
ATOM     11  C   UNL     1       3.168   5.384  18.191  0.00  0.00    +0.000 C 
ENDROOT
BRANCH   2  12
ATOM     12  C   UNL     1       5.972   4.663  18.746  0.00  0.00    +0.000 A 
ATOM     13  C   UNL     1       6.480   4.617  17.459  0.00  0.00    +0.000 A 
ATOM     14  C   UNL     1       7.648   5.415  17.409  0.00  0.00    +0.000 A 
ATOM     15  C   UNL     1       7.862   5.900  18.676  0.00  0.00    +0.000 A 
ATOM     16  N   UNL     1       6.857   5.430  19.483  0.00  0.00    +0.000 N 
ATOM     17  H   UNL     1       6.783   5.622  20.476  0.00  0.00    +0.000 HD
ENDBRANCH   2  12
BRANCH   8  18
ATOM     18  C   UNL     1       1.737  10.030  18.345  0.00  0.00    +0.000 C 
BRANCH  18  19
ATOM     19  N   UNL     1       0.436  10.596  18.681  0.00  0.00    +0.000 N 
ATOM     20  C   UNL     1       0.166  11.590  19.587  0.00  0.00    +0.000 A 
ATOM     21  C   UNL     1      -1.193  11.786  19.549  0.00  0.00    +0.000 A 
ATOM     22  C   UNL     1      -1.651  10.895  18.563  0.00  0.00    +0.000 A 
ATOM     23  N   UNL     1      -0.666  10.173  18.025  0.00  0.00    +0.000 NA
ENDBRANCH  18  19
ENDBRANCH   8  18
TORSDOF 3
ENDMDL
MODEL 8
REMARK VINA RESULT:      -6.6      6.132      8.306
REMARK  Name = 
REMARK  3 active torsions:
REMARK  status: ('A' for Active; 'I' for Inactive)
REMARK    1  A    between atoms: C_2  and  C_3
REMARK    2  A    between atoms: C_13  and  C_14
REMARK    3  A    between atoms: C_14  and  N_15
REMARK                            x       y       z     vdW  Elec       q    Type
REMARK                         _______ _______ _______ _____ _____    ______ ____
ROOT
ATOM      1  O   UNL     1      -1.310  12.021  20.363  0.00  0.00    +0.000 OA
ATOM      2  C   UNL     1      -0.930  11.142  19.589  0.00  0.00    +0.000 C 
ATOM      3  N   UNL     1       0.148  10.351  19.913  0.00  0.00    +0.000 N 
ATOM      4  C   UNL     1       0.640  10.161  21.292  0.00  0.00    +0.000 C 
ATOM      5  C   UNL     1       1.047   8.686  21.496  0.00  0.00    +0.000 C 
ATOM      6  N   UNL     1       1.685   8.154  20.296  0.00  0.00    +0.000 N 
ATOM      7  C   UNL     1       2.153   6.889  20.064  0.00  0.00    +0.000 A 
ATOM      8  C   UNL     1       2.491   6.877  18.721  0.00  0.00    +0.000 A 
ATOM      9  N   UNL     1       2.280   8.109  18.161  0.00  0.00    +0.000 NA
ATOM     10  C   UNL     1       1.747   8.837  19.105  0.00  0.00    +0.000 A 
ATOM     11  C   UNL     1       1.182  10.185  18.924  0.00  0.00    +0.000 C 
ENDROOT
BRANCH   2  12
ATOM     12  C   UNL     1      -1.633  10.844  18.347  0.00  0.00    +0.000 A 
ATOM     13  C   UNL     1      -1.935  11.706  17.307  0.00  0.00    +0.000 A 
ATOM     14  C   UNL     1      -2.653  10.985  16.321  0.00  0.00    +0.000 A 
ATOM     15  C   UNL     1      -2.818   9.706  16.795  0.00  0.00    +0.000 A 
ATOM     16  N   UNL     1      -2.215   9.631  18.024  0.00  0.00    +0.000 N 
ATOM     17  H   UNL     1      -2.203   8.800  18.606  0.00  0.00    +0.000 HD
ENDBRANCH   2  12
BRANCH   8  18
ATOM     18  C   UNL     1       2.966   5.797  17.823  0.00  0.00    +0.000 C 
BRANCH  18  19
ATOM     19  N   UNL     1       2.538   4.495  18.321  0.00  0.00    +0.000 N 
ATOM     20  C   UNL     1       1.332   3.875  18.113  0.00  0.00    +0.000 A 
ATOM     21  C   UNL     1       1.400   2.671  18.770  0.00  0.00    +0.000 A 
ATOM     22  C   UNL     1       2.697   2.636  19.310  0.00  0.00    +0.000 A 
ATOM     23  N   UNL     1       3.398   3.737  19.035  0.00  0.00    +0.000 NA
ENDBRANCH  18  19
ENDBRANCH   8  18
TORSDOF 3
ENDMDL
MODEL 9
REMARK VINA RESULT:      -6.6      4.462      6.345
REMARK  Name = 
REMARK  3 active torsions:
REMARK  status: ('A' for Active; 'I' for Inactive)
REMARK    1  A    between atoms: C_2  and  C_3
REMARK    2  A    between atoms: C_13  and  C_14
REMARK    3  A    between atoms: C_14  and  N_15
REMARK                            x       y       z     vdW  Elec       q    Type
REMARK                         _______ _______ _______ _____ _____    ______ ____
ROOT
ATOM      1  O   UNL     1       5.042   3.664  16.652  0.00  0.00    +0.000 OA
ATOM      2  C   UNL     1       4.931   4.607  17.435  0.00  0.00    +0.000 C 
ATOM      3  N   UNL     1       3.697   4.947  17.941  0.00  0.00    +0.000 N 
ATOM      4  C   UNL     1       2.543   4.027  17.973  0.00  0.00    +0.000 C 
ATOM      5  C   UNL     1       1.782   4.203  19.305  0.00  0.00    +0.000 C 
ATOM      6  N   UNL     1       1.747   5.606  19.701  0.00  0.00    +0.000 N 
ATOM      7  C   UNL     1       1.203   6.166  20.826  0.00  0.00    +0.000 A 
ATOM      8  C   UNL     1       1.604   7.491  20.792  0.00  0.00    +0.000 A 
ATOM      9  N   UNL     1       2.332   7.744  19.660  0.00  0.00    +0.000 NA
ATOM     10  C   UNL     1       2.451   6.594  19.054  0.00  0.00    +0.000 A 
ATOM     11  C   UNL     1       3.305   6.332  17.883  0.00  0.00    +0.000 C 
ENDROOT
BRANCH   2  12
ATOM     12  C   UNL     1       6.085   5.352  17.923  0.00  0.00    +0.000 A 
ATOM     13  C   UNL     1       6.744   6.406  17.313  0.00  0.00    +0.000 A 
ATOM     14  C   UNL     1       7.826   6.797  18.138  0.00  0.00    +0.000 A 
ATOM     15  C   UNL     1       7.839   5.948  19.217  0.00  0.00    +0.000 A 
ATOM     16  N   UNL     1       6.797   5.068  19.075  0.00  0.00    +0.000 N 
ATOM     17  H   UNL     1       6.587   4.319  19.726  0.00  0.00    +0.000 HD
ENDBRANCH   2  12
BRANCH   8  18
ATOM     18  C   UNL     1       1.433   8.608  21.752  0.00  0.00    +0.000 C 
BRANCH  18  19
ATOM     19  N   UNL     1       0.724   9.717  21.124  0.00  0.00    +0.000 N 
ATOM     20  C   UNL     1      -0.343   9.647  20.264  0.00  0.00    +0.000 A 
ATOM     21  C   UNL     1      -0.666  10.944  19.947  0.00  0.00    +0.000 A 
ATOM     22  C   UNL     1       0.234  11.725  20.693  0.00  0.00    +0.000 A 
ATOM     23  N   UNL     1       1.077  10.987  21.416  0.00  0.00    +0.000 NA
ENDBRANCH  18  19
ENDBRANCH   8  18
TORSDOF 3
ENDMDL
