MODEL 1
REMARK VINA RESULT:      -6.5      0.000      0.000
REMARK  Name = 
REMARK  7 active torsions:
REMARK  status: ('A' for Active; 'I' for Inactive)
REMARK    1  A    between atoms: C_2  and  C_3
REMARK    2  A    between atoms: C_3  and  C_4
REMARK    3  A    between atoms: C_4  and  C_5
REMARK    4  A    between atoms: C_5  and  O_6
REMARK    5  A    between atoms: O_6  and  C_7
REMARK    6  A    between atoms: N_14  and  C_15
REMARK    7  A    between atoms: C_15  and  C_16
REMARK                            x       y       z     vdW  Elec       q    Type
REMARK                         _______ _______ _______ _____ _____    ______ ____
ROOT
ATOM      1  C   UNL     1       1.612   2.618  19.727  0.00  0.00    +0.000 C 
ENDROOT
BRANCH   1   3
ATOM      2  O   UNL     1       3.964   2.073  19.601  0.00  0.00    +0.000 OA
ATOM      3  C   UNL     1       3.000   2.661  19.115  0.00  0.00    +0.000 C 
ATOM      4  N   UNL     1       3.090   3.430  17.979  0.00  0.00    +0.000 N 
ATOM      5  H   UNL     1       2.257   3.831  17.564  0.00  0.00    +0.000 HD
BRANCH   4   6
ATOM      6  C   UNL     1       4.332   3.563  17.224  0.00  0.00    +0.000 C 
BRANCH   6   7
ATOM      7  C   UNL     1       5.192   4.752  17.671  0.00  0.00    +0.000 C 
ATOM      8  C   UNL     1       5.786   5.584  16.542  0.00  0.00    +0.000 C 
ATOM      9  C   UNL     1       7.087   6.060  17.140  0.00  0.00    +0.000 C 
ATOM     10  C   UNL     1       7.500   4.871  17.976  0.00  0.00    +0.000 C 
ATOM     11  O   UNL     1       6.292   4.288  18.483  0.00  0.00    +0.000 OA
ENDBRANCH   6   7
ENDBRANCH   4   6
ENDBRANCH   1   3
BRANCH   1  12
ATOM     12  C   UNL     1       1.101   4.017  20.078  0.00  0.00    +0.000 C 
BRANCH  12  13
ATOM     13  C   UNL     1       2.126   4.804  20.887  0.00  0.00    +0.000 C 
BRANCH  13  14
ATOM     14  O   UNL     1       2.865   5.660  20.011  0.00  0.00    +0.000 OA
BRANCH  14  15
ATOM     15  C   UNL     1       2.311   6.888  19.753  0.00  0.00    +0.000 A 
ATOM     16  C   UNL     1       1.609   7.666  20.676  0.00  0.00    +0.000 A 
ATOM     17  C   UNL     1       1.088   8.908  20.303  0.00  0.00    +0.000 A 
ATOM     18  C   UNL     1       1.268   9.374  19.004  0.00  0.00    +0.000 A 
ATOM     19 CL   UNL     1       0.625  10.904  18.553  0.00  0.00    +0.000 Cl
ATOM     20  C   UNL     1       1.965   8.607  18.072  0.00  0.00    +0.000 A 
ATOM     21  C   UNL     1       2.486   7.364  18.448  0.00  0.00    +0.000 A 
ENDBRANCH  14  15
ENDBRANCH  13  14
ENDBRANCH  12  13
ENDBRANCH   1  12
TORSDOF 7
ENDMDL
MODEL 2
REMARK VINA RESULT:      -6.4      3.963      6.922
REMARK  Name = 
REMARK  7 active torsions:
REMARK  status: ('A' for Active; 'I' for Inactive)
REMARK    1  A    between atoms: C_2  and  C_3
REMARK    2  A    between atoms: C_3  and  C_4
REMARK    3  A    between atoms: C_4  and  C_5
REMARK    4  A    between atoms: C_5  and  O_6
REMARK    5  A    between atoms: O_6  and  C_7
REMARK    6  A    between atoms: N_14  and  C_15
REMARK    7  A    between atoms: C_15  and  C_16
REMARK                            x       y       z     vdW  Elec       q    Type
REMARK                         _______ _______ _______ _____ _____    ______ ____
ROOT
ATOM      1  C   UNL     1       5.565   6.007  18.008  0.00  0.00    +0.000 C 
ENDROOT
BRANCH   1   3
ATOM      2  O   UNL     1       6.360   4.803  19.948  0.00  0.00    +0.000 OA
ATOM      3  C   UNL     1       5.563   4.871  19.016  0.00  0.00    +0.000 C 
ATOM      4  N   UNL     1       4.601   3.916  18.784  0.00  0.00    +0.000 N 
ATOM      5  H   UNL     1       3.911   4.050  18.055  0.00  0.00    +0.000 HD
BRANCH   4   6
ATOM      6  C   UNL     1       4.415   2.768  19.666  0.00  0.00    +0.000 C 
BRANCH   6   7
ATOM      7  C   UNL     1       3.007   2.164  19.590  0.00  0.00    +0.000 C 
ATOM      8  C   UNL     1       2.279   2.382  18.269  0.00  0.00    +0.000 C 
ATOM      9  C   UNL     1       0.836   2.459  18.704  0.00  0.00    +0.000 C 
ATOM     10  C   UNL     1       0.948   3.163  20.037  0.00  0.00    +0.000 C 
ATOM     11  O   UNL     1       2.174   2.719  20.632  0.00  0.00    +0.000 OA
ENDBRANCH   6   7
ENDBRANCH   4   6
ENDBRANCH   1   3
BRANCH   1  12
ATOM     12  C   UNL     1       6.985   6.387  17.582  0.00  0.00    +0.000 C 
BRANCH  12  13
ATOM     13  C   UNL     1       7.596   5.337  16.660  0.00  0.00    +0.000 C 
BRANCH  13  14
ATOM     14  O   UNL     1       7.550   5.808  15.310  0.00  0.00    +0.000 OA
BRANCH  14  15
ATOM     15  C   UNL     1       6.880   5.015  14.414  0.00  0.00    +0.000 A 
ATOM     16  C   UNL     1       5.631   4.429  14.631  0.00  0.00    +0.000 A 
ATOM     17  C   UNL     1       5.039   3.638  13.643  0.00  0.00    +0.000 A 
ATOM     18  C   UNL     1       5.696   3.431  12.434  0.00  0.00    +0.000 A 
ATOM     19 CL   UNL     1       4.959   2.459  11.221  0.00  0.00    +0.000 Cl
ATOM     20  C   UNL     1       6.943   4.009  12.204  0.00  0.00    +0.000 A 
ATOM     21  C   UNL     1       7.534   4.800  13.195  0.00  0.00    +0.000 A 
ENDBRANCH  14  15
ENDBRANCH  13  14
ENDBRANCH  12  13
ENDBRANCH   1  12
TORSDOF 7
ENDMDL
MODEL 3
REMARK VINA RESULT:      -6.4      1.294      3.878
REMARK  Name = 
REMARK  7 active torsions:
REMARK  status: ('A' for Active; 'I' for Inactive)
REMARK    1  A    between atoms: C_2  and  C_3
REMARK    2  A    between atoms: C_3  and  C_4
REMARK    3  A    between atoms: C_4  and  C_5
REMARK    4  A    between atoms: C_5  and  O_6
REMARK    5  A    between atoms: O_6  and  C_7
REMARK    6  A    between atoms: N_14  and  C_15
REMARK    7  A    between atoms: C_15  and  C_16
REMARK                            x       y       z     vdW  Elec       q    Type
REMARK                         _______ _______ _______ _____ _____    ______ ____
ROOT
ATOM      1  C   UNL     1       5.289   4.906  16.935  0.00  0.00    +0.000 C 
ENDROOT
BRANCH   1   3
ATOM      2  O   UNL     1       5.736   3.956  19.112  0.00  0.00    +0.000 OA
ATOM      3  C   UNL     1       5.065   3.939  18.083  0.00  0.00    +0.000 C 
ATOM      4  N   UNL     1       4.056   3.030  17.863  0.00  0.00    +0.000 N 
ATOM      5  H   UNL     1       3.473   3.101  17.039  0.00  0.00    +0.000 HD
BRANCH   4   6
ATOM      6  C   UNL     1       3.664   2.044  18.866  0.00  0.00    +0.000 C 
BRANCH   6   7
ATOM      7  C   UNL     1       2.338   2.379  19.562  0.00  0.00    +0.000 C 
ATOM      8  C   UNL     1       1.699   3.696  19.140  0.00  0.00    +0.000 C 
ATOM      9  C   UNL     1       1.001   4.136  20.403  0.00  0.00    +0.000 C 
ATOM     10  C   UNL     1       1.958   3.661  21.472  0.00  0.00    +0.000 C 
ATOM     11  O   UNL     1       2.532   2.438  20.992  0.00  0.00    +0.000 OA
ENDBRANCH   6   7
ENDBRANCH   4   6
ENDBRANCH   1   3
BRANCH   1  12
ATOM     12  C   UNL     1       5.387   6.354  17.420  0.00  0.00    +0.000 C 
BRANCH  12  13
ATOM     13  C   UNL     1       4.098   7.124  17.157  0.00  0.00    +0.000 C 
BRANCH  13  14
ATOM     14  O   UNL     1       3.095   6.701  18.085  0.00  0.00    +0.000 OA
BRANCH  14  15
ATOM     15  C   UNL     1       2.291   7.687  18.600  0.00  0.00    +0.000 A 
ATOM     16  C   UNL     1       1.710   8.721  17.862  0.00  0.00    +0.000 A 
ATOM     17  C   UNL     1       0.902   9.672  18.491  0.00  0.00    +0.000 A 
ATOM     18  C   UNL     1       0.675   9.591  19.862  0.00  0.00    +0.000 A 
ATOM     19 CL   UNL     1      -0.322  10.764  20.629  0.00  0.00    +0.000 Cl
ATOM     20  C   UNL     1       1.249   8.565  20.610  0.00  0.00    +0.000 A 
ATOM     21  C   UNL     1       2.057   7.614  19.978  0.00  0.00    +0.000 A 
ENDBRANCH  14  15
ENDBRANCH  13  14
ENDBRANCH  12  13
ENDBRANCH   1  12
TORSDOF 7
ENDMDL
MODEL 4
REMARK VINA RESULT:      -6.3      1.404      2.100
REMARK  Name = 
REMARK  7 active torsions:
REMARK  status: ('A' for Active; 'I' for Inactive)
REMARK    1  A    between atoms: C_2  and  C_3
REMARK    2  A    between atoms: C_3  and  C_4
REMARK    3  A    between atoms: C_4  and  C_5
REMARK    4  A    between atoms: C_5  and  O_6
REMARK    5  A    between atoms: O_6  and  C_7
REMARK    6  A    between atoms: N_14  and  C_15
REMARK    7  A    between atoms: C_15  and  C_16
REMARK                            x       y       z     vdW  Elec       q    Type
REMARK                         _______ _______ _______ _____ _____    ______ ____
ROOT
ATOM      1  C   UNL     1       2.622   4.783  17.818  0.00  0.00    +0.000 C 
ENDROOT
BRANCH   1   3
ATOM      2  O   UNL     1       4.232   3.008  18.135  0.00  0.00    +0.000 OA
ATOM      3  C   UNL     1       3.939   4.066  17.583  0.00  0.00    +0.000 C 
ATOM      4  N   UNL     1       4.784   4.714  16.713  0.00  0.00    +0.000 N 
ATOM      5  H   UNL     1       4.474   5.540  16.217  0.00  0.00    +0.000 HD
BRANCH   4   6
ATOM      6  C   UNL     1       6.080   4.161  16.330  0.00  0.00    +0.000 C 
BRANCH   6   7
ATOM      7  C   UNL     1       7.267   4.894  16.969  0.00  0.00    +0.000 C 
ATOM      8  C   UNL     1       7.169   5.096  18.476  0.00  0.00    +0.000 C 
ATOM      9  C   UNL     1       7.901   6.400  18.677  0.00  0.00    +0.000 C 
ATOM     10  C   UNL     1       7.524   7.165  17.430  0.00  0.00    +0.000 C 
ATOM     11  O   UNL     1       7.420   6.201  16.374  0.00  0.00    +0.000 OA
ENDBRANCH   6   7
ENDBRANCH   4   6
ENDBRANCH   1   3
BRANCH   1  12
ATOM     12  C   UNL     1       1.946   4.324  19.112  0.00  0.00    +0.000 C 
BRANCH  12  13
ATOM     13  C   UNL     1       2.108   5.351  20.227  0.00  0.00    +0.000 C 
BRANCH  13  14
ATOM     14  O   UNL     1       2.863   6.464  19.741  0.00  0.00    +0.000 OA
BRANCH  14  15
ATOM     15  C   UNL     1       2.159   7.618  19.506  0.00  0.00    +0.000 A 
ATOM     16  C   UNL     1       2.106   8.297  18.287  0.00  0.00    +0.000 A 
ATOM     17  C   UNL     1       1.352   9.467  18.160  0.00  0.00    +0.000 A 
ATOM     18  C   UNL     1       0.649   9.961  19.255  0.00  0.00    +0.000 A 
ATOM     19 CL   UNL     1      -0.279  11.399  19.091  0.00  0.00    +0.000 Cl
ATOM     20  C   UNL     1       0.694   9.294  20.478  0.00  0.00    +0.000 A 
ATOM     21  C   UNL     1       1.450   8.123  20.602  0.00  0.00    +0.000 A 
ENDBRANCH  14  15
ENDBRANCH  13  14
ENDBRANCH  12  13
ENDBRANCH   1  12
TORSDOF 7
ENDMDL
MODEL 5
REMARK VINA RESULT:      -6.3      3.651      6.820
REMARK  Name = 
REMARK  7 active torsions:
REMARK  status: ('A' for Active; 'I' for Inactive)
REMARK    1  A    between atoms: C_2  and  C_3
REMARK    2  A    between atoms: C_3  and  C_4
REMARK    3  A    between atoms: C_4  and  C_5
REMARK    4  A    between atoms: C_5  and  O_6
REMARK    5  A    between atoms: O_6  and  C_7
REMARK    6  A    between atoms: N_14  and  C_15
REMARK    7  A    between atoms: C_15  and  C_16
REMARK                            x       y       z     vdW  Elec       q    Type
REMARK                         _______ _______ _______ _____ _____    ______ ____
ROOT
ATOM      1  C   UNL     1       6.180   4.635  18.660  0.00  0.00    +0.000 C 
ENDROOT
BRANCH   1   3
ATOM      2  O   UNL     1       4.515   3.292  17.534  0.00  0.00    +0.000 OA
ATOM      3  C   UNL     1       4.786   4.320  18.150  0.00  0.00    +0.000 C 
ATOM      4  N   UNL     1       3.855   5.295  18.420  0.00  0.00    +0.000 N 
ATOM      5  H   UNL     1       4.098   6.089  19.001  0.00  0.00    +0.000 HD
BRANCH   4   6
ATOM      6  C   UNL     1       2.451   5.158  18.045  0.00  0.00    +0.000 C 
BRANCH   6   7
ATOM      7  C   UNL     1       1.586   4.528  19.145  0.00  0.00    +0.000 C 
ATOM      8  C   UNL     1       2.117   4.696  20.563  0.00  0.00    +0.000 C 
ATOM      9  C   UNL     1       1.638   3.436  21.240  0.00  0.00    +0.000 C 
ATOM     10  C   UNL     1       1.753   2.420  20.126  0.00  0.00    +0.000 C 
ATOM     11  O   UNL     1       1.442   3.111  18.909  0.00  0.00    +0.000 OA
ENDBRANCH   6   7
ENDBRANCH   4   6
ENDBRANCH   1   3
BRANCH   1  12
ATOM     12  C   UNL     1       7.198   4.719  17.521  0.00  0.00    +0.000 C 
BRANCH  12  13
ATOM     13  C   UNL     1       6.954   5.937  16.636  0.00  0.00    +0.000 C 
BRANCH  13  14
ATOM     14  O   UNL     1       7.590   5.739  15.371  0.00  0.00    +0.000 OA
BRANCH  14  15
ATOM     15  C   UNL     1       6.900   4.983  14.457  0.00  0.00    +0.000 A 
ATOM     16  C   UNL     1       5.627   4.444  14.653  0.00  0.00    +0.000 A 
ATOM     17  C   UNL     1       5.016   3.688  13.648  0.00  0.00    +0.000 A 
ATOM     18  C   UNL     1       5.679   3.470  12.444  0.00  0.00    +0.000 A 
ATOM     19 CL   UNL     1       4.919   2.542  11.212  0.00  0.00    +0.000 Cl
ATOM     20  C   UNL     1       6.950   4.001  12.236  0.00  0.00    +0.000 A 
ATOM     21  C   UNL     1       7.560   4.757  13.243  0.00  0.00    +0.000 A 
ENDBRANCH  14  15
ENDBRANCH  13  14
ENDBRANCH  12  13
ENDBRANCH   1  12
TORSDOF 7
ENDMDL
MODEL 6
REMARK VINA RESULT:      -6.3      1.646      3.823
REMARK  Name = 
REMARK  7 active torsions:
REMARK  status: ('A' for Active; 'I' for Inactive)
REMARK    1  A    between atoms: C_2  and  C_3
REMARK    2  A    between atoms: C_3  and  C_4
REMARK    3  A    between atoms: C_4  and  C_5
REMARK    4  A    between atoms: C_5  and  O_6
REMARK    5  A    between atoms: O_6  and  C_7
REMARK    6  A    between atoms: N_14  and  C_15
REMARK    7  A    between atoms: C_15  and  C_16
REMARK                            x       y       z     vdW  Elec       q    Type
REMARK                         _______ _______ _______ _____ _____    ______ ____
ROOT
ATOM      1  C   UNL     1       4.773   5.476  16.727  0.00  0.00    +0.000 C 
ENDROOT
BRANCH   1   3
ATOM      2  O   UNL     1       5.486   4.183  18.640  0.00  0.00    +0.000 OA
ATOM      3  C   UNL     1       4.717   4.305  17.690  0.00  0.00    +0.000 C 
ATOM      4  N   UNL     1       3.742   3.381  17.395  0.00  0.00    +0.000 N 
ATOM      5  H   UNL     1       3.076   3.558  16.653  0.00  0.00    +0.000 HD
BRANCH   4   6
ATOM      6  C   UNL     1       3.505   2.205  18.227  0.00  0.00    +0.000 C 
BRANCH   6   7
ATOM      7  C   UNL     1       2.419   2.420  19.290  0.00  0.00    +0.000 C 
ATOM      8  C   UNL     1       1.330   3.416  18.911  0.00  0.00    +0.000 C 
ATOM      9  C   UNL     1       0.957   4.010  20.247  0.00  0.00    +0.000 C 
ATOM     10  C   UNL     1       2.289   4.043  20.958  0.00  0.00    +0.000 C 
ATOM     11  O   UNL     1       3.017   2.888  20.519  0.00  0.00    +0.000 OA
ENDBRANCH   6   7
ENDBRANCH   4   6
ENDBRANCH   1   3
BRANCH   1  12
ATOM     12  C   UNL     1       4.384   6.791  17.406  0.00  0.00    +0.000 C 
BRANCH  12  13
ATOM     13  C   UNL     1       2.988   6.718  18.017  0.00  0.00    +0.000 C 
BRANCH  13  14
ATOM     14  O   UNL     1       2.376   8.009  17.957  0.00  0.00    +0.000 OA
BRANCH  14  15
ATOM     15  C   UNL     1       1.738   8.431  19.096  0.00  0.00    +0.000 A 
ATOM     16  C   UNL     1       1.780   7.781  20.332  0.00  0.00    +0.000 A 
ATOM     17  C   UNL     1       1.091   8.303  21.430  0.00  0.00    +0.000 A 
ATOM     18  C   UNL     1       0.357   9.478  21.293  0.00  0.00    +0.000 A 
ATOM     19 CL   UNL     1      -0.486  10.116  22.650  0.00  0.00    +0.000 Cl
ATOM     20  C   UNL     1       0.306  10.136  20.066  0.00  0.00    +0.000 A 
ATOM     21  C   UNL     1       0.996   9.611  18.968  0.00  0.00    +0.000 A 
ENDBRANCH  14  15
ENDBRANCH  13  14
ENDBRANCH  12  13
ENDBRANCH   1  12
TORSDOF 7
ENDMDL
MODEL 7
REMARK VINA RESULT:      -6.3      2.343      4.321
REMARK  Name = 
REMARK  7 active torsions:
REMARK  status: ('A' for Active; 'I' for Inactive)
REMARK    1  A    between atoms: C_2  and  C_3
REMARK    2  A    between atoms: C_3  and  C_4
REMARK    3  A    between atoms: C_4  and  C_5
REMARK    4  A    between atoms: C_5  and  O_6
REMARK    5  A    between atoms: O_6  and  C_7
REMARK    6  A    between atoms: N_14  and  C_15
REMARK    7  A    between atoms: C_15  and  C_16
REMARK                            x       y       z     vdW  Elec       q    Type
REMARK                         _______ _______ _______ _____ _____    ______ ____
ROOT
ATOM      1  C   UNL     1       3.688   6.853  18.190  0.00  0.00    +0.000 C 
ENDROOT
BRANCH   1   3
ATOM      2  O   UNL     1       4.042   4.668  17.219  0.00  0.00    +0.000 OA
ATOM      3  C   UNL     1       3.293   5.436  17.817  0.00  0.00    +0.000 C 
ATOM      4  N   UNL     1       2.014   5.092  18.190  0.00  0.00    +0.000 N 
ATOM      5  H   UNL     1       1.458   5.724  18.753  0.00  0.00    +0.000 HD
BRANCH   4   6
ATOM      6  C   UNL     1       1.465   3.761  17.954  0.00  0.00    +0.000 C 
BRANCH   6   7
ATOM      7  C   UNL     1       1.406   2.894  19.219  0.00  0.00    +0.000 C 
ATOM      8  C   UNL     1       0.965   3.621  20.483  0.00  0.00    +0.000 C 
ATOM      9  C   UNL     1       1.727   2.889  21.560  0.00  0.00    +0.000 C 
ATOM     10  C   UNL     1       3.028   2.571  20.862  0.00  0.00    +0.000 C 
ATOM     11  O   UNL     1       2.706   2.323  19.488  0.00  0.00    +0.000 OA
ENDBRANCH   6   7
ENDBRANCH   4   6
ENDBRANCH   1   3
BRANCH   1  12
ATOM     12  C   UNL     1       2.908   7.893  17.384  0.00  0.00    +0.000 C 
BRANCH  12  13
ATOM     13  C   UNL     1       2.091   8.810  18.288  0.00  0.00    +0.000 C 
BRANCH  13  14
ATOM     14  O   UNL     1       1.856   8.156  19.538  0.00  0.00    +0.000 OA
BRANCH  14  15
ATOM     15  C   UNL     1       1.115   8.854  20.458  0.00  0.00    +0.000 A 
ATOM     16  C   UNL     1       1.195   8.699  21.843  0.00  0.00    +0.000 A 
ATOM     17  C   UNL     1       0.392   9.468  22.689  0.00  0.00    +0.000 A 
ATOM     18  C   UNL     1      -0.495  10.394  22.150  0.00  0.00    +0.000 A 
ATOM     19 CL   UNL     1      -1.479  11.339  23.198  0.00  0.00    +0.000 Cl
ATOM     20  C   UNL     1      -0.587  10.559  20.769  0.00  0.00    +0.000 A 
ATOM     21  C   UNL     1       0.218   9.787  19.924  0.00  0.00    +0.000 A 
ENDBRANCH  14  15
ENDBRANCH  13  14
ENDBRANCH  12  13
ENDBRANCH   1  12
TORSDOF 7
ENDMDL
MODEL 8
REMARK VINA RESULT:      -6.2      1.178      3.510
REMARK  Name = 
REMARK  7 active torsions:
REMARK  status: ('A' for Active; 'I' for Inactive)
REMARK    1  A    between atoms: C_2  and  C_3
REMARK    2  A    between atoms: C_3  and  C_4
REMARK    3  A    between atoms: C_4  and  C_5
REMARK    4  A    between atoms: C_5  and  O_6
REMARK    5  A    between atoms: O_6  and  C_7
REMARK    6  A    between atoms: N_14  and  C_15
REMARK    7  A    between atoms: C_15  and  C_16
REMARK                            x       y       z     vdW  Elec       q    Type
REMARK                         _______ _______ _______ _____ _____    ______ ____
ROOT
ATOM      1  C   UNL     1       5.444   4.744  17.348  0.00  0.00    +0.000 C 
ENDROOT
BRANCH   1   3
ATOM      2  O   UNL     1       5.516   3.668  19.511  0.00  0.00    +0.000 OA
ATOM      3  C   UNL     1       5.054   3.695  18.373  0.00  0.00    +0.000 C 
ATOM      4  N   UNL     1       4.153   2.765  17.910  0.00  0.00    +0.000 N 
ATOM      5  H   UNL     1       3.734   2.868  16.995  0.00  0.00    +0.000 HD
BRANCH   4   6
ATOM      6  C   UNL     1       3.628   1.700  18.760  0.00  0.00    +0.000 C 
BRANCH   6   7
ATOM      7  C   UNL     1       2.341   2.089  19.498  0.00  0.00    +0.000 C 
ATOM      8  C   UNL     1       1.506   3.169  18.820  0.00  0.00    +0.000 C 
ATOM      9  C   UNL     1       0.878   3.878  19.995  0.00  0.00    +0.000 C 
ATOM     10  C   UNL     1       1.981   3.813  21.025  0.00  0.00    +0.000 C 
ATOM     11  O   UNL     1       2.657   2.565  20.824  0.00  0.00    +0.000 OA
ENDBRANCH   6   7
ENDBRANCH   4   6
ENDBRANCH   1   3
BRANCH   1  12
ATOM     12  C   UNL     1       4.767   6.089  17.624  0.00  0.00    +0.000 C 
BRANCH  12  13
ATOM     13  C   UNL     1       3.308   5.912  18.031  0.00  0.00    +0.000 C 
BRANCH  13  14
ATOM     14  O   UNL     1       3.097   6.508  19.313  0.00  0.00    +0.000 OA
BRANCH  14  15
ATOM     15  C   UNL     1       2.350   7.658  19.332  0.00  0.00    +0.000 A 
ATOM     16  C   UNL     1       1.580   8.102  20.409  0.00  0.00    +0.000 A 
ATOM     17  C   UNL     1       0.858   9.296  20.318  0.00  0.00    +0.000 A 
ATOM     18  C   UNL     1       0.906  10.048  19.148  0.00  0.00    +0.000 A 
ATOM     19 CL   UNL     1       0.018  11.517  19.045  0.00  0.00    +0.000 Cl
ATOM     20  C   UNL     1       1.670   9.616  18.066  0.00  0.00    +0.000 A 
ATOM     21  C   UNL     1       2.392   8.421  18.159  0.00  0.00    +0.000 A 
ENDBRANCH  14  15
ENDBRANCH  13  14
ENDBRANCH  12  13
ENDBRANCH   1  12
TORSDOF 7
ENDMDL
MODEL 9
REMARK VINA RESULT:      -6.2      3.864      6.647
REMARK  Name = 
REMARK  7 active torsions:
REMARK  status: ('A' for Active; 'I' for Inactive)
REMARK    1  A    between atoms: C_2  and  C_3
REMARK    2  A    between atoms: C_3  and  C_4
REMARK    3  A    between atoms: C_4  and  C_5
REMARK    4  A    between atoms: C_5  and  O_6
REMARK    5  A    between atoms: O_6  and  C_7
REMARK    6  A    between atoms: N_14  and  C_15
REMARK    7  A    between atoms: C_15  and  C_16
REMARK                            x       y       z     vdW  Elec       q    Type
REMARK                         _______ _______ _______ _____ _____    ______ ____
ROOT
ATOM      1  C   UNL     1       7.246   5.161  18.600  0.00  0.00    +0.000 C 
ENDROOT
BRANCH   1   3
ATOM      2  O   UNL     1       5.168   5.673  19.725  0.00  0.00    +0.000 OA
ATOM      3  C   UNL     1       5.921   4.821  19.259  0.00  0.00    +0.000 C 
ATOM      4  N   UNL     1       5.646   3.475  19.306  0.00  0.00    +0.000 N 
ATOM      5  H   UNL     1       6.251   2.811  18.839  0.00  0.00    +0.000 HD
BRANCH   4   6
ATOM      6  C   UNL     1       4.402   2.953  19.865  0.00  0.00    +0.000 C 
BRANCH   6   7
ATOM      7  C   UNL     1       3.269   2.850  18.837  0.00  0.00    +0.000 C 
ATOM      8  C   UNL     1       3.699   2.985  17.382  0.00  0.00    +0.000 C 
ATOM      9  C   UNL     1       2.494   3.635  16.747  0.00  0.00    +0.000 C 
ATOM     10  C   UNL     1       2.014   4.549  17.850  0.00  0.00    +0.000 C 
ATOM     11  O   UNL     1       2.281   3.874  19.086  0.00  0.00    +0.000 OA
ENDBRANCH   6   7
ENDBRANCH   4   6
ENDBRANCH   1   3
BRANCH   1  12
ATOM     12  C   UNL     1       7.192   6.507  17.875  0.00  0.00    +0.000 C 
BRANCH  12  13
ATOM     13  C   UNL     1       6.432   6.407  16.556  0.00  0.00    +0.000 C 
BRANCH  13  14
ATOM     14  O   UNL     1       7.317   5.941  15.533  0.00  0.00    +0.000 OA
BRANCH  14  15
ATOM     15  C   UNL     1       6.769   5.108  14.591  0.00  0.00    +0.000 A 
ATOM     16  C   UNL     1       5.522   4.487  14.691  0.00  0.00    +0.000 A 
ATOM     17  C   UNL     1       5.061   3.657  13.665  0.00  0.00    +0.000 A 
ATOM     18  C   UNL     1       5.848   3.447  12.537  0.00  0.00    +0.000 A 
ATOM     19 CL   UNL     1       5.272   2.426  11.277  0.00  0.00    +0.000 Cl
ATOM     20  C   UNL     1       7.095   4.059  12.424  0.00  0.00    +0.000 A 
ATOM     21  C   UNL     1       7.554   4.890  13.453  0.00  0.00    +0.000 A 
ENDBRANCH  14  15
ENDBRANCH  13  14
ENDBRANCH  12  13
ENDBRANCH   1  12
TORSDOF 7
ENDMDL
