MODEL 1
REMARK VINA RESULT:      -8.1      0.000      0.000
REMARK  Name = 
REMARK  7 active torsions:
REMARK  status: ('A' for Active; 'I' for Inactive)
REMARK    1  A    between atoms: C_1  and  C_2
REMARK    2  A    between atoms: C_3  and  N_4
REMARK    3  A    between atoms: N_4  and  S_5
REMARK    4  A    between atoms: S_5  and  C_8
REMARK    5  A    between atoms: C_12  and  N_13
REMARK    6  A    between atoms: N_19  and  C_20
REMARK    7  A    between atoms: N_26  and  C_27
REMARK                            x       y       z     vdW  Elec       q    Type
REMARK                         _______ _______ _______ _____ _____    ______ ____
ROOT
ATOM      1  C   UNL     1       6.176   5.429  19.461  0.00  0.00    +0.000 C 
ATOM      2  C   UNL     1       5.751   5.564  18.032  0.00  0.00    +0.000 A 
ATOM      3  C   UNL     1       4.880   6.435  17.495  0.00  0.00    +0.000 A 
ATOM      4  C   UNL     1       5.160   6.468  16.027  0.00  0.00    +0.000 A 
ATOM      5  O   UNL     1       4.577   7.221  15.263  0.00  0.00    +0.000 OA
ATOM      6  N   UNL     1       6.122   5.484  15.803  0.00  0.00    +0.000 N 
ATOM      7  N   UNL     1       6.410   4.827  17.029  0.00  0.00    +0.000 N 
ATOM      8  C   UNL     1       7.772   4.315  17.223  0.00  0.00    +0.000 C 
ENDROOT
BRANCH   6   9
ATOM      9  C   UNL     1       6.465   4.944  14.550  0.00  0.00    +0.000 A 
ATOM     10  C   UNL     1       5.693   3.919  13.989  0.00  0.00    +0.000 A 
ATOM     11  C   UNL     1       5.958   3.470  12.691  0.00  0.00    +0.000 A 
ATOM     12  C   UNL     1       7.020   4.010  11.966  0.00  0.00    +0.000 A 
ATOM     13  C   UNL     1       7.823   4.995  12.537  0.00  0.00    +0.000 A 
ATOM     14  C   UNL     1       7.540   5.464  13.819  0.00  0.00    +0.000 A 
ENDBRANCH   6   9
BRANCH   3  15
ATOM     15  N   UNL     1       4.150   7.428  18.178  0.00  0.00    +0.000 N 
ATOM     16  H   UNL     1       4.222   8.354  17.750  0.00  0.00    +0.000 HD
BRANCH  15  17
ATOM     17  S   UNL     1       2.558   7.109  18.623  0.00  0.00    +0.000 S 
ATOM     18  O   UNL     1       2.284   7.642  19.938  0.00  0.00    +0.000 OA
ATOM     19  O   UNL     1       1.750   7.508  17.489  0.00  0.00    +0.000 OA
BRANCH  17  20
ATOM     20  C   UNL     1       2.398   5.332  18.750  0.00  0.00    +0.000 A 
ATOM     21  C   UNL     1       1.778   4.626  17.708  0.00  0.00    +0.000 A 
ATOM     22  C   UNL     1       1.408   3.290  17.888  0.00  0.00    +0.000 A 
ATOM     23  C   UNL     1       1.641   2.657  19.110  0.00  0.00    +0.000 A 
ATOM     24  C   UNL     1       2.257   3.366  20.151  0.00  0.00    +0.000 A 
ATOM     25  C   UNL     1       2.640   4.707  19.980  0.00  0.00    +0.000 A 
BRANCH  24  26
ATOM     26  N   UNL     1       2.451   2.708  21.452  0.00  0.00    +0.000 N 
ATOM     27  O   UNL     1       3.555   2.198  21.687  0.00  0.00    +0.000 OA
ATOM     28  O   UNL     1       1.493   2.708  22.241  0.00  0.00    +0.000 OA
ENDBRANCH  24  26
ENDBRANCH  17  20
ENDBRANCH  15  17
ENDBRANCH   3  15
TORSDOF 5
ENDMDL
MODEL 2
REMARK VINA RESULT:      -8.0      0.140      1.113
REMARK  Name = 
REMARK  7 active torsions:
REMARK  status: ('A' for Active; 'I' for Inactive)
REMARK    1  A    between atoms: C_1  and  C_2
REMARK    2  A    between atoms: C_3  and  N_4
REMARK    3  A    between atoms: N_4  and  S_5
REMARK    4  A    between atoms: S_5  and  C_8
REMARK    5  A    between atoms: C_12  and  N_13
REMARK    6  A    between atoms: N_19  and  C_20
REMARK    7  A    between atoms: N_26  and  C_27
REMARK                            x       y       z     vdW  Elec       q    Type
REMARK                         _______ _______ _______ _____ _____    ______ ____
ROOT
ATOM      1  C   UNL     1       6.153   5.350  19.435  0.00  0.00    +0.000 C 
ATOM      2  C   UNL     1       5.703   5.537  18.019  0.00  0.00    +0.000 A 
ATOM      3  C   UNL     1       4.831   6.434  17.527  0.00  0.00    +0.000 A 
ATOM      4  C   UNL     1       5.085   6.513  16.056  0.00  0.00    +0.000 A 
ATOM      5  O   UNL     1       4.496   7.297  15.328  0.00  0.00    +0.000 OA
ATOM      6  N   UNL     1       6.034   5.529  15.782  0.00  0.00    +0.000 N 
ATOM      7  N   UNL     1       6.337   4.829  16.980  0.00  0.00    +0.000 N 
ATOM      8  C   UNL     1       7.698   4.299  17.132  0.00  0.00    +0.000 C 
ENDROOT
BRANCH   6   9
ATOM      9  C   UNL     1       6.350   5.029  14.506  0.00  0.00    +0.000 A 
ATOM     10  C   UNL     1       7.477   5.502  13.822  0.00  0.00    +0.000 A 
ATOM     11  C   UNL     1       7.861   4.916  12.612  0.00  0.00    +0.000 A 
ATOM     12  C   UNL     1       7.099   3.888  12.058  0.00  0.00    +0.000 A 
ATOM     13  C   UNL     1       5.949   3.446  12.707  0.00  0.00    +0.000 A 
ATOM     14  C   UNL     1       5.582   4.009  13.929  0.00  0.00    +0.000 A 
ENDBRANCH   6   9
BRANCH   3  15
ATOM     15  N   UNL     1       4.123   7.409  18.256  0.00  0.00    +0.000 N 
ATOM     16  H   UNL     1       4.217   8.353  17.873  0.00  0.00    +0.000 HD
BRANCH  15  17
ATOM     17  S   UNL     1       2.522   7.106  18.683  0.00  0.00    +0.000 S 
ATOM     18  O   UNL     1       2.237   7.652  19.990  0.00  0.00    +0.000 OA
ATOM     19  O   UNL     1       1.732   7.502  17.536  0.00  0.00    +0.000 OA
BRANCH  17  20
ATOM     20  C   UNL     1       2.347   5.332  18.822  0.00  0.00    +0.000 A 
ATOM     21  C   UNL     1       1.796   4.614  17.750  0.00  0.00    +0.000 A 
ATOM     22  C   UNL     1       1.409   3.281  17.923  0.00  0.00    +0.000 A 
ATOM     23  C   UNL     1       1.556   2.664  19.166  0.00  0.00    +0.000 A 
ATOM     24  C   UNL     1       2.104   3.385  20.236  0.00  0.00    +0.000 A 
ATOM     25  C   UNL     1       2.503   4.722  20.074  0.00  0.00    +0.000 A 
BRANCH  24  26
ATOM     26  N   UNL     1       2.207   2.744  21.556  0.00  0.00    +0.000 N 
ATOM     27  O   UNL     1       1.192   2.702  22.263  0.00  0.00    +0.000 OA
ATOM     28  O   UNL     1       3.311   2.277  21.879  0.00  0.00    +0.000 OA
ENDBRANCH  24  26
ENDBRANCH  17  20
ENDBRANCH  15  17
ENDBRANCH   3  15
TORSDOF 5
ENDMDL
MODEL 3
REMARK VINA RESULT:      -7.4      3.205      7.542
REMARK  Name = 
REMARK  7 active torsions:
REMARK  status: ('A' for Active; 'I' for Inactive)
REMARK    1  A    between atoms: C_1  and  C_2
REMARK    2  A    between atoms: C_3  and  N_4
REMARK    3  A    between atoms: N_4  and  S_5
REMARK    4  A    between atoms: S_5  and  C_8
REMARK    5  A    between atoms: C_12  and  N_13
REMARK    6  A    between atoms: N_19  and  C_20
REMARK    7  A    between atoms: N_26  and  C_27
REMARK                            x       y       z     vdW  Elec       q    Type
REMARK                         _______ _______ _______ _____ _____    ______ ____
ROOT
ATOM      1  C   UNL     1       3.787   3.013  18.910  0.00  0.00    +0.000 C 
ATOM      2  C   UNL     1       3.698   4.494  18.709  0.00  0.00    +0.000 A 
ATOM      3  C   UNL     1       4.137   5.228  17.672  0.00  0.00    +0.000 A 
ATOM      4  C   UNL     1       3.408   6.531  17.734  0.00  0.00    +0.000 A 
ATOM      5  O   UNL     1       3.536   7.398  16.883  0.00  0.00    +0.000 OA
ATOM      6  N   UNL     1       2.670   6.498  18.916  0.00  0.00    +0.000 N 
ATOM      7  N   UNL     1       2.939   5.279  19.597  0.00  0.00    +0.000 N 
ATOM      8  C   UNL     1       1.857   4.699  20.403  0.00  0.00    +0.000 C 
ENDROOT
BRANCH   6   9
ATOM      9  C   UNL     1       2.079   7.608  19.545  0.00  0.00    +0.000 A 
ATOM     10  C   UNL     1       1.702   8.726  18.792  0.00  0.00    +0.000 A 
ATOM     11  C   UNL     1       1.001   9.776  19.395  0.00  0.00    +0.000 A 
ATOM     12  C   UNL     1       0.714   9.734  20.759  0.00  0.00    +0.000 A 
ATOM     13  C   UNL     1       1.130   8.647  21.525  0.00  0.00    +0.000 A 
ATOM     14  C   UNL     1       1.802   7.587  20.918  0.00  0.00    +0.000 A 
ENDBRANCH   6   9
BRANCH   3  15
ATOM     15  N   UNL     1       4.804   4.753  16.526  0.00  0.00    +0.000 N 
ATOM     16  H   UNL     1       4.268   4.876  15.663  0.00  0.00    +0.000 HD
BRANCH  15  17
ATOM     17  S   UNL     1       6.415   5.181  16.283  0.00  0.00    +0.000 S 
ATOM     18  O   UNL     1       6.574   6.615  16.366  0.00  0.00    +0.000 OA
ATOM     19  O   UNL     1       7.183   4.308  17.147  0.00  0.00    +0.000 OA
BRANCH  17  20
ATOM     20  C   UNL     1       6.831   4.718  14.607  0.00  0.00    +0.000 A 
ATOM     21  C   UNL     1       7.793   5.464  13.912  0.00  0.00    +0.000 A 
ATOM     22  C   UNL     1       7.952   5.294  12.533  0.00  0.00    +0.000 A 
ATOM     23  C   UNL     1       7.144   4.392  11.840  0.00  0.00    +0.000 A 
ATOM     24  C   UNL     1       6.180   3.649  12.538  0.00  0.00    +0.000 A 
ATOM     25  C   UNL     1       6.016   3.806  13.924  0.00  0.00    +0.000 A 
BRANCH  24  26
ATOM     26  N   UNL     1       5.297   2.738  11.793  0.00  0.00    +0.000 N 
ATOM     27  O   UNL     1       4.146   3.119  11.544  0.00  0.00    +0.000 OA
ATOM     28  O   UNL     1       5.766   1.640  11.453  0.00  0.00    +0.000 OA
ENDBRANCH  24  26
ENDBRANCH  17  20
ENDBRANCH  15  17
ENDBRANCH   3  15
TORSDOF 5
ENDMDL
MODEL 4
REMARK VINA RESULT:      -7.2      1.383      1.772
REMARK  Name = 
REMARK  7 active torsions:
REMARK  status: ('A' for Active; 'I' for Inactive)
REMARK    1  A    between atoms: C_1  and  C_2
REMARK    2  A    between atoms: C_3  and  N_4
REMARK    3  A    between atoms: N_4  and  S_5
REMARK    4  A    between atoms: S_5  and  C_8
REMARK    5  A    between atoms: C_12  and  N_13
REMARK    6  A    between atoms: N_19  and  C_20
REMARK    7  A    between atoms: N_26  and  C_27
REMARK                            x       y       z     vdW  Elec       q    Type
REMARK                         _______ _______ _______ _____ _____    ______ ____
ROOT
ATOM      1  C   UNL     1       6.028   5.395  19.471  0.00  0.00    +0.000 C 
ATOM      2  C   UNL     1       5.647   5.564  18.033  0.00  0.00    +0.000 A 
ATOM      3  C   UNL     1       4.827   6.475  17.484  0.00  0.00    +0.000 A 
ATOM      4  C   UNL     1       5.148   6.515  16.025  0.00  0.00    +0.000 A 
ATOM      5  O   UNL     1       4.616   7.299  15.255  0.00  0.00    +0.000 OA
ATOM      6  N   UNL     1       6.077   5.496  15.814  0.00  0.00    +0.000 N 
ATOM      7  N   UNL     1       6.305   4.813  17.039  0.00  0.00    +0.000 N 
ATOM      8  C   UNL     1       7.641   4.247  17.262  0.00  0.00    +0.000 C 
ENDROOT
BRANCH   6   9
ATOM      9  C   UNL     1       6.433   4.959  14.564  0.00  0.00    +0.000 A 
ATOM     10  C   UNL     1       5.671   3.931  13.996  0.00  0.00    +0.000 A 
ATOM     11  C   UNL     1       5.948   3.484  12.700  0.00  0.00    +0.000 A 
ATOM     12  C   UNL     1       7.014   4.029  11.985  0.00  0.00    +0.000 A 
ATOM     13  C   UNL     1       7.808   5.017  12.562  0.00  0.00    +0.000 A 
ATOM     14  C   UNL     1       7.512   5.484  13.842  0.00  0.00    +0.000 A 
ENDBRANCH   6   9
BRANCH   3  15
ATOM     15  N   UNL     1       4.118   7.487  18.161  0.00  0.00    +0.000 N 
ATOM     16  H   UNL     1       4.283   8.424  17.783  0.00  0.00    +0.000 HD
BRANCH  15  17
ATOM     17  S   UNL     1       2.479   7.263  18.478  0.00  0.00    +0.000 S 
ATOM     18  O   UNL     1       2.025   8.203  19.478  0.00  0.00    +0.000 OA
ATOM     19  O   UNL     1       1.837   7.207  17.181  0.00  0.00    +0.000 OA
BRANCH  17  20
ATOM     20  C   UNL     1       2.304   5.634  19.193  0.00  0.00    +0.000 A 
ATOM     21  C   UNL     1       2.274   5.501  20.589  0.00  0.00    +0.000 A 
ATOM     22  C   UNL     1       2.399   4.238  21.178  0.00  0.00    +0.000 A 
ATOM     23  C   UNL     1       2.568   3.107  20.379  0.00  0.00    +0.000 A 
ATOM     24  C   UNL     1       2.601   3.243  18.983  0.00  0.00    +0.000 A 
ATOM     25  C   UNL     1       2.470   4.505  18.381  0.00  0.00    +0.000 A 
BRANCH  24  26
ATOM     26  N   UNL     1       2.831   2.053  18.151  0.00  0.00    +0.000 N 
ATOM     27  O   UNL     1       2.242   1.980  17.065  0.00  0.00    +0.000 OA
ATOM     28  O   UNL     1       3.610   1.192  18.589  0.00  0.00    +0.000 OA
ENDBRANCH  24  26
ENDBRANCH  17  20
ENDBRANCH  15  17
ENDBRANCH   3  15
TORSDOF 5
ENDMDL
MODEL 5
REMARK VINA RESULT:      -7.2      3.996      7.798
REMARK  Name = 
REMARK  7 active torsions:
REMARK  status: ('A' for Active; 'I' for Inactive)
REMARK    1  A    between atoms: C_1  and  C_2
REMARK    2  A    between atoms: C_3  and  N_4
REMARK    3  A    between atoms: N_4  and  S_5
REMARK    4  A    between atoms: S_5  and  C_8
REMARK    5  A    between atoms: C_12  and  N_13
REMARK    6  A    between atoms: N_19  and  C_20
REMARK    7  A    between atoms: N_26  and  C_27
REMARK                            x       y       z     vdW  Elec       q    Type
REMARK                         _______ _______ _______ _____ _____    ______ ____
ROOT
ATOM      1  C   UNL     1       3.705   7.882  17.474  0.00  0.00    +0.000 C 
ATOM      2  C   UNL     1       2.566   8.046  18.432  0.00  0.00    +0.000 A 
ATOM      3  C   UNL     1       2.272   7.312  19.519  0.00  0.00    +0.000 A 
ATOM      4  C   UNL     1       1.359   8.144  20.361  0.00  0.00    +0.000 A 
ATOM      5  O   UNL     1       0.964   7.782  21.458  0.00  0.00    +0.000 OA
ATOM      6  N   UNL     1       1.086   9.287  19.610  0.00  0.00    +0.000 N 
ATOM      7  N   UNL     1       1.736   9.181  18.350  0.00  0.00    +0.000 N 
ATOM      8  C   UNL     1       2.195  10.424  17.716  0.00  0.00    +0.000 C 
ENDROOT
BRANCH   6   9
ATOM      9  C   UNL     1       0.046  10.200  19.856  0.00  0.00    +0.000 A 
ATOM     10  C   UNL     1       0.119  11.074  20.948  0.00  0.00    +0.000 A 
ATOM     11  C   UNL     1      -0.853  12.065  21.120  0.00  0.00    +0.000 A 
ATOM     12  C   UNL     1      -1.923  12.159  20.231  0.00  0.00    +0.000 A 
ATOM     13  C   UNL     1      -2.029  11.261  19.171  0.00  0.00    +0.000 A 
ATOM     14  C   UNL     1      -1.045  10.292  18.982  0.00  0.00    +0.000 A 
ENDBRANCH   6   9
BRANCH   3  15
ATOM     15  N   UNL     1       2.981   6.193  19.997  0.00  0.00    +0.000 N 
ATOM     16  H   UNL     1       2.750   5.947  20.963  0.00  0.00    +0.000 HD
BRANCH  15  17
ATOM     17  S   UNL     1       3.059   4.808  19.042  0.00  0.00    +0.000 S 
ATOM     18  O   UNL     1       2.886   3.625  19.854  0.00  0.00    +0.000 OA
ATOM     19  O   UNL     1       2.179   5.060  17.919  0.00  0.00    +0.000 OA
BRANCH  17  20
ATOM     20  C   UNL     1       4.715   4.729  18.372  0.00  0.00    +0.000 A 
ATOM     21  C   UNL     1       5.801   5.055  19.197  0.00  0.00    +0.000 A 
ATOM     22  C   UNL     1       7.069   5.253  18.643  0.00  0.00    +0.000 A 
ATOM     23  C   UNL     1       7.257   5.143  17.264  0.00  0.00    +0.000 A 
ATOM     24  C   UNL     1       6.168   4.820  16.441  0.00  0.00    +0.000 A 
ATOM     25  C   UNL     1       4.891   4.611  16.987  0.00  0.00    +0.000 A 
BRANCH  24  26
ATOM     26  N   UNL     1       6.363   4.756  14.985  0.00  0.00    +0.000 N 
ATOM     27  O   UNL     1       5.444   4.296  14.295  0.00  0.00    +0.000 OA
ATOM     28  O   UNL     1       7.442   5.173  14.535  0.00  0.00    +0.000 OA
ENDBRANCH  24  26
ENDBRANCH  17  20
ENDBRANCH  15  17
ENDBRANCH   3  15
TORSDOF 5
ENDMDL
MODEL 6
REMARK VINA RESULT:      -7.1      4.375      7.601
REMARK  Name = 
REMARK  7 active torsions:
REMARK  status: ('A' for Active; 'I' for Inactive)
REMARK    1  A    between atoms: C_1  and  C_2
REMARK    2  A    between atoms: C_3  and  N_4
REMARK    3  A    between atoms: N_4  and  S_5
REMARK    4  A    between atoms: S_5  and  C_8
REMARK    5  A    between atoms: C_12  and  N_13
REMARK    6  A    between atoms: N_19  and  C_20
REMARK    7  A    between atoms: N_26  and  C_27
REMARK                            x       y       z     vdW  Elec       q    Type
REMARK                         _______ _______ _______ _____ _____    ______ ____
ROOT
ATOM      1  C   UNL     1       3.366   7.776  17.680  0.00  0.00    +0.000 C 
ATOM      2  C   UNL     1       2.309   8.086  18.694  0.00  0.00    +0.000 A 
ATOM      3  C   UNL     1       2.055   7.465  19.859  0.00  0.00    +0.000 A 
ATOM      4  C   UNL     1       1.249   8.417  20.683  0.00  0.00    +0.000 A 
ATOM      5  O   UNL     1       0.915   8.172  21.832  0.00  0.00    +0.000 OA
ATOM      6  N   UNL     1       0.982   9.505  19.853  0.00  0.00    +0.000 N 
ATOM      7  N   UNL     1       1.534   9.255  18.567  0.00  0.00    +0.000 N 
ATOM      8  C   UNL     1       2.009  10.411  17.796  0.00  0.00    +0.000 C 
ENDROOT
BRANCH   6   9
ATOM      9  C   UNL     1       0.010  10.494  20.086  0.00  0.00    +0.000 A 
ATOM     10  C   UNL     1      -1.079  10.631  19.217  0.00  0.00    +0.000 A 
ATOM     11  C   UNL     1      -2.109  11.527  19.517  0.00  0.00    +0.000 A 
ATOM     12  C   UNL     1      -2.036  12.322  20.661  0.00  0.00    +0.000 A 
ATOM     13  C   UNL     1      -0.932  12.227  21.504  0.00  0.00    +0.000 A 
ATOM     14  C   UNL     1       0.081  11.311  21.221  0.00  0.00    +0.000 A 
ENDBRANCH   6   9
BRANCH   3  15
ATOM     15  N   UNL     1       2.738   6.352  20.387  0.00  0.00    +0.000 N 
ATOM     16  H   UNL     1       2.667   6.275  21.405  0.00  0.00    +0.000 HD
BRANCH  15  17
ATOM     17  S   UNL     1       2.520   4.845  19.667  0.00  0.00    +0.000 S 
ATOM     18  O   UNL     1       2.767   3.789  20.623  0.00  0.00    +0.000 OA
ATOM     19  O   UNL     1       1.249   4.925  18.977  0.00  0.00    +0.000 OA
BRANCH  17  20
ATOM     20  C   UNL     1       3.769   4.687  18.398  0.00  0.00    +0.000 A 
ATOM     21  C   UNL     1       3.425   4.103  17.170  0.00  0.00    +0.000 A 
ATOM     22  C   UNL     1       4.424   3.732  16.264  0.00  0.00    +0.000 A 
ATOM     23  C   UNL     1       5.768   3.928  16.584  0.00  0.00    +0.000 A 
ATOM     24  C   UNL     1       6.109   4.509  17.814  0.00  0.00    +0.000 A 
ATOM     25  C   UNL     1       5.115   4.892  18.729  0.00  0.00    +0.000 A 
BRANCH  24  26
ATOM     26  N   UNL     1       7.529   4.664  18.165  0.00  0.00    +0.000 N 
ATOM     27  O   UNL     1       7.806   5.237  19.228  0.00  0.00    +0.000 OA
ATOM     28  O   UNL     1       8.366   4.205  17.373  0.00  0.00    +0.000 OA
ENDBRANCH  24  26
ENDBRANCH  17  20
ENDBRANCH  15  17
ENDBRANCH   3  15
TORSDOF 5
ENDMDL
MODEL 7
REMARK VINA RESULT:      -7.1      1.376      1.951
REMARK  Name = 
REMARK  7 active torsions:
REMARK  status: ('A' for Active; 'I' for Inactive)
REMARK    1  A    between atoms: C_1  and  C_2
REMARK    2  A    between atoms: C_3  and  N_4
REMARK    3  A    between atoms: N_4  and  S_5
REMARK    4  A    between atoms: S_5  and  C_8
REMARK    5  A    between atoms: C_12  and  N_13
REMARK    6  A    between atoms: N_19  and  C_20
REMARK    7  A    between atoms: N_26  and  C_27
REMARK                            x       y       z     vdW  Elec       q    Type
REMARK                         _______ _______ _______ _____ _____    ______ ____
ROOT
ATOM      1  C   UNL     1       6.078   5.373  19.427  0.00  0.00    +0.000 C 
ATOM      2  C   UNL     1       5.649   5.568  18.006  0.00  0.00    +0.000 A 
ATOM      3  C   UNL     1       4.805   6.484  17.502  0.00  0.00    +0.000 A 
ATOM      4  C   UNL     1       5.077   6.554  16.035  0.00  0.00    +0.000 A 
ATOM      5  O   UNL     1       4.515   7.350  15.299  0.00  0.00    +0.000 OA
ATOM      6  N   UNL     1       6.005   5.547  15.773  0.00  0.00    +0.000 N 
ATOM      7  N   UNL     1       6.278   4.842  16.976  0.00  0.00    +0.000 N 
ATOM      8  C   UNL     1       7.624   4.280  17.144  0.00  0.00    +0.000 C 
ENDROOT
BRANCH   6   9
ATOM      9  C   UNL     1       6.323   5.036  14.501  0.00  0.00    +0.000 A 
ATOM     10  C   UNL     1       7.454   5.499  13.819  0.00  0.00    +0.000 A 
ATOM     11  C   UNL     1       7.840   4.902  12.614  0.00  0.00    +0.000 A 
ATOM     12  C   UNL     1       7.075   3.874  12.064  0.00  0.00    +0.000 A 
ATOM     13  C   UNL     1       5.920   3.443  12.713  0.00  0.00    +0.000 A 
ATOM     14  C   UNL     1       5.552   4.016  13.929  0.00  0.00    +0.000 A 
ENDBRANCH   6   9
BRANCH   3  15
ATOM     15  N   UNL     1       4.112   7.478  18.222  0.00  0.00    +0.000 N 
ATOM     16  H   UNL     1       4.290   8.426  17.881  0.00  0.00    +0.000 HD
BRANCH  15  17
ATOM     17  S   UNL     1       2.471   7.264  18.536  0.00  0.00    +0.000 S 
ATOM     18  O   UNL     1       2.023   8.202  19.539  0.00  0.00    +0.000 OA
ATOM     19  O   UNL     1       1.830   7.218  17.237  0.00  0.00    +0.000 OA
BRANCH  17  20
ATOM     20  C   UNL     1       2.284   5.632  19.243  0.00  0.00    +0.000 A 
ATOM     21  C   UNL     1       2.242   5.494  20.638  0.00  0.00    +0.000 A 
ATOM     22  C   UNL     1       2.356   4.229  21.223  0.00  0.00    +0.000 A 
ATOM     23  C   UNL     1       2.528   3.100  20.421  0.00  0.00    +0.000 A 
ATOM     24  C   UNL     1       2.573   3.241  19.026  0.00  0.00    +0.000 A 
ATOM     25  C   UNL     1       2.452   4.506  18.428  0.00  0.00    +0.000 A 
BRANCH  24  26
ATOM     26  N   UNL     1       2.806   2.053  18.191  0.00  0.00    +0.000 N 
ATOM     27  O   UNL     1       3.564   1.177  18.626  0.00  0.00    +0.000 OA
ATOM     28  O   UNL     1       2.221   2.000  17.098  0.00  0.00    +0.000 OA
ENDBRANCH  24  26
ENDBRANCH  17  20
ENDBRANCH  15  17
ENDBRANCH   3  15
TORSDOF 5
ENDMDL
MODEL 8
REMARK VINA RESULT:      -6.9      2.789      3.940
REMARK  Name = 
REMARK  7 active torsions:
REMARK  status: ('A' for Active; 'I' for Inactive)
REMARK    1  A    between atoms: C_1  and  C_2
REMARK    2  A    between atoms: C_3  and  N_4
REMARK    3  A    between atoms: N_4  and  S_5
REMARK    4  A    between atoms: S_5  and  C_8
REMARK    5  A    between atoms: C_12  and  N_13
REMARK    6  A    between atoms: N_19  and  C_20
REMARK    7  A    between atoms: N_26  and  C_27
REMARK                            x       y       z     vdW  Elec       q    Type
REMARK                         _______ _______ _______ _____ _____    ______ ____
ROOT
ATOM      1  C   UNL     1       6.144   5.272  19.413  0.00  0.00    +0.000 C 
ATOM      2  C   UNL     1       5.752   5.432  17.977  0.00  0.00    +0.000 A 
ATOM      3  C   UNL     1       4.864   6.286  17.439  0.00  0.00    +0.000 A 
ATOM      4  C   UNL     1       5.182   6.372  15.982  0.00  0.00    +0.000 A 
ATOM      5  O   UNL     1       4.593   7.124  15.223  0.00  0.00    +0.000 OA
ATOM      6  N   UNL     1       6.187   5.431  15.757  0.00  0.00    +0.000 N 
ATOM      7  N   UNL     1       6.466   4.749  16.973  0.00  0.00    +0.000 N 
ATOM      8  C   UNL     1       7.841   4.284  17.190  0.00  0.00    +0.000 C 
ENDROOT
BRANCH   6   9
ATOM      9  C   UNL     1       6.584   4.941  14.500  0.00  0.00    +0.000 A 
ATOM     10  C   UNL     1       5.911   3.857  13.921  0.00  0.00    +0.000 A 
ATOM     11  C   UNL     1       6.222   3.452  12.620  0.00  0.00    +0.000 A 
ATOM     12  C   UNL     1       7.235   4.095  11.908  0.00  0.00    +0.000 A 
ATOM     13  C   UNL     1       7.942   5.141  12.496  0.00  0.00    +0.000 A 
ATOM     14  C   UNL     1       7.612   5.565  13.783  0.00  0.00    +0.000 A 
ENDBRANCH   6   9
BRANCH   3  15
ATOM     15  N   UNL     1       4.079   7.231  18.130  0.00  0.00    +0.000 N 
ATOM     16  H   UNL     1       3.949   8.106  17.616  0.00  0.00    +0.000 HD
BRANCH  15  17
ATOM     17  S   UNL     1       2.627   6.734  18.822  0.00  0.00    +0.000 S 
ATOM     18  O   UNL     1       1.831   6.008  17.859  0.00  0.00    +0.000 OA
ATOM     19  O   UNL     1       2.987   6.121  20.084  0.00  0.00    +0.000 OA
BRANCH  17  20
ATOM     20  C   UNL     1       1.710   8.214  19.229  0.00  0.00    +0.000 A 
ATOM     21  C   UNL     1       1.698   9.281  18.318  0.00  0.00    +0.000 A 
ATOM     22  C   UNL     1       1.215  10.534  18.710  0.00  0.00    +0.000 A 
ATOM     23  C   UNL     1       0.757  10.732  20.014  0.00  0.00    +0.000 A 
ATOM     24  C   UNL     1       0.773   9.664  20.923  0.00  0.00    +0.000 A 
ATOM     25  C   UNL     1       1.250   8.399  20.539  0.00  0.00    +0.000 A 
BRANCH  24  26
ATOM     26  N   UNL     1       0.337   9.894  22.308  0.00  0.00    +0.000 N 
ATOM     27  O   UNL     1      -0.839  10.229  22.500  0.00  0.00    +0.000 OA
ATOM     28  O   UNL     1       1.179   9.733  23.206  0.00  0.00    +0.000 OA
ENDBRANCH  24  26
ENDBRANCH  17  20
ENDBRANCH  15  17
ENDBRANCH   3  15
TORSDOF 5
ENDMDL
MODEL 9
REMARK VINA RESULT:      -6.9      4.483      7.567
REMARK  Name = 
REMARK  7 active torsions:
REMARK  status: ('A' for Active; 'I' for Inactive)
REMARK    1  A    between atoms: C_1  and  C_2
REMARK    2  A    between atoms: C_3  and  N_4
REMARK    3  A    between atoms: N_4  and  S_5
REMARK    4  A    between atoms: S_5  and  C_8
REMARK    5  A    between atoms: C_12  and  N_13
REMARK    6  A    between atoms: N_19  and  C_20
REMARK    7  A    between atoms: N_26  and  C_27
REMARK                            x       y       z     vdW  Elec       q    Type
REMARK                         _______ _______ _______ _____ _____    ______ ____
ROOT
ATOM      1  C   UNL     1       3.231   7.764  18.138  0.00  0.00    +0.000 C 
ATOM      2  C   UNL     1       2.075   8.170  18.999  0.00  0.00    +0.000 A 
ATOM      3  C   UNL     1       1.707   7.680  20.195  0.00  0.00    +0.000 A 
ATOM      4  C   UNL     1       0.818   8.706  20.821  0.00  0.00    +0.000 A 
ATOM      5  O   UNL     1       0.370   8.587  21.950  0.00  0.00    +0.000 OA
ATOM      6  N   UNL     1       0.633   9.691  19.850  0.00  0.00    +0.000 N 
ATOM      7  N   UNL     1       1.314   9.307  18.663  0.00  0.00    +0.000 N 
ATOM      8  C   UNL     1       1.861  10.376  17.819  0.00  0.00    +0.000 C 
ENDROOT
BRANCH   6   9
ATOM      9  C   UNL     1      -0.361  10.685  19.871  0.00  0.00    +0.000 A 
ATOM     10  C   UNL     1      -1.404  10.658  18.938  0.00  0.00    +0.000 A 
ATOM     11  C   UNL     1      -2.459  11.571  19.038  0.00  0.00    +0.000 A 
ATOM     12  C   UNL     1      -2.454  12.542  20.040  0.00  0.00    +0.000 A 
ATOM     13  C   UNL     1      -1.394  12.606  20.941  0.00  0.00    +0.000 A 
ATOM     14  C   UNL     1      -0.357  11.677  20.861  0.00  0.00    +0.000 A 
ENDBRANCH   6   9
BRANCH   3  15
ATOM     15  N   UNL     1       2.336   6.643  20.911  0.00  0.00    +0.000 N 
ATOM     16  H   UNL     1       2.350   6.796  21.922  0.00  0.00    +0.000 HD
BRANCH  15  17
ATOM     17  S   UNL     1       1.924   5.047  20.565  0.00  0.00    +0.000 S 
ATOM     18  O   UNL     1       2.381   4.169  21.618  0.00  0.00    +0.000 OA
ATOM     19  O   UNL     1       0.524   5.078  20.194  0.00  0.00    +0.000 OA
BRANCH  17  20
ATOM     20  C   UNL     1       2.822   4.585  19.089  0.00  0.00    +0.000 A 
ATOM     21  C   UNL     1       2.197   3.762  18.140  0.00  0.00    +0.000 A 
ATOM     22  C   UNL     1       2.948   3.177  17.115  0.00  0.00    +0.000 A 
ATOM     23  C   UNL     1       4.324   3.397  17.042  0.00  0.00    +0.000 A 
ATOM     24  C   UNL     1       4.946   4.217  17.994  0.00  0.00    +0.000 A 
ATOM     25  C   UNL     1       4.202   4.816  19.024  0.00  0.00    +0.000 A 
BRANCH  24  26
ATOM     26  N   UNL     1       6.404   4.401  17.940  0.00  0.00    +0.000 N 
ATOM     27  O   UNL     1       6.956   4.353  16.833  0.00  0.00    +0.000 OA
ATOM     28  O   UNL     1       6.995   4.601  19.013  0.00  0.00    +0.000 OA
ENDBRANCH  24  26
ENDBRANCH  17  20
ENDBRANCH  15  17
ENDBRANCH   3  15
TORSDOF 5
ENDMDL
