MODEL 1
REMARK VINA RESULT:      -8.1      0.000      0.000
REMARK  Name = 
REMARK  4 active torsions:
REMARK  status: ('A' for Active; 'I' for Inactive)
REMARK    1  A    between atoms: C_2  and  C_3
REMARK    2  A    between atoms: C_3  and  C_4
REMARK    3  A    between atoms: N_17  and  C_18
REMARK    4  A    between atoms: C_18  and  C_19
REMARK                            x       y       z     vdW  Elec       q    Type
REMARK                         _______ _______ _______ _____ _____    ______ ____
ROOT
ATOM      1  O   UNL     1       8.818   7.377  19.198  0.00  0.00    +0.000 OA
ATOM      2  C   UNL     1       7.984   7.651  18.331  0.00  0.00    +0.000 C 
ATOM      3  N   UNL     1       7.050   6.720  17.890  0.00  0.00    +0.000 N 
ATOM      4  C   UNL     1       7.131   5.368  18.439  0.00  0.00    +0.000 C 
ATOM      5  C   UNL     1       6.296   4.348  17.655  0.00  0.00    +0.000 C 
ATOM      6  C   UNL     1       6.559   4.450  16.143  0.00  0.00    +0.000 C 
ATOM      7  C   UNL     1       6.674   5.886  15.651  0.00  0.00    +0.000 C 
ATOM      8  C   UNL     1       6.197   6.883  16.702  0.00  0.00    +0.000 C 
ATOM      9  C   UNL     1       4.676   6.770  16.985  0.00  0.00    +0.000 C 
ATOM     10  N   UNL     1       4.191   5.781  17.946  0.00  0.00    +0.000 NA
ATOM     11  C   UNL     1       4.794   4.460  17.977  0.00  0.00    +0.000 C 
ENDROOT
BRANCH   2  12
ATOM     12  C   UNL     1       7.964   9.041  17.710  0.00  0.00    +0.000 C 
BRANCH  12  13
ATOM     13  C   UNL     1       8.924  10.013  18.357  0.00  0.00    +0.000 A 
ATOM     14  C   UNL     1       9.772  10.815  17.580  0.00  0.00    +0.000 A 
ATOM     15  C   UNL     1      10.673  11.689  18.185  0.00  0.00    +0.000 A 
ATOM     16  C   UNL     1      10.723  11.786  19.573  0.00  0.00    +0.000 A 
ATOM     17  C   UNL     1       9.871  11.012  20.358  0.00  0.00    +0.000 A 
ATOM     18  C   UNL     1       8.971  10.132  19.754  0.00  0.00    +0.000 A 
ENDBRANCH  12  13
ENDBRANCH   2  12
BRANCH  10  19
ATOM     19  C   UNL     1       2.726   5.770  18.104  0.00  0.00    +0.000 C 
BRANCH  19  20
ATOM     20  C   UNL     1       2.157   4.712  19.034  0.00  0.00    +0.000 A 
ATOM     21  C   UNL     1       1.423   3.626  18.539  0.00  0.00    +0.000 A 
ATOM     22  C   UNL     1       0.913   2.711  19.449  0.00  0.00    +0.000 A 
ATOM     23  N   UNL     1       1.068   2.795  20.785  0.00  0.00    +0.000 NA
ATOM     24  C   UNL     1       1.783   3.848  21.239  0.00  0.00    +0.000 A 
ATOM     25  C   UNL     1       2.337   4.810  20.415  0.00  0.00    +0.000 A 
ENDBRANCH  19  20
ENDBRANCH  10  19
TORSDOF 4
ENDMDL
MODEL 2
REMARK VINA RESULT:      -7.9      0.471      1.360
REMARK  Name = 
REMARK  4 active torsions:
REMARK  status: ('A' for Active; 'I' for Inactive)
REMARK    1  A    between atoms: C_2  and  C_3
REMARK    2  A    between atoms: C_3  and  C_4
REMARK    3  A    between atoms: N_17  and  C_18
REMARK    4  A    between atoms: C_18  and  C_19
REMARK                            x       y       z     vdW  Elec       q    Type
REMARK                         _______ _______ _______ _____ _____    ______ ____
ROOT
ATOM      1  O   UNL     1       8.777   7.454  19.074  0.00  0.00    +0.000 OA
ATOM      2  C   UNL     1       7.929   7.673  18.206  0.00  0.00    +0.000 C 
ATOM      3  N   UNL     1       6.986   6.717  17.843  0.00  0.00    +0.000 N 
ATOM      4  C   UNL     1       7.075   5.404  18.478  0.00  0.00    +0.000 C 
ATOM      5  C   UNL     1       6.225   4.337  17.777  0.00  0.00    +0.000 C 
ATOM      6  C   UNL     1       6.461   4.339  16.258  0.00  0.00    +0.000 C 
ATOM      7  C   UNL     1       6.569   5.739  15.671  0.00  0.00    +0.000 C 
ATOM      8  C   UNL     1       6.112   6.804  16.663  0.00  0.00    +0.000 C 
ATOM      9  C   UNL     1       4.596   6.714  16.980  0.00  0.00    +0.000 C 
ATOM     10  N   UNL     1       4.127   5.790  18.012  0.00  0.00    +0.000 NA
ATOM     11  C   UNL     1       4.729   4.472  18.118  0.00  0.00    +0.000 C 
ENDROOT
BRANCH   2  12
ATOM     12  C   UNL     1       7.899   9.019  17.496  0.00  0.00    +0.000 C 
BRANCH  12  13
ATOM     13  C   UNL     1       8.591  10.127  18.257  0.00  0.00    +0.000 A 
ATOM     14  C   UNL     1       9.138   9.897  19.527  0.00  0.00    +0.000 A 
ATOM     15  C   UNL     1       9.750  10.930  20.234  0.00  0.00    +0.000 A 
ATOM     16  C   UNL     1       9.839  12.200  19.671  0.00  0.00    +0.000 A 
ATOM     17  C   UNL     1       9.320  12.439  18.401  0.00  0.00    +0.000 A 
ATOM     18  C   UNL     1       8.702  11.407  17.693  0.00  0.00    +0.000 A 
ENDBRANCH  12  13
ENDBRANCH   2  12
BRANCH  10  19
ATOM     19  C   UNL     1       2.665   5.794  18.196  0.00  0.00    +0.000 C 
BRANCH  19  20
ATOM     20  C   UNL     1       2.103   4.739  19.136  0.00  0.00    +0.000 A 
ATOM     21  C   UNL     1       2.308   4.813  20.520  0.00  0.00    +0.000 A 
ATOM     22  C   UNL     1       1.786   3.803  21.315  0.00  0.00    +0.000 A 
ATOM     23  N   UNL     1       1.096   2.743  20.848  0.00  0.00    +0.000 NA
ATOM     24  C   UNL     1       0.906   2.696  19.511  0.00  0.00    +0.000 A 
ATOM     25  C   UNL     1       1.381   3.655  18.635  0.00  0.00    +0.000 A 
ENDBRANCH  19  20
ENDBRANCH  10  19
TORSDOF 4
ENDMDL
MODEL 3
REMARK VINA RESULT:      -7.8      4.458      6.188
REMARK  Name = 
REMARK  4 active torsions:
REMARK  status: ('A' for Active; 'I' for Inactive)
REMARK    1  A    between atoms: C_2  and  C_3
REMARK    2  A    between atoms: C_3  and  C_4
REMARK    3  A    between atoms: N_17  and  C_18
REMARK    4  A    between atoms: C_18  and  C_19
REMARK                            x       y       z     vdW  Elec       q    Type
REMARK                         _______ _______ _______ _____ _____    ______ ____
ROOT
ATOM      1  O   UNL     1       6.787   4.342  16.906  0.00  0.00    +0.000 OA
ATOM      2  C   UNL     1       5.605   4.634  16.705  0.00  0.00    +0.000 C 
ATOM      3  N   UNL     1       4.611   4.352  17.636  0.00  0.00    +0.000 N 
ATOM      4  C   UNL     1       5.001   3.627  18.844  0.00  0.00    +0.000 C 
ATOM      5  C   UNL     1       3.804   3.076  19.628  0.00  0.00    +0.000 C 
ATOM      6  C   UNL     1       2.827   2.325  18.708  0.00  0.00    +0.000 C 
ATOM      7  C   UNL     1       2.612   3.018  17.370  0.00  0.00    +0.000 C 
ATOM      8  C   UNL     1       3.166   4.440  17.375  0.00  0.00    +0.000 C 
ATOM      9  C   UNL     1       2.395   5.378  18.340  0.00  0.00    +0.000 C 
ATOM     10  N   UNL     1       2.757   5.412  19.757  0.00  0.00    +0.000 NA
ATOM     11  C   UNL     1       3.089   4.173  20.439  0.00  0.00    +0.000 C 
ENDROOT
BRANCH   2  12
ATOM     12  C   UNL     1       5.202   5.318  15.406  0.00  0.00    +0.000 C 
BRANCH  12  13
ATOM     13  C   UNL     1       5.871   4.741  14.179  0.00  0.00    +0.000 A 
ATOM     14  C   UNL     1       7.145   5.169  13.783  0.00  0.00    +0.000 A 
ATOM     15  C   UNL     1       7.743   4.651  12.635  0.00  0.00    +0.000 A 
ATOM     16  C   UNL     1       7.081   3.685  11.882  0.00  0.00    +0.000 A 
ATOM     17  C   UNL     1       5.824   3.233  12.275  0.00  0.00    +0.000 A 
ATOM     18  C   UNL     1       5.221   3.754  13.422  0.00  0.00    +0.000 A 
ENDBRANCH  12  13
ENDBRANCH   2  12
BRANCH  10  19
ATOM     19  C   UNL     1       1.932   6.331  20.561  0.00  0.00    +0.000 C 
BRANCH  19  20
ATOM     20  C   UNL     1       1.694   7.712  19.970  0.00  0.00    +0.000 A 
ATOM     21  C   UNL     1       2.196   8.061  18.710  0.00  0.00    +0.000 A 
ATOM     22  C   UNL     1       1.960   9.347  18.244  0.00  0.00    +0.000 A 
ATOM     23  N   UNL     1       1.285  10.294  18.925  0.00  0.00    +0.000 NA
ATOM     24  C   UNL     1       0.806   9.933  20.137  0.00  0.00    +0.000 A 
ATOM     25  C   UNL     1       0.983   8.676  20.686  0.00  0.00    +0.000 A 
ENDBRANCH  19  20
ENDBRANCH  10  19
TORSDOF 4
ENDMDL
MODEL 4
REMARK VINA RESULT:      -7.8      4.500      6.223
REMARK  Name = 
REMARK  4 active torsions:
REMARK  status: ('A' for Active; 'I' for Inactive)
REMARK    1  A    between atoms: C_2  and  C_3
REMARK    2  A    between atoms: C_3  and  C_4
REMARK    3  A    between atoms: N_17  and  C_18
REMARK    4  A    between atoms: C_18  and  C_19
REMARK                            x       y       z     vdW  Elec       q    Type
REMARK                         _______ _______ _______ _____ _____    ______ ____
ROOT
ATOM      1  O   UNL     1       6.769   4.162  16.940  0.00  0.00    +0.000 OA
ATOM      2  C   UNL     1       5.589   4.468  16.752  0.00  0.00    +0.000 C 
ATOM      3  N   UNL     1       4.590   4.133  17.660  0.00  0.00    +0.000 N 
ATOM      4  C   UNL     1       4.973   3.338  18.825  0.00  0.00    +0.000 C 
ATOM      5  C   UNL     1       3.772   2.744  19.571  0.00  0.00    +0.000 C 
ATOM      6  C   UNL     1       2.798   2.050  18.604  0.00  0.00    +0.000 C 
ATOM      7  C   UNL     1       2.590   2.820  17.308  0.00  0.00    +0.000 C 
ATOM      8  C   UNL     1       3.146   4.238  17.398  0.00  0.00    +0.000 C 
ATOM      9  C   UNL     1       2.372   5.119  18.413  0.00  0.00    +0.000 C 
ATOM     10  N   UNL     1       2.727   5.070  19.831  0.00  0.00    +0.000 NA
ATOM     11  C   UNL     1       3.054   3.793  20.441  0.00  0.00    +0.000 C 
ENDROOT
BRANCH   2  12
ATOM     12  C   UNL     1       5.193   5.226  15.493  0.00  0.00    +0.000 C 
BRANCH  12  13
ATOM     13  C   UNL     1       5.828   4.689  14.230  0.00  0.00    +0.000 A 
ATOM     14  C   UNL     1       5.161   3.750  13.431  0.00  0.00    +0.000 A 
ATOM     15  C   UNL     1       5.765   3.239  12.284  0.00  0.00    +0.000 A 
ATOM     16  C   UNL     1       7.033   3.677  11.912  0.00  0.00    +0.000 A 
ATOM     17  C   UNL     1       7.698   4.626  12.683  0.00  0.00    +0.000 A 
ATOM     18  C   UNL     1       7.098   5.135  13.836  0.00  0.00    +0.000 A 
ENDBRANCH  12  13
ENDBRANCH   2  12
BRANCH  10  19
ATOM     19  C   UNL     1       1.900   5.943  20.683  0.00  0.00    +0.000 C 
BRANCH  19  20
ATOM     20  C   UNL     1       1.691   7.365  20.187  0.00  0.00    +0.000 A 
ATOM     21  C   UNL     1       0.989   8.306  20.951  0.00  0.00    +0.000 A 
ATOM     22  C   UNL     1       0.816   9.578  20.426  0.00  0.00    +0.000 A 
ATOM     23  N   UNL     1       1.271   9.975  19.221  0.00  0.00    +0.000 NA
ATOM     24  C   UNL     1       1.950   9.052  18.504  0.00  0.00    +0.000 A 
ATOM     25  C   UNL     1       2.180   7.761  18.942  0.00  0.00    +0.000 A 
ENDBRANCH  19  20
ENDBRANCH  10  19
TORSDOF 4
ENDMDL
MODEL 5
REMARK VINA RESULT:      -7.5      9.436     11.651
REMARK  Name = 
REMARK  4 active torsions:
REMARK  status: ('A' for Active; 'I' for Inactive)
REMARK    1  A    between atoms: C_2  and  C_3
REMARK    2  A    between atoms: C_3  and  C_4
REMARK    3  A    between atoms: N_17  and  C_18
REMARK    4  A    between atoms: C_18  and  C_19
REMARK                            x       y       z     vdW  Elec       q    Type
REMARK                         _______ _______ _______ _____ _____    ______ ____
ROOT
ATOM      1  O   UNL     1      -0.946  10.592  23.300  0.00  0.00    +0.000 OA
ATOM      2  C   UNL     1      -1.248  11.492  22.511  0.00  0.00    +0.000 C 
ATOM      3  N   UNL     1      -1.045  11.366  21.141  0.00  0.00    +0.000 N 
ATOM      4  C   UNL     1      -0.390  10.150  20.663  0.00  0.00    +0.000 C 
ATOM      5  C   UNL     1       0.087  10.254  19.209  0.00  0.00    +0.000 C 
ATOM      6  C   UNL     1       0.876  11.553  18.968  0.00  0.00    +0.000 C 
ATOM      7  C   UNL     1       0.265  12.762  19.662  0.00  0.00    +0.000 C 
ATOM      8  C   UNL     1      -1.143  12.468  20.172  0.00  0.00    +0.000 C 
ATOM      9  C   UNL     1      -2.155  12.224  19.022  0.00  0.00    +0.000 C 
ATOM     10  N   UNL     1      -2.272  10.890  18.434  0.00  0.00    +0.000 NA
ATOM     11  C   UNL     1      -1.073  10.102  18.207  0.00  0.00    +0.000 C 
ENDROOT
BRANCH   2  12
ATOM     12  C   UNL     1      -1.855  12.786  23.033  0.00  0.00    +0.000 C 
BRANCH  12  13
ATOM     13  C   UNL     1      -3.362  12.749  23.152  0.00  0.00    +0.000 A 
ATOM     14  C   UNL     1      -4.179  12.914  22.025  0.00  0.00    +0.000 A 
ATOM     15  C   UNL     1      -5.567  12.906  22.147  0.00  0.00    +0.000 A 
ATOM     16  C   UNL     1      -6.154  12.713  23.395  0.00  0.00    +0.000 A 
ATOM     17  C   UNL     1      -5.356  12.525  24.520  0.00  0.00    +0.000 A 
ATOM     18  C   UNL     1      -3.965  12.538  24.401  0.00  0.00    +0.000 A 
ENDBRANCH  12  13
ENDBRANCH   2  12
BRANCH  10  19
ATOM     19  C   UNL     1      -3.257  10.804  17.341  0.00  0.00    +0.000 C 
BRANCH  19  20
ATOM     20  C   UNL     1      -4.681  11.211  17.685  0.00  0.00    +0.000 A 
ATOM     21  C   UNL     1      -5.415  10.532  18.665  0.00  0.00    +0.000 A 
ATOM     22  C   UNL     1      -6.718  10.943  18.910  0.00  0.00    +0.000 A 
ATOM     23  N   UNL     1      -7.335  11.952  18.262  0.00  0.00    +0.000 NA
ATOM     24  C   UNL     1      -6.604  12.596  17.325  0.00  0.00    +0.000 A 
ATOM     25  C   UNL     1      -5.298  12.266  17.012  0.00  0.00    +0.000 A 
ENDBRANCH  19  20
ENDBRANCH  10  19
TORSDOF 4
ENDMDL
MODEL 6
REMARK VINA RESULT:      -7.4      1.716      2.401
REMARK  Name = 
REMARK  4 active torsions:
REMARK  status: ('A' for Active; 'I' for Inactive)
REMARK    1  A    between atoms: C_2  and  C_3
REMARK    2  A    between atoms: C_3  and  C_4
REMARK    3  A    between atoms: N_17  and  C_18
REMARK    4  A    between atoms: C_18  and  C_19
REMARK                            x       y       z     vdW  Elec       q    Type
REMARK                         _______ _______ _______ _____ _____    ______ ____
ROOT
ATOM      1  O   UNL     1       8.922   7.524  19.368  0.00  0.00    +0.000 OA
ATOM      2  C   UNL     1       8.130   7.765  18.454  0.00  0.00    +0.000 C 
ATOM      3  N   UNL     1       7.209   6.820  18.012  0.00  0.00    +0.000 N 
ATOM      4  C   UNL     1       7.255   5.493  18.623  0.00  0.00    +0.000 C 
ATOM      5  C   UNL     1       6.448   4.444  17.848  0.00  0.00    +0.000 C 
ATOM      6  C   UNL     1       6.779   4.478  16.347  0.00  0.00    +0.000 C 
ATOM      7  C   UNL     1       6.926   5.890  15.798  0.00  0.00    +0.000 C 
ATOM      8  C   UNL     1       6.411   6.935  16.782  0.00  0.00    +0.000 C 
ATOM      9  C   UNL     1       4.878   6.844  17.001  0.00  0.00    +0.000 C 
ATOM     10  N   UNL     1       4.343   5.901  17.983  0.00  0.00    +0.000 NA
ATOM     11  C   UNL     1       4.934   4.579  18.098  0.00  0.00    +0.000 C 
ENDROOT
BRANCH   2  12
ATOM     12  C   UNL     1       8.148   9.126  17.772  0.00  0.00    +0.000 C 
BRANCH  12  13
ATOM     13  C   UNL     1       9.077  10.124  18.425  0.00  0.00    +0.000 A 
ATOM     14  C   UNL     1      10.018  10.836  17.667  0.00  0.00    +0.000 A 
ATOM     15  C   UNL     1      10.889  11.734  18.281  0.00  0.00    +0.000 A 
ATOM     16  C   UNL     1      10.817  11.944  19.655  0.00  0.00    +0.000 A 
ATOM     17  C   UNL     1       9.873  11.261  20.417  0.00  0.00    +0.000 A 
ATOM     18  C   UNL     1       9.002  10.357  19.806  0.00  0.00    +0.000 A 
ENDBRANCH  12  13
ENDBRANCH   2  12
BRANCH  10  19
ATOM     19  C   UNL     1       2.872   5.906  18.075  0.00  0.00    +0.000 C 
BRANCH  19  20
ATOM     20  C   UNL     1       2.243   7.128  18.725  0.00  0.00    +0.000 A 
ATOM     21  C   UNL     1       1.913   8.263  17.975  0.00  0.00    +0.000 A 
ATOM     22  C   UNL     1       1.364   9.350  18.638  0.00  0.00    +0.000 A 
ATOM     23  N   UNL     1       1.128   9.396  19.965  0.00  0.00    +0.000 NA
ATOM     24  C   UNL     1       1.449   8.287  20.668  0.00  0.00    +0.000 A 
ATOM     25  C   UNL     1       1.996   7.152  20.098  0.00  0.00    +0.000 A 
ENDBRANCH  19  20
ENDBRANCH  10  19
TORSDOF 4
ENDMDL
MODEL 7
REMARK VINA RESULT:      -7.4     10.505     13.305
REMARK  Name = 
REMARK  4 active torsions:
REMARK  status: ('A' for Active; 'I' for Inactive)
REMARK    1  A    between atoms: C_2  and  C_3
REMARK    2  A    between atoms: C_3  and  C_4
REMARK    3  A    between atoms: N_17  and  C_18
REMARK    4  A    between atoms: C_18  and  C_19
REMARK                            x       y       z     vdW  Elec       q    Type
REMARK                         _______ _______ _______ _____ _____    ______ ____
ROOT
ATOM      1  O   UNL     1      -7.020  10.461  18.453  0.00  0.00    +0.000 OA
ATOM      2  C   UNL     1      -6.360  11.487  18.638  0.00  0.00    +0.000 C 
ATOM      3  N   UNL     1      -6.371  12.157  19.857  0.00  0.00    +0.000 N 
ATOM      4  C   UNL     1      -7.253  11.644  20.903  0.00  0.00    +0.000 C 
ATOM      5  C   UNL     1      -7.447  12.627  22.064  0.00  0.00    +0.000 C 
ATOM      6  C   UNL     1      -7.797  14.036  21.555  0.00  0.00    +0.000 C 
ATOM      7  C   UNL     1      -6.992  14.446  20.329  0.00  0.00    +0.000 C 
ATOM      8  C   UNL     1      -5.820  13.502  20.081  0.00  0.00    +0.000 C 
ATOM      9  C   UNL     1      -4.747  13.577  21.199  0.00  0.00    +0.000 C 
ATOM     10  N   UNL     1      -4.912  12.781  22.414  0.00  0.00    +0.000 NA
ATOM     11  C   UNL     1      -6.231  12.653  23.010  0.00  0.00    +0.000 C 
ENDROOT
BRANCH   2  12
ATOM     12  C   UNL     1      -5.508  12.055  17.512  0.00  0.00    +0.000 C 
BRANCH  12  13
ATOM     13  C   UNL     1      -4.188  11.342  17.324  0.00  0.00    +0.000 A 
ATOM     14  C   UNL     1      -3.892  10.676  16.127  0.00  0.00    +0.000 A 
ATOM     15  C   UNL     1      -2.684   9.998  15.972  0.00  0.00    +0.000 A 
ATOM     16  C   UNL     1      -1.751   9.996  17.006  0.00  0.00    +0.000 A 
ATOM     17  C   UNL     1      -2.022  10.671  18.193  0.00  0.00    +0.000 A 
ATOM     18  C   UNL     1      -3.234  11.347  18.352  0.00  0.00    +0.000 A 
ENDBRANCH  12  13
ENDBRANCH   2  12
BRANCH  10  19
ATOM     19  C   UNL     1      -3.830  12.963  23.398  0.00  0.00    +0.000 C 
BRANCH  19  20
ATOM     20  C   UNL     1      -2.429  12.599  22.932  0.00  0.00    +0.000 A 
ATOM     21  C   UNL     1      -1.929  11.299  23.074  0.00  0.00    +0.000 A 
ATOM     22  C   UNL     1      -0.634  11.045  22.648  0.00  0.00    +0.000 A 
ATOM     23  N   UNL     1       0.188  11.968  22.110  0.00  0.00    +0.000 NA
ATOM     24  C   UNL     1      -0.317  13.214  21.977  0.00  0.00    +0.000 A 
ATOM     25  C   UNL     1      -1.597  13.566  22.366  0.00  0.00    +0.000 A 
ENDBRANCH  19  20
ENDBRANCH  10  19
TORSDOF 4
ENDMDL
MODEL 8
REMARK VINA RESULT:      -7.4      3.521      7.080
REMARK  Name = 
REMARK  4 active torsions:
REMARK  status: ('A' for Active; 'I' for Inactive)
REMARK    1  A    between atoms: C_2  and  C_3
REMARK    2  A    between atoms: C_3  and  C_4
REMARK    3  A    between atoms: N_17  and  C_18
REMARK    4  A    between atoms: C_18  and  C_19
REMARK                            x       y       z     vdW  Elec       q    Type
REMARK                         _______ _______ _______ _____ _____    ______ ____
ROOT
ATOM      1  O   UNL     1       3.833   3.188  18.721  0.00  0.00    +0.000 OA
ATOM      2  C   UNL     1       3.780   4.169  17.975  0.00  0.00    +0.000 C 
ATOM      3  N   UNL     1       4.914   4.680  17.353  0.00  0.00    +0.000 N 
ATOM      4  C   UNL     1       6.198   4.057  17.668  0.00  0.00    +0.000 C 
ATOM      5  C   UNL     1       7.401   4.890  17.209  0.00  0.00    +0.000 C 
ATOM      6  C   UNL     1       7.268   6.357  17.648  0.00  0.00    +0.000 C 
ATOM      7  C   UNL     1       5.856   6.903  17.494  0.00  0.00    +0.000 C 
ATOM      8  C   UNL     1       4.980   5.975  16.658  0.00  0.00    +0.000 C 
ATOM      9  C   UNL     1       5.444   5.888  15.181  0.00  0.00    +0.000 C 
ATOM     10  N   UNL     1       6.501   4.948  14.810  0.00  0.00    +0.000 NA
ATOM     11  C   UNL     1       7.642   4.772  15.692  0.00  0.00    +0.000 C 
ENDROOT
BRANCH   2  12
ATOM     12  C   UNL     1       2.446   4.858  17.720  0.00  0.00    +0.000 C 
BRANCH  12  13
ATOM     13  C   UNL     1       2.180   6.031  18.636  0.00  0.00    +0.000 A 
ATOM     14  C   UNL     1       1.958   5.840  20.007  0.00  0.00    +0.000 A 
ATOM     15  C   UNL     1       1.686   6.924  20.839  0.00  0.00    +0.000 A 
ATOM     16  C   UNL     1       1.653   8.213  20.314  0.00  0.00    +0.000 A 
ATOM     17  C   UNL     1       1.893   8.421  18.958  0.00  0.00    +0.000 A 
ATOM     18  C   UNL     1       2.160   7.336  18.121  0.00  0.00    +0.000 A 
ENDBRANCH  12  13
ENDBRANCH   2  12
BRANCH  10  19
ATOM     19  C   UNL     1       6.855   4.982  13.380  0.00  0.00    +0.000 C 
BRANCH  19  20
ATOM     20  C   UNL     1       6.437   3.776  12.554  0.00  0.00    +0.000 A 
ATOM     21  C   UNL     1       7.388   2.910  11.998  0.00  0.00    +0.000 A 
ATOM     22  C   UNL     1       6.935   1.843  11.237  0.00  0.00    +0.000 A 
ATOM     23  N   UNL     1       5.637   1.581  10.984  0.00  0.00    +0.000 NA
ATOM     24  C   UNL     1       4.738   2.426  11.534  0.00  0.00    +0.000 A 
ATOM     25  C   UNL     1       5.088   3.515  12.313  0.00  0.00    +0.000 A 
ENDBRANCH  19  20
ENDBRANCH  10  19
TORSDOF 4
ENDMDL
MODEL 9
REMARK VINA RESULT:      -7.4      1.988      8.075
REMARK  Name = 
REMARK  4 active torsions:
REMARK  status: ('A' for Active; 'I' for Inactive)
REMARK    1  A    between atoms: C_2  and  C_3
REMARK    2  A    between atoms: C_3  and  C_4
REMARK    3  A    between atoms: N_17  and  C_18
REMARK    4  A    between atoms: C_18  and  C_19
REMARK                            x       y       z     vdW  Elec       q    Type
REMARK                         _______ _______ _______ _____ _____    ______ ____
ROOT
ATOM      1  O   UNL     1       2.063   7.245  17.658  0.00  0.00    +0.000 OA
ATOM      2  C   UNL     1       2.859   6.648  18.389  0.00  0.00    +0.000 C 
ATOM      3  N   UNL     1       4.141   6.319  17.964  0.00  0.00    +0.000 N 
ATOM      4  C   UNL     1       4.501   6.642  16.584  0.00  0.00    +0.000 C 
ATOM      5  C   UNL     1       5.787   5.948  16.118  0.00  0.00    +0.000 C 
ATOM      6  C   UNL     1       5.765   4.446  16.447  0.00  0.00    +0.000 C 
ATOM      7  C   UNL     1       5.186   4.142  17.822  0.00  0.00    +0.000 C 
ATOM      8  C   UNL     1       5.052   5.404  18.669  0.00  0.00    +0.000 C 
ATOM      9  C   UNL     1       6.425   6.023  19.039  0.00  0.00    +0.000 C 
ATOM     10  N   UNL     1       7.086   6.928  18.099  0.00  0.00    +0.000 NA
ATOM     11  C   UNL     1       7.049   6.631  16.677  0.00  0.00    +0.000 C 
ENDROOT
BRANCH   2  12
ATOM     12  C   UNL     1       2.441   6.246  19.797  0.00  0.00    +0.000 C 
BRANCH  12  13
ATOM     13  C   UNL     1       1.994   4.807  19.914  0.00  0.00    +0.000 A 
ATOM     14  C   UNL     1       2.053   4.131  21.141  0.00  0.00    +0.000 A 
ATOM     15  C   UNL     1       1.665   2.796  21.235  0.00  0.00    +0.000 A 
ATOM     16  C   UNL     1       1.194   2.128  20.107  0.00  0.00    +0.000 A 
ATOM     17  C   UNL     1       1.109   2.792  18.886  0.00  0.00    +0.000 A 
ATOM     18  C   UNL     1       1.503   4.128  18.788  0.00  0.00    +0.000 A 
ENDBRANCH  12  13
ENDBRANCH   2  12
BRANCH  10  19
ATOM     19  C   UNL     1       8.390   7.427  18.569  0.00  0.00    +0.000 C 
BRANCH  19  20
ATOM     20  C   UNL     1       8.583   8.935  18.541  0.00  0.00    +0.000 A 
ATOM     21  C   UNL     1       9.344   9.590  19.517  0.00  0.00    +0.000 A 
ATOM     22  C   UNL     1       9.458  10.970  19.442  0.00  0.00    +0.000 A 
ATOM     23  N   UNL     1       8.878  11.735  18.495  0.00  0.00    +0.000 NA
ATOM     24  C   UNL     1       8.152  11.081  17.561  0.00  0.00    +0.000 A 
ATOM     25  C   UNL     1       7.983   9.708  17.545  0.00  0.00    +0.000 A 
ENDBRANCH  19  20
ENDBRANCH  10  19
TORSDOF 4
ENDMDL
