MODEL 1
REMARK VINA RESULT:      -6.7      0.000      0.000
REMARK  Name = 
REMARK  8 active torsions:
REMARK  status: ('A' for Active; 'I' for Inactive)
REMARK    1  A    between atoms: C_1  and  C_2
REMARK    2  A    between atoms: C_4  and  C_5
REMARK    3  A    between atoms: C_5  and  C_6
REMARK    4  A    between atoms: C_5  and  N_7
REMARK    5  A    between atoms: C_8  and  C_10
REMARK    6  A    between atoms: C_10  and  N_11
REMARK    7  A    between atoms: N_14  and  C_15
REMARK    8  A    between atoms: N_14  and  C_16
REMARK                            x       y       z     vdW  Elec       q    Type
REMARK                         _______ _______ _______ _____ _____    ______ ____
ROOT
ATOM      1  N   UNL     1       4.614   5.798  18.114  0.00  0.00    +0.000 N 
ATOM      2  C   UNL     1       3.592   6.681  17.872  0.00  0.00    +0.000 C 
ATOM      3  O   UNL     1       3.770   7.837  17.491  0.00  0.00    +0.000 OA
ATOM      4  H   UNL     1       4.404   4.846  18.395  0.00  0.00    +0.000 HD
ENDROOT
BRANCH   1   5
ATOM      5  C   UNL     1       6.018   6.121  17.877  0.00  0.00    +0.000 C 
ATOM      6  C   UNL     1       6.893   5.508  18.968  0.00  0.00    +0.000 C 
BRANCH   5  10
ATOM      7  C   UNL     1       5.972   3.778  13.501  0.00  0.00    +0.000 C 
ATOM      8  C   UNL     1       6.329   4.617  14.664  0.00  0.00    +0.000 A 
ATOM      9  N   UNL     1       5.639   4.804  15.767  0.00  0.00    +0.000 NA
ATOM     10  C   UNL     1       6.433   5.645  16.510  0.00  0.00    +0.000 A 
ATOM     11  N   UNL     1       7.576   6.008  15.901  0.00  0.00    +0.000 NA
ATOM     12  N   UNL     1       7.491   5.330  14.743  0.00  0.00    +0.000 N 
ATOM     13  H   UNL     1       8.245   5.396  14.071  0.00  0.00    +0.000 HD
ENDBRANCH   5  10
ENDBRANCH   1   5
BRANCH   2  14
ATOM     14  C   UNL     1       2.196   6.171  18.238  0.00  0.00    +0.000 C 
BRANCH  14  15
ATOM     15  N   UNL     1       2.265   4.774  18.641  0.00  0.00    +0.000 N 
ATOM     16  C   UNL     1       1.853   4.403  19.896  0.00  0.00    +0.000 C 
ATOM     17  O   UNL     1       1.502   5.250  20.713  0.00  0.00    +0.000 OA
ATOM     18  N   UNL     1       1.898   3.051  20.182  0.00  0.00    +0.000 N 
ATOM     19  C   UNL     1       2.298   1.971  19.289  0.00  0.00    +0.000 C 
ATOM     20  C   UNL     1       1.534   2.624  21.527  0.00  0.00    +0.000 C 
ATOM     21  H   UNL     1       2.153   4.109  17.893  0.00  0.00    +0.000 HD
ENDBRANCH  14  15
ENDBRANCH   2  14
TORSDOF 4
ENDMDL
MODEL 2
REMARK VINA RESULT:      -6.6      2.444      3.870
REMARK  Name = 
REMARK  8 active torsions:
REMARK  status: ('A' for Active; 'I' for Inactive)
REMARK    1  A    between atoms: C_1  and  C_2
REMARK    2  A    between atoms: C_4  and  C_5
REMARK    3  A    between atoms: C_5  and  C_6
REMARK    4  A    between atoms: C_5  and  N_7
REMARK    5  A    between atoms: C_8  and  C_10
REMARK    6  A    between atoms: C_10  and  N_11
REMARK    7  A    between atoms: N_14  and  C_15
REMARK    8  A    between atoms: N_14  and  C_16
REMARK                            x       y       z     vdW  Elec       q    Type
REMARK                         _______ _______ _______ _____ _____    ______ ____
ROOT
ATOM      1  N   UNL     1       5.033   4.534  17.460  0.00  0.00    +0.000 N 
ATOM      2  C   UNL     1       4.473   3.956  18.572  0.00  0.00    +0.000 C 
ATOM      3  O   UNL     1       5.109   3.277  19.376  0.00  0.00    +0.000 OA
ATOM      4  H   UNL     1       4.465   5.113  16.851  0.00  0.00    +0.000 HD
ENDROOT
BRANCH   1   5
ATOM      5  C   UNL     1       6.458   4.455  17.155  0.00  0.00    +0.000 C 
ATOM      6  C   UNL     1       6.675   4.417  15.643  0.00  0.00    +0.000 C 
BRANCH   5  10
ATOM      7  C   UNL     1       8.261   9.018  17.913  0.00  0.00    +0.000 C 
ATOM      8  C   UNL     1       7.907   7.588  18.033  0.00  0.00    +0.000 A 
ATOM      9  N   UNL     1       7.176   6.866  17.213  0.00  0.00    +0.000 NA
ATOM     10  C   UNL     1       7.185   5.615  17.783  0.00  0.00    +0.000 A 
ATOM     11  N   UNL     1       7.871   5.539  18.937  0.00  0.00    +0.000 NA
ATOM     12  N   UNL     1       8.329   6.796  19.062  0.00  0.00    +0.000 N 
ATOM     13  H   UNL     1       8.914   7.037  19.854  0.00  0.00    +0.000 HD
ENDBRANCH   5  10
ENDBRANCH   1   5
BRANCH   2  14
ATOM     14  C   UNL     1       2.954   4.105  18.683  0.00  0.00    +0.000 C 
BRANCH  14  15
ATOM     15  N   UNL     1       2.590   5.515  18.697  0.00  0.00    +0.000 N 
ATOM     16  C   UNL     1       2.189   6.107  19.867  0.00  0.00    +0.000 C 
ATOM     17  O   UNL     1       2.057   5.439  20.890  0.00  0.00    +0.000 OA
ATOM     18  N   UNL     1       1.914   7.460  19.808  0.00  0.00    +0.000 N 
ATOM     19  C   UNL     1       2.036   8.337  18.650  0.00  0.00    +0.000 C 
ATOM     20  C   UNL     1       1.420   8.111  21.015  0.00  0.00    +0.000 C 
ATOM     21  H   UNL     1       3.072   6.085  18.021  0.00  0.00    +0.000 HD
ENDBRANCH  14  15
ENDBRANCH   2  14
TORSDOF 4
ENDMDL
MODEL 3
REMARK VINA RESULT:      -6.4      1.136      1.278
REMARK  Name = 
REMARK  8 active torsions:
REMARK  status: ('A' for Active; 'I' for Inactive)
REMARK    1  A    between atoms: C_1  and  C_2
REMARK    2  A    between atoms: C_4  and  C_5
REMARK    3  A    between atoms: C_5  and  C_6
REMARK    4  A    between atoms: C_5  and  N_7
REMARK    5  A    between atoms: C_8  and  C_10
REMARK    6  A    between atoms: C_10  and  N_11
REMARK    7  A    between atoms: N_14  and  C_15
REMARK    8  A    between atoms: N_14  and  C_16
REMARK                            x       y       z     vdW  Elec       q    Type
REMARK                         _______ _______ _______ _____ _____    ______ ____
ROOT
ATOM      1  N   UNL     1       4.922   6.306  17.929  0.00  0.00    +0.000 N 
ATOM      2  C   UNL     1       3.702   6.934  17.962  0.00  0.00    +0.000 C 
ATOM      3  O   UNL     1       3.363   7.799  17.156  0.00  0.00    +0.000 OA
ATOM      4  H   UNL     1       5.132   5.575  18.601  0.00  0.00    +0.000 HD
ENDROOT
BRANCH   1   5
ATOM      5  C   UNL     1       5.916   6.553  16.890  0.00  0.00    +0.000 C 
ATOM      6  C   UNL     1       7.251   6.948  17.517  0.00  0.00    +0.000 C 
BRANCH   5  10
ATOM      7  C   UNL     1       6.301   3.672  12.865  0.00  0.00    +0.000 C 
ATOM      8  C   UNL     1       6.227   4.181  14.250  0.00  0.00    +0.000 A 
ATOM      9  N   UNL     1       6.100   5.428  14.645  0.00  0.00    +0.000 NA
ATOM     10  C   UNL     1       6.062   5.334  16.016  0.00  0.00    +0.000 A 
ATOM     11  N   UNL     1       6.186   4.080  16.487  0.00  0.00    +0.000 NA
ATOM     12  N   UNL     1       6.273   3.372  15.348  0.00  0.00    +0.000 N 
ATOM     13  H   UNL     1       6.356   2.363  15.394  0.00  0.00    +0.000 HD
ENDBRANCH   5  10
ENDBRANCH   1   5
BRANCH   2  14
ATOM     14  C   UNL     1       2.824   6.581  19.164  0.00  0.00    +0.000 C 
BRANCH  14  15
ATOM     15  N   UNL     1       3.126   5.232  19.624  0.00  0.00    +0.000 N 
ATOM     16  C   UNL     1       2.218   4.553  20.395  0.00  0.00    +0.000 C 
ATOM     17  O   UNL     1       1.185   5.101  20.771  0.00  0.00    +0.000 OA
ATOM     18  N   UNL     1       2.556   3.259  20.745  0.00  0.00    +0.000 N 
ATOM     19  C   UNL     1       3.752   2.522  20.355  0.00  0.00    +0.000 C 
ATOM     20  C   UNL     1       1.650   2.527  21.620  0.00  0.00    +0.000 C 
ATOM     21  H   UNL     1       3.718   4.697  19.010  0.00  0.00    +0.000 HD
ENDBRANCH  14  15
ENDBRANCH   2  14
TORSDOF 4
ENDMDL
MODEL 4
REMARK VINA RESULT:      -6.4      1.008      1.294
REMARK  Name = 
REMARK  8 active torsions:
REMARK  status: ('A' for Active; 'I' for Inactive)
REMARK    1  A    between atoms: C_1  and  C_2
REMARK    2  A    between atoms: C_4  and  C_5
REMARK    3  A    between atoms: C_5  and  C_6
REMARK    4  A    between atoms: C_5  and  N_7
REMARK    5  A    between atoms: C_8  and  C_10
REMARK    6  A    between atoms: C_10  and  N_11
REMARK    7  A    between atoms: N_14  and  C_15
REMARK    8  A    between atoms: N_14  and  C_16
REMARK                            x       y       z     vdW  Elec       q    Type
REMARK                         _______ _______ _______ _____ _____    ______ ____
ROOT
ATOM      1  N   UNL     1       5.368   5.523  17.900  0.00  0.00    +0.000 N 
ATOM      2  C   UNL     1       4.339   6.338  17.501  0.00  0.00    +0.000 C 
ATOM      3  O   UNL     1       4.454   7.195  16.626  0.00  0.00    +0.000 OA
ATOM      4  H   UNL     1       5.203   4.809  18.603  0.00  0.00    +0.000 HD
ENDROOT
BRANCH   1   5
ATOM      5  C   UNL     1       6.688   5.545  17.279  0.00  0.00    +0.000 C 
ATOM      6  C   UNL     1       7.712   4.867  18.188  0.00  0.00    +0.000 C 
BRANCH   5  10
ATOM      7  C   UNL     1       7.399   4.660  12.446  0.00  0.00    +0.000 C 
ATOM      8  C   UNL     1       6.991   4.579  13.864  0.00  0.00    +0.000 A 
ATOM      9  N   UNL     1       7.270   5.421  14.834  0.00  0.00    +0.000 NA
ATOM     10  C   UNL     1       6.634   4.883  15.927  0.00  0.00    +0.000 A 
ATOM     11  N   UNL     1       5.992   3.727  15.680  0.00  0.00    +0.000 NA
ATOM     12  N   UNL     1       6.222   3.567  14.365  0.00  0.00    +0.000 N 
ATOM     13  H   UNL     1       5.830   2.767  13.884  0.00  0.00    +0.000 HD
ENDBRANCH   5  10
ENDBRANCH   1   5
BRANCH   2  14
ATOM     14  C   UNL     1       3.050   6.201  18.315  0.00  0.00    +0.000 C 
BRANCH  14  15
ATOM     15  N   UNL     1       2.810   4.801  18.638  0.00  0.00    +0.000 N 
ATOM     16  C   UNL     1       2.285   4.461  19.859  0.00  0.00    +0.000 C 
ATOM     17  O   UNL     1       2.089   5.321  20.715  0.00  0.00    +0.000 OA
ATOM     18  N   UNL     1       2.036   3.118  20.067  0.00  0.00    +0.000 N 
ATOM     19  C   UNL     1       2.234   2.025  19.123  0.00  0.00    +0.000 C 
ATOM     20  C   UNL     1       1.542   2.709  21.376  0.00  0.00    +0.000 C 
ATOM     21  H   UNL     1       2.590   4.215  17.850  0.00  0.00    +0.000 HD
ENDBRANCH  14  15
ENDBRANCH   2  14
TORSDOF 4
ENDMDL
MODEL 5
REMARK VINA RESULT:      -6.4      1.482      1.833
REMARK  Name = 
REMARK  8 active torsions:
REMARK  status: ('A' for Active; 'I' for Inactive)
REMARK    1  A    between atoms: C_1  and  C_2
REMARK    2  A    between atoms: C_4  and  C_5
REMARK    3  A    between atoms: C_5  and  C_6
REMARK    4  A    between atoms: C_5  and  N_7
REMARK    5  A    between atoms: C_8  and  C_10
REMARK    6  A    between atoms: C_10  and  N_11
REMARK    7  A    between atoms: N_14  and  C_15
REMARK    8  A    between atoms: N_14  and  C_16
REMARK                            x       y       z     vdW  Elec       q    Type
REMARK                         _______ _______ _______ _____ _____    ______ ____
ROOT
ATOM      1  N   UNL     1       5.480   5.582  17.667  0.00  0.00    +0.000 N 
ATOM      2  C   UNL     1       4.512   6.433  17.196  0.00  0.00    +0.000 C 
ATOM      3  O   UNL     1       4.681   7.189  16.240  0.00  0.00    +0.000 OA
ATOM      4  H   UNL     1       5.270   4.956  18.438  0.00  0.00    +0.000 HD
ENDROOT
BRANCH   1   5
ATOM      5  C   UNL     1       6.789   5.439  17.039  0.00  0.00    +0.000 C 
ATOM      6  C   UNL     1       7.738   4.674  17.960  0.00  0.00    +0.000 C 
BRANCH   5  10
ATOM      7  C   UNL     1       7.283   4.407  12.208  0.00  0.00    +0.000 C 
ATOM      8  C   UNL     1       6.919   4.381  13.640  0.00  0.00    +0.000 A 
ATOM      9  N   UNL     1       7.281   5.226  14.580  0.00  0.00    +0.000 NA
ATOM     10  C   UNL     1       6.649   4.753  15.705  0.00  0.00    +0.000 A 
ATOM     11  N   UNL     1       5.930   3.634  15.506  0.00  0.00    +0.000 NA
ATOM     12  N   UNL     1       6.106   3.431  14.189  0.00  0.00    +0.000 N 
ATOM     13  H   UNL     1       5.649   2.647  13.740  0.00  0.00    +0.000 HD
ENDBRANCH   5  10
ENDBRANCH   1   5
BRANCH   2  14
ATOM     14  C   UNL     1       3.228   6.478  18.027  0.00  0.00    +0.000 C 
BRANCH  14  15
ATOM     15  N   UNL     1       3.104   5.264  18.821  0.00  0.00    +0.000 N 
ATOM     16  C   UNL     1       2.197   4.300  18.460  0.00  0.00    +0.000 C 
ATOM     17  O   UNL     1       1.431   4.486  17.518  0.00  0.00    +0.000 OA
ATOM     18  N   UNL     1       2.179   3.154  19.231  0.00  0.00    +0.000 N 
ATOM     19  C   UNL     1       3.041   2.837  20.365  0.00  0.00    +0.000 C 
ATOM     20  C   UNL     1       1.184   2.135  18.922  0.00  0.00    +0.000 C 
ATOM     21  H   UNL     1       3.950   4.967  19.279  0.00  0.00    +0.000 HD
ENDBRANCH  14  15
ENDBRANCH   2  14
TORSDOF 4
ENDMDL
MODEL 6
REMARK VINA RESULT:      -6.3      2.079      3.164
REMARK  Name = 
REMARK  8 active torsions:
REMARK  status: ('A' for Active; 'I' for Inactive)
REMARK    1  A    between atoms: C_1  and  C_2
REMARK    2  A    between atoms: C_4  and  C_5
REMARK    3  A    between atoms: C_5  and  C_6
REMARK    4  A    between atoms: C_5  and  N_7
REMARK    5  A    between atoms: C_8  and  C_10
REMARK    6  A    between atoms: C_10  and  N_11
REMARK    7  A    between atoms: N_14  and  C_15
REMARK    8  A    between atoms: N_14  and  C_16
REMARK                            x       y       z     vdW  Elec       q    Type
REMARK                         _______ _______ _______ _____ _____    ______ ____
ROOT
ATOM      1  N   UNL     1       5.751   3.723  16.540  0.00  0.00    +0.000 N 
ATOM      2  C   UNL     1       4.590   4.451  16.615  0.00  0.00    +0.000 C 
ATOM      3  O   UNL     1       4.541   5.668  16.438  0.00  0.00    +0.000 OA
ATOM      4  H   UNL     1       5.724   2.716  16.662  0.00  0.00    +0.000 HD
ENDROOT
BRANCH   1   5
ATOM      5  C   UNL     1       7.036   4.309  16.174  0.00  0.00    +0.000 C 
ATOM      6  C   UNL     1       6.981   4.862  14.752  0.00  0.00    +0.000 C 
BRANCH   5  10
ATOM      7  C   UNL     1       8.186   8.740  18.094  0.00  0.00    +0.000 C 
ATOM      8  C   UNL     1       7.887   7.306  17.901  0.00  0.00    +0.000 A 
ATOM      9  N   UNL     1       7.554   6.695  16.786  0.00  0.00    +0.000 NA
ATOM     10  C   UNL     1       7.415   5.380  17.163  0.00  0.00    +0.000 A 
ATOM     11  N   UNL     1       7.623   5.156  18.473  0.00  0.00    +0.000 NA
ATOM     12  N   UNL     1       7.935   6.388  18.911  0.00  0.00    +0.000 N 
ATOM     13  H   UNL     1       8.169   6.526  19.886  0.00  0.00    +0.000 HD
ENDBRANCH   5  10
ENDBRANCH   1   5
BRANCH   2  14
ATOM     14  C   UNL     1       3.360   3.664  17.070  0.00  0.00    +0.000 C 
BRANCH  14  15
ATOM     15  N   UNL     1       3.555   3.173  18.427  0.00  0.00    +0.000 N 
ATOM     16  C   UNL     1       2.616   3.436  19.392  0.00  0.00    +0.000 C 
ATOM     17  O   UNL     1       1.650   4.153  19.143  0.00  0.00    +0.000 OA
ATOM     18  N   UNL     1       2.848   2.888  20.639  0.00  0.00    +0.000 N 
ATOM     19  C   UNL     1       3.958   2.031  21.036  0.00  0.00    +0.000 C 
ATOM     20  C   UNL     1       1.910   3.201  21.710  0.00  0.00    +0.000 C 
ATOM     21  H   UNL     1       4.074   2.313  18.497  0.00  0.00    +0.000 HD
ENDBRANCH  14  15
ENDBRANCH   2  14
TORSDOF 4
ENDMDL
MODEL 7
REMARK VINA RESULT:      -6.3      2.436      4.048
REMARK  Name = 
REMARK  8 active torsions:
REMARK  status: ('A' for Active; 'I' for Inactive)
REMARK    1  A    between atoms: C_1  and  C_2
REMARK    2  A    between atoms: C_4  and  C_5
REMARK    3  A    between atoms: C_5  and  C_6
REMARK    4  A    between atoms: C_5  and  N_7
REMARK    5  A    between atoms: C_8  and  C_10
REMARK    6  A    between atoms: C_10  and  N_11
REMARK    7  A    between atoms: N_14  and  C_15
REMARK    8  A    between atoms: N_14  and  C_16
REMARK                            x       y       z     vdW  Elec       q    Type
REMARK                         _______ _______ _______ _____ _____    ______ ____
ROOT
ATOM      1  N   UNL     1       5.175   4.430  17.394  0.00  0.00    +0.000 N 
ATOM      2  C   UNL     1       4.656   3.987  18.585  0.00  0.00    +0.000 C 
ATOM      3  O   UNL     1       5.341   3.500  19.483  0.00  0.00    +0.000 OA
ATOM      4  H   UNL     1       4.565   4.855  16.703  0.00  0.00    +0.000 HD
ENDROOT
BRANCH   1   5
ATOM      5  C   UNL     1       6.605   4.431  17.100  0.00  0.00    +0.000 C 
ATOM      6  C   UNL     1       6.835   4.419  15.591  0.00  0.00    +0.000 C 
BRANCH   5  10
ATOM      7  C   UNL     1       8.198   9.066  17.889  0.00  0.00    +0.000 C 
ATOM      8  C   UNL     1       7.897   7.624  18.007  0.00  0.00    +0.000 A 
ATOM      9  N   UNL     1       7.224   6.870  17.167  0.00  0.00    +0.000 NA
ATOM     10  C   UNL     1       7.263   5.623  17.745  0.00  0.00    +0.000 A 
ATOM     11  N   UNL     1       7.912   5.580  18.922  0.00  0.00    +0.000 NA
ATOM     12  N   UNL     1       8.315   6.855  19.054  0.00  0.00    +0.000 N 
ATOM     13  H   UNL     1       8.863   7.124  19.863  0.00  0.00    +0.000 HD
ENDBRANCH   5  10
ENDBRANCH   1   5
BRANCH   2  14
ATOM     14  C   UNL     1       3.129   4.016  18.676  0.00  0.00    +0.000 C 
BRANCH  14  15
ATOM     15  N   UNL     1       2.694   5.214  19.380  0.00  0.00    +0.000 N 
ATOM     16  C   UNL     1       2.542   6.393  18.695  0.00  0.00    +0.000 C 
ATOM     17  O   UNL     1       2.848   6.468  17.508  0.00  0.00    +0.000 OA
ATOM     18  N   UNL     1       2.073   7.470  19.423  0.00  0.00    +0.000 N 
ATOM     19  C   UNL     1       1.686   7.486  20.829  0.00  0.00    +0.000 C 
ATOM     20  C   UNL     1       1.963   8.757  18.748  0.00  0.00    +0.000 C 
ATOM     21  H   UNL     1       2.093   5.048  20.171  0.00  0.00    +0.000 HD
ENDBRANCH  14  15
ENDBRANCH   2  14
TORSDOF 4
ENDMDL
MODEL 8
REMARK VINA RESULT:      -6.2      3.717      5.415
REMARK  Name = 
REMARK  8 active torsions:
REMARK  status: ('A' for Active; 'I' for Inactive)
REMARK    1  A    between atoms: C_1  and  C_2
REMARK    2  A    between atoms: C_4  and  C_5
REMARK    3  A    between atoms: C_5  and  C_6
REMARK    4  A    between atoms: C_5  and  N_7
REMARK    5  A    between atoms: C_8  and  C_10
REMARK    6  A    between atoms: C_10  and  N_11
REMARK    7  A    between atoms: N_14  and  C_15
REMARK    8  A    between atoms: N_14  and  C_16
REMARK                            x       y       z     vdW  Elec       q    Type
REMARK                         _______ _______ _______ _____ _____    ______ ____
ROOT
ATOM      1  N   UNL     1       2.518   6.722  18.017  0.00  0.00    +0.000 N 
ATOM      2  C   UNL     1       2.245   7.833  18.775  0.00  0.00    +0.000 C 
ATOM      3  O   UNL     1       1.977   7.786  19.975  0.00  0.00    +0.000 OA
ATOM      4  H   UNL     1       2.767   6.826  17.039  0.00  0.00    +0.000 HD
ENDROOT
BRANCH   1   5
ATOM      5  C   UNL     1       2.585   5.375  18.575  0.00  0.00    +0.000 C 
ATOM      6  C   UNL     1       1.632   4.445  17.827  0.00  0.00    +0.000 C 
BRANCH   5  10
ATOM      7  C   UNL     1       7.340   4.833  17.256  0.00  0.00    +0.000 C 
ATOM      8  C   UNL     1       6.019   4.706  17.905  0.00  0.00    +0.000 A 
ATOM      9  N   UNL     1       4.931   5.404  17.665  0.00  0.00    +0.000 NA
ATOM     10  C   UNL     1       4.002   4.864  18.522  0.00  0.00    +0.000 A 
ATOM     11  N   UNL     1       4.476   3.877  19.302  0.00  0.00    +0.000 NA
ATOM     12  N   UNL     1       5.749   3.788  18.880  0.00  0.00    +0.000 N 
ATOM     13  H   UNL     1       6.362   3.092  19.287  0.00  0.00    +0.000 HD
ENDBRANCH   5  10
ENDBRANCH   1   5
BRANCH   2  14
ATOM     14  C   UNL     1       2.165   9.146  17.994  0.00  0.00    +0.000 C 
BRANCH  14  15
ATOM     15  N   UNL     1       0.773   9.529  17.802  0.00  0.00    +0.000 N 
ATOM     16  C   UNL     1       0.208  10.483  18.609  0.00  0.00    +0.000 C 
ATOM     17  O   UNL     1       0.842  10.962  19.546  0.00  0.00    +0.000 OA
ATOM     18  N   UNL     1      -1.100  10.830  18.327  0.00  0.00    +0.000 N 
ATOM     19  C   UNL     1      -1.936  10.322  17.245  0.00  0.00    +0.000 C 
ATOM     20  C   UNL     1      -1.758  11.790  19.203  0.00  0.00    +0.000 C 
ATOM     21  H   UNL     1       0.438   9.453  16.855  0.00  0.00    +0.000 HD
ENDBRANCH  14  15
ENDBRANCH   2  14
TORSDOF 4
ENDMDL
MODEL 9
REMARK VINA RESULT:      -6.2      2.157      3.245
REMARK  Name = 
REMARK  8 active torsions:
REMARK  status: ('A' for Active; 'I' for Inactive)
REMARK    1  A    between atoms: C_1  and  C_2
REMARK    2  A    between atoms: C_4  and  C_5
REMARK    3  A    between atoms: C_5  and  C_6
REMARK    4  A    between atoms: C_5  and  N_7
REMARK    5  A    between atoms: C_8  and  C_10
REMARK    6  A    between atoms: C_10  and  N_11
REMARK    7  A    between atoms: N_14  and  C_15
REMARK    8  A    between atoms: N_14  and  C_16
REMARK                            x       y       z     vdW  Elec       q    Type
REMARK                         _______ _______ _______ _____ _____    ______ ____
ROOT
ATOM      1  N   UNL     1       4.867   4.082  15.815  0.00  0.00    +0.000 N 
ATOM      2  C   UNL     1       4.323   3.705  17.017  0.00  0.00    +0.000 C 
ATOM      3  O   UNL     1       4.995   3.329  17.977  0.00  0.00    +0.000 OA
ATOM      4  H   UNL     1       4.264   4.417  15.070  0.00  0.00    +0.000 HD
ENDROOT
BRANCH   1   5
ATOM      5  C   UNL     1       6.305   4.139  15.574  0.00  0.00    +0.000 C 
ATOM      6  C   UNL     1       6.584   4.498  14.117  0.00  0.00    +0.000 C 
BRANCH   5  10
ATOM      7  C   UNL     1       7.671   8.427  17.672  0.00  0.00    +0.000 C 
ATOM      8  C   UNL     1       7.474   6.998  17.349  0.00  0.00    +0.000 A 
ATOM      9  N   UNL     1       6.772   6.483  16.364  0.00  0.00    +0.000 NA
ATOM     10  C   UNL     1       6.946   5.127  16.514  0.00  0.00    +0.000 A 
ATOM     11  N   UNL     1       7.708   4.781  17.566  0.00  0.00    +0.000 NA
ATOM     12  N   UNL     1       8.040   5.984  18.066  0.00  0.00    +0.000 N 
ATOM     13  H   UNL     1       8.645   6.037  18.877  0.00  0.00    +0.000 HD
ENDBRANCH   5  10
ENDBRANCH   1   5
BRANCH   2  14
ATOM     14  C   UNL     1       2.794   3.657  17.050  0.00  0.00    +0.000 C 
BRANCH  14  15
ATOM     15  N   UNL     1       2.308   4.104  18.348  0.00  0.00    +0.000 N 
ATOM     16  C   UNL     1       2.052   3.188  19.336  0.00  0.00    +0.000 C 
ATOM     17  O   UNL     1       2.152   1.984  19.111  0.00  0.00    +0.000 OA
ATOM     18  N   UNL     1       1.647   3.697  20.555  0.00  0.00    +0.000 N 
ATOM     19  C   UNL     1       1.496   5.100  20.921  0.00  0.00    +0.000 C 
ATOM     20  C   UNL     1       1.299   2.753  21.610  0.00  0.00    +0.000 C 
ATOM     21  H   UNL     1       2.618   5.022  18.624  0.00  0.00    +0.000 HD
ENDBRANCH  14  15
ENDBRANCH   2  14
TORSDOF 4
ENDMDL
