MODEL 1
REMARK VINA RESULT:      -8.1      0.000      0.000
REMARK  Name = 
REMARK  2 active torsions:
REMARK  status: ('A' for Active; 'I' for Inactive)
REMARK    1  A    between atoms: N_1  and  C_2
REMARK    2  A    between atoms: C_9  and  C_10
REMARK                            x       y       z     vdW  Elec       q    Type
REMARK                         _______ _______ _______ _____ _____    ______ ____
ROOT
ATOM      1  C   UNL     1       3.418   2.263  18.771  0.00  0.00    +0.000 C 
ATOM      2  C   UNL     1       3.209   2.497  20.285  0.00  0.00    +0.000 C 
ATOM      3  C   UNL     1       2.554   3.870  20.517  0.00  0.00    +0.000 C 
ATOM      4  C   UNL     1       1.198   3.939  19.792  0.00  0.00    +0.000 C 
ATOM      5  C   UNL     1       1.417   3.726  18.280  0.00  0.00    +0.000 C 
ATOM      6  C   UNL     1       2.045   2.334  18.053  0.00  0.00    +0.000 C 
ATOM      7  C   UNL     1       2.352   4.835  17.719  0.00  0.00    +0.000 C 
ATOM      8  C   UNL     1       3.740   4.797  18.436  0.00  0.00    +0.000 C 
ATOM      9  C   UNL     1       3.480   4.970  19.971  0.00  0.00    +0.000 C 
ATOM     10  C   UNL     1       4.342   3.370  18.214  0.00  0.00    +0.000 C 
ENDROOT
BRANCH   8  11
ATOM     11  C   UNL     1       4.828   5.883  17.987  0.00  0.00    +0.000 C 
ATOM     12  C   UNL     1       6.327   5.628  18.339  0.00  0.00    +0.000 C 
ATOM     13  C   UNL     1       7.072   4.750  17.318  0.00  0.00    +0.000 C 
ATOM     14  C   UNL     1       6.962   5.359  15.916  0.00  0.00    +0.000 C 
ATOM     15  C   UNL     1       5.493   5.500  15.511  0.00  0.00    +0.000 C 
ATOM     16  C   UNL     1       4.759   6.400  16.517  0.00  0.00    +0.000 C 
ENDBRANCH   8  11
BRANCH   1  17
ATOM     17  N   UNL     1       4.040   0.950  18.561  0.00  0.00    +0.000 NA
ATOM     18  H   UNL     1       5.067   1.000  18.757  0.00  0.00    +0.000 HD
ATOM     19  H   UNL     1       3.617   0.238  19.202  0.00  0.00    +0.000 HD
ENDBRANCH   1  17
TORSDOF 2
ENDMDL
MODEL 2
REMARK VINA RESULT:      -8.1      1.667      4.918
REMARK  Name = 
REMARK  2 active torsions:
REMARK  status: ('A' for Active; 'I' for Inactive)
REMARK    1  A    between atoms: N_1  and  C_2
REMARK    2  A    between atoms: C_9  and  C_10
REMARK                            x       y       z     vdW  Elec       q    Type
REMARK                         _______ _______ _______ _____ _____    ______ ____
ROOT
ATOM      1  C   UNL     1       7.007   4.699  17.373  0.00  0.00    +0.000 C 
ATOM      2  C   UNL     1       6.558   4.040  16.048  0.00  0.00    +0.000 C 
ATOM      3  C   UNL     1       5.190   4.602  15.622  0.00  0.00    +0.000 C 
ATOM      4  C   UNL     1       5.278   6.128  15.436  0.00  0.00    +0.000 C 
ATOM      5  C   UNL     1       5.706   6.779  16.767  0.00  0.00    +0.000 C 
ATOM      6  C   UNL     1       7.093   6.235  17.173  0.00  0.00    +0.000 C 
ATOM      7  C   UNL     1       4.660   6.460  17.873  0.00  0.00    +0.000 C 
ATOM      8  C   UNL     1       4.541   4.917  18.086  0.00  0.00    +0.000 C 
ATOM      9  C   UNL     1       4.151   4.282  16.709  0.00  0.00    +0.000 C 
ATOM     10  C   UNL     1       5.962   4.387  18.469  0.00  0.00    +0.000 C 
ENDROOT
BRANCH   8  11
ATOM     11  C   UNL     1       3.495   4.407  19.187  0.00  0.00    +0.000 C 
ATOM     12  C   UNL     1       1.979   4.717  18.977  0.00  0.00    +0.000 C 
ATOM     13  C   UNL     1       1.245   3.695  18.093  0.00  0.00    +0.000 C 
ATOM     14  C   UNL     1       1.415   2.283  18.665  0.00  0.00    +0.000 C 
ATOM     15  C   UNL     1       2.898   1.921  18.761  0.00  0.00    +0.000 C 
ATOM     16  C   UNL     1       3.623   2.929  19.667  0.00  0.00    +0.000 C 
ENDBRANCH   8  11
BRANCH   1  17
ATOM     17  N   UNL     1       8.313   4.159  17.769  0.00  0.00    +0.000 NA
ATOM     18  H   UNL     1       8.299   3.113  17.733  0.00  0.00    +0.000 HD
ATOM     19  H   UNL     1       9.061   4.500  17.121  0.00  0.00    +0.000 HD
ENDBRANCH   1  17
TORSDOF 2
ENDMDL
MODEL 3
REMARK VINA RESULT:      -8.0      1.449      4.898
REMARK  Name = 
REMARK  2 active torsions:
REMARK  status: ('A' for Active; 'I' for Inactive)
REMARK    1  A    between atoms: N_1  and  C_2
REMARK    2  A    between atoms: C_9  and  C_10
REMARK                            x       y       z     vdW  Elec       q    Type
REMARK                         _______ _______ _______ _____ _____    ______ ____
ROOT
ATOM      1  C   UNL     1       6.088   4.341  16.341  0.00  0.00    +0.000 C 
ATOM      2  C   UNL     1       5.677   5.651  15.632  0.00  0.00    +0.000 C 
ATOM      3  C   UNL     1       5.529   6.781  16.666  0.00  0.00    +0.000 C 
ATOM      4  C   UNL     1       6.859   6.993  17.413  0.00  0.00    +0.000 C 
ATOM      5  C   UNL     1       7.251   5.688  18.134  0.00  0.00    +0.000 C 
ATOM      6  C   UNL     1       7.428   4.567  17.088  0.00  0.00    +0.000 C 
ATOM      7  C   UNL     1       6.148   5.297  19.159  0.00  0.00    +0.000 C 
ATOM      8  C   UNL     1       4.781   5.077  18.436  0.00  0.00    +0.000 C 
ATOM      9  C   UNL     1       4.433   6.402  17.676  0.00  0.00    +0.000 C 
ATOM     10  C   UNL     1       4.994   3.957  17.364  0.00  0.00    +0.000 C 
ENDROOT
BRANCH   8  11
ATOM     11  C   UNL     1       3.526   4.676  19.346  0.00  0.00    +0.000 C 
ATOM     12  C   UNL     1       2.096   5.079  18.865  0.00  0.00    +0.000 C 
ATOM     13  C   UNL     1       1.456   4.078  17.889  0.00  0.00    +0.000 C 
ATOM     14  C   UNL     1       1.421   2.679  18.512  0.00  0.00    +0.000 C 
ATOM     15  C   UNL     1       2.836   2.222  18.876  0.00  0.00    +0.000 C 
ATOM     16  C   UNL     1       3.462   3.210  19.873  0.00  0.00    +0.000 C 
ENDBRANCH   8  11
BRANCH   1  17
ATOM     17  N   UNL     1       6.229   3.270  15.345  0.00  0.00    +0.000 NA
ATOM     18  H   UNL     1       5.937   2.353  15.756  0.00  0.00    +0.000 HD
ATOM     19  H   UNL     1       5.627   3.466  14.512  0.00  0.00    +0.000 HD
ENDBRANCH   1  17
TORSDOF 2
ENDMDL
MODEL 4
REMARK VINA RESULT:      -8.0      1.493      4.880
REMARK  Name = 
REMARK  2 active torsions:
REMARK  status: ('A' for Active; 'I' for Inactive)
REMARK    1  A    between atoms: N_1  and  C_2
REMARK    2  A    between atoms: C_9  and  C_10
REMARK                            x       y       z     vdW  Elec       q    Type
REMARK                         _______ _______ _______ _____ _____    ______ ____
ROOT
ATOM      1  C   UNL     1       5.669   4.296  16.477  0.00  0.00    +0.000 C 
ATOM      2  C   UNL     1       5.808   5.613  15.679  0.00  0.00    +0.000 C 
ATOM      3  C   UNL     1       5.579   6.815  16.612  0.00  0.00    +0.000 C 
ATOM      4  C   UNL     1       6.604   6.797  17.761  0.00  0.00    +0.000 C 
ATOM      5  C   UNL     1       6.444   5.490  18.564  0.00  0.00    +0.000 C 
ATOM      6  C   UNL     1       6.705   4.289  17.631  0.00  0.00    +0.000 C 
ATOM      7  C   UNL     1       5.009   5.406  19.159  0.00  0.00    +0.000 C 
ATOM      8  C   UNL     1       3.941   5.426  18.019  0.00  0.00    +0.000 C 
ATOM      9  C   UNL     1       4.159   6.740  17.195  0.00  0.00    +0.000 C 
ATOM     10  C   UNL     1       4.244   4.217  17.073  0.00  0.00    +0.000 C 
ENDROOT
BRANCH   8  11
ATOM     11  C   UNL     1       2.402   5.356  18.455  0.00  0.00    +0.000 C 
ATOM     12  C   UNL     1       1.578   4.083  18.083  0.00  0.00    +0.000 C 
ATOM     13  C   UNL     1       1.711   2.931  19.094  0.00  0.00    +0.000 C 
ATOM     14  C   UNL     1       1.326   3.411  20.497  0.00  0.00    +0.000 C 
ATOM     15  C   UNL     1       2.212   4.583  20.922  0.00  0.00    +0.000 C 
ATOM     16  C   UNL     1       2.055   5.742  19.926  0.00  0.00    +0.000 C 
ENDBRANCH   8  11
BRANCH   1  17
ATOM     17  N   UNL     1       5.891   3.155  15.579  0.00  0.00    +0.000 NA
ATOM     18  H   UNL     1       6.418   3.462  14.728  0.00  0.00    +0.000 HD
ATOM     19  H   UNL     1       6.449   2.413  16.063  0.00  0.00    +0.000 HD
ENDBRANCH   1  17
TORSDOF 2
ENDMDL
MODEL 5
REMARK VINA RESULT:      -8.0      1.726      4.906
REMARK  Name = 
REMARK  2 active torsions:
REMARK  status: ('A' for Active; 'I' for Inactive)
REMARK    1  A    between atoms: N_1  and  C_2
REMARK    2  A    between atoms: C_9  and  C_10
REMARK                            x       y       z     vdW  Elec       q    Type
REMARK                         _______ _______ _______ _____ _____    ______ ____
ROOT
ATOM      1  C   UNL     1       6.217   5.432  18.645  0.00  0.00    +0.000 C 
ATOM      2  C   UNL     1       6.447   4.203  17.735  0.00  0.00    +0.000 C 
ATOM      3  C   UNL     1       5.499   4.264  16.524  0.00  0.00    +0.000 C 
ATOM      4  C   UNL     1       5.747   5.555  15.722  0.00  0.00    +0.000 C 
ATOM      5  C   UNL     1       5.495   6.775  16.630  0.00  0.00    +0.000 C 
ATOM      6  C   UNL     1       6.470   6.724  17.826  0.00  0.00    +0.000 C 
ATOM      7  C   UNL     1       4.024   6.764  17.136  0.00  0.00    +0.000 C 
ATOM      8  C   UNL     1       3.735   5.464  17.953  0.00  0.00    +0.000 C 
ATOM      9  C   UNL     1       4.044   4.245  17.020  0.00  0.00    +0.000 C 
ATOM     10  C   UNL     1       4.753   5.423  19.141  0.00  0.00    +0.000 C 
ENDROOT
BRANCH   8  11
ATOM     11  C   UNL     1       2.257   5.282  18.543  0.00  0.00    +0.000 C 
ATOM     12  C   UNL     1       1.412   4.057  18.073  0.00  0.00    +0.000 C 
ATOM     13  C   UNL     1       1.675   2.768  18.871  0.00  0.00    +0.000 C 
ATOM     14  C   UNL     1       1.449   3.016  20.366  0.00  0.00    +0.000 C 
ATOM     15  C   UNL     1       2.364   4.136  20.865  0.00  0.00    +0.000 C 
ATOM     16  C   UNL     1       2.079   5.429  20.085  0.00  0.00    +0.000 C 
ENDBRANCH   8  11
BRANCH   1  17
ATOM     17  N   UNL     1       7.127   5.365  19.795  0.00  0.00    +0.000 NA
ATOM     18  H   UNL     1       7.375   4.370  20.004  0.00  0.00    +0.000 HD
ATOM     19  H   UNL     1       8.011   5.889  19.592  0.00  0.00    +0.000 HD
ENDBRANCH   1  17
TORSDOF 2
ENDMDL
MODEL 6
REMARK VINA RESULT:      -7.9      1.877      5.017
REMARK  Name = 
REMARK  2 active torsions:
REMARK  status: ('A' for Active; 'I' for Inactive)
REMARK    1  A    between atoms: N_1  and  C_2
REMARK    2  A    between atoms: C_9  and  C_10
REMARK                            x       y       z     vdW  Elec       q    Type
REMARK                         _______ _______ _______ _____ _____    ______ ____
ROOT
ATOM      1  C   UNL     1       7.013   5.873  18.251  0.00  0.00    +0.000 C 
ATOM      2  C   UNL     1       7.403   4.701  17.321  0.00  0.00    +0.000 C 
ATOM      3  C   UNL     1       6.197   4.301  16.452  0.00  0.00    +0.000 C 
ATOM      4  C   UNL     1       5.734   5.500  15.604  0.00  0.00    +0.000 C 
ATOM      5  C   UNL     1       5.328   6.658  16.539  0.00  0.00    +0.000 C 
ATOM      6  C   UNL     1       6.549   7.075  17.387  0.00  0.00    +0.000 C 
ATOM      7  C   UNL     1       4.162   6.206  17.465  0.00  0.00    +0.000 C 
ATOM      8  C   UNL     1       4.596   4.986  18.339  0.00  0.00    +0.000 C 
ATOM      9  C   UNL     1       5.045   3.847  17.363  0.00  0.00    +0.000 C 
ATOM     10  C   UNL     1       5.850   5.425  19.165  0.00  0.00    +0.000 C 
ENDROOT
BRANCH   8  11
ATOM     11  C   UNL     1       3.508   4.383  19.348  0.00  0.00    +0.000 C 
ATOM     12  C   UNL     1       2.002   4.718  19.109  0.00  0.00    +0.000 C 
ATOM     13  C   UNL     1       1.301   3.785  18.107  0.00  0.00    +0.000 C 
ATOM     14  C   UNL     1       1.446   2.326  18.553  0.00  0.00    +0.000 C 
ATOM     15  C   UNL     1       2.924   1.950  18.672  0.00  0.00    +0.000 C 
ATOM     16  C   UNL     1       3.615   2.866  19.694  0.00  0.00    +0.000 C 
ENDBRANCH   8  11
BRANCH   1  17
ATOM     17  N   UNL     1       8.170   6.249  19.074  0.00  0.00    +0.000 NA
ATOM     18  H   UNL     1       8.841   5.448  19.142  0.00  0.00    +0.000 HD
ATOM     19  H   UNL     1       8.671   7.063  18.649  0.00  0.00    +0.000 HD
ENDBRANCH   1  17
TORSDOF 2
ENDMDL
MODEL 7
REMARK VINA RESULT:      -7.9      1.605      4.883
REMARK  Name = 
REMARK  2 active torsions:
REMARK  status: ('A' for Active; 'I' for Inactive)
REMARK    1  A    between atoms: N_1  and  C_2
REMARK    2  A    between atoms: C_9  and  C_10
REMARK                            x       y       z     vdW  Elec       q    Type
REMARK                         _______ _______ _______ _____ _____    ______ ____
ROOT
ATOM      1  C   UNL     1       5.905   4.364  15.896  0.00  0.00    +0.000 C 
ATOM      2  C   UNL     1       5.508   5.793  15.460  0.00  0.00    +0.000 C 
ATOM      3  C   UNL     1       5.103   6.621  16.692  0.00  0.00    +0.000 C 
ATOM      4  C   UNL     1       6.273   6.693  17.691  0.00  0.00    +0.000 C 
ATOM      5  C   UNL     1       6.649   5.265  18.137  0.00  0.00    +0.000 C 
ATOM      6  C   UNL     1       7.084   4.449  16.901  0.00  0.00    +0.000 C 
ATOM      7  C   UNL     1       5.430   4.588  18.826  0.00  0.00    +0.000 C 
ATOM      8  C   UNL     1       4.221   4.501  17.841  0.00  0.00    +0.000 C 
ATOM      9  C   UNL     1       3.893   5.959  17.372  0.00  0.00    +0.000 C 
ATOM     10  C   UNL     1       4.695   3.694  16.588  0.00  0.00    +0.000 C 
ENDROOT
BRANCH   8  11
ATOM     11  C   UNL     1       2.872   3.837  18.393  0.00  0.00    +0.000 C 
ATOM     12  C   UNL     1       2.969   2.486  19.170  0.00  0.00    +0.000 C 
ATOM     13  C   UNL     1       3.270   2.645  20.670  0.00  0.00    +0.000 C 
ATOM     14  C   UNL     1       2.223   3.551  21.327  0.00  0.00    +0.000 C 
ATOM     15  C   UNL     1       2.206   4.923  20.650  0.00  0.00    +0.000 C 
ATOM     16  C   UNL     1       1.878   4.763  19.158  0.00  0.00    +0.000 C 
ENDBRANCH   8  11
BRANCH   1  17
ATOM     17  N   UNL     1       6.293   3.582  14.715  0.00  0.00    +0.000 NA
ATOM     18  H   UNL     1       6.676   2.653  15.005  0.00  0.00    +0.000 HD
ATOM     19  H   UNL     1       5.463   3.419  14.098  0.00  0.00    +0.000 HD
ENDBRANCH   1  17
TORSDOF 2
ENDMDL
MODEL 8
REMARK VINA RESULT:      -7.9      0.703      1.013
REMARK  Name = 
REMARK  2 active torsions:
REMARK  status: ('A' for Active; 'I' for Inactive)
REMARK    1  A    between atoms: N_1  and  C_2
REMARK    2  A    between atoms: C_9  and  C_10
REMARK                            x       y       z     vdW  Elec       q    Type
REMARK                         _______ _______ _______ _____ _____    ______ ____
ROOT
ATOM      1  C   UNL     1       3.343   2.094  18.692  0.00  0.00    +0.000 C 
ATOM      2  C   UNL     1       3.629   2.585  20.130  0.00  0.00    +0.000 C 
ATOM      3  C   UNL     1       3.038   3.992  20.329  0.00  0.00    +0.000 C 
ATOM      4  C   UNL     1       1.517   3.967  20.084  0.00  0.00    +0.000 C 
ATOM      5  C   UNL     1       1.242   3.496  18.641  0.00  0.00    +0.000 C 
ATOM      6  C   UNL     1       1.810   2.073  18.458  0.00  0.00    +0.000 C 
ATOM      7  C   UNL     1       1.905   4.474  17.630  0.00  0.00    +0.000 C 
ATOM      8  C   UNL     1       3.451   4.528  17.851  0.00  0.00    +0.000 C 
ATOM      9  C   UNL     1       3.697   4.963  19.335  0.00  0.00    +0.000 C 
ATOM     10  C   UNL     1       3.998   3.071  17.687  0.00  0.00    +0.000 C 
ENDROOT
BRANCH   8  11
ATOM     11  C   UNL     1       4.296   5.498  16.897  0.00  0.00    +0.000 C 
ATOM     12  C   UNL     1       5.155   6.625  17.552  0.00  0.00    +0.000 C 
ATOM     13  C   UNL     1       6.555   6.169  17.997  0.00  0.00    +0.000 C 
ATOM     14  C   UNL     1       7.313   5.555  16.816  0.00  0.00    +0.000 C 
ATOM     15  C   UNL     1       6.535   4.369  16.243  0.00  0.00    +0.000 C 
ATOM     16  C   UNL     1       5.148   4.833  15.773  0.00  0.00    +0.000 C 
ENDBRANCH   8  11
BRANCH   1  17
ATOM     17  N   UNL     1       3.909   0.751  18.513  0.00  0.00    +0.000 NA
ATOM     18  H   UNL     1       4.407   0.687  17.595  0.00  0.00    +0.000 HD
ATOM     19  H   UNL     1       4.595   0.539  19.275  0.00  0.00    +0.000 HD
ENDBRANCH   1  17
TORSDOF 2
ENDMDL
MODEL 9
REMARK VINA RESULT:      -7.9      0.969      1.218
REMARK  Name = 
REMARK  2 active torsions:
REMARK  status: ('A' for Active; 'I' for Inactive)
REMARK    1  A    between atoms: N_1  and  C_2
REMARK    2  A    between atoms: C_9  and  C_10
REMARK                            x       y       z     vdW  Elec       q    Type
REMARK                         _______ _______ _______ _____ _____    ______ ____
ROOT
ATOM      1  C   UNL     1       3.898   2.682  19.746  0.00  0.00    +0.000 C 
ATOM      2  C   UNL     1       2.811   3.484  20.497  0.00  0.00    +0.000 C 
ATOM      3  C   UNL     1       2.018   4.349  19.501  0.00  0.00    +0.000 C 
ATOM      4  C   UNL     1       1.356   3.457  18.435  0.00  0.00    +0.000 C 
ATOM      5  C   UNL     1       2.448   2.675  17.676  0.00  0.00    +0.000 C 
ATOM      6  C   UNL     1       3.220   1.787  18.676  0.00  0.00    +0.000 C 
ATOM      7  C   UNL     1       3.421   3.668  16.979  0.00  0.00    +0.000 C 
ATOM      8  C   UNL     1       4.109   4.594  18.032  0.00  0.00    +0.000 C 
ATOM      9  C   UNL     1       2.975   5.337  18.815  0.00  0.00    +0.000 C 
ATOM     10  C   UNL     1       4.860   3.670  19.047  0.00  0.00    +0.000 C 
ENDROOT
BRANCH   8  11
ATOM     11  C   UNL     1       5.141   5.690  17.484  0.00  0.00    +0.000 C 
ATOM     12  C   UNL     1       6.662   5.497  17.780  0.00  0.00    +0.000 C 
ATOM     13  C   UNL     1       7.390   4.594  16.770  0.00  0.00    +0.000 C 
ATOM     14  C   UNL     1       7.200   5.130  15.348  0.00  0.00    +0.000 C 
ATOM     15  C   UNL     1       5.712   5.207  15.002  0.00  0.00    +0.000 C 
ATOM     16  C   UNL     1       4.992   6.132  15.996  0.00  0.00    +0.000 C 
ENDBRANCH   8  11
BRANCH   1  17
ATOM     17  N   UNL     1       4.647   1.858  20.704  0.00  0.00    +0.000 NA
ATOM     18  H   UNL     1       5.670   1.890  20.486  0.00  0.00    +0.000 HD
ATOM     19  H   UNL     1       4.506   2.213  21.679  0.00  0.00    +0.000 HD
ENDBRANCH   1  17
TORSDOF 2
ENDMDL
