MODEL 1
REMARK VINA RESULT:      -8.4      0.000      0.000
REMARK  Name = 
REMARK  7 active torsions:
REMARK  status: ('A' for Active; 'I' for Inactive)
REMARK    1  A    between atoms: C_1  and  C_2
REMARK    2  A    between atoms: C_6  and  O_7
REMARK    3  A    between atoms: O_7  and  C_8
REMARK    4  A    between atoms: C_8  and  C_9
REMARK    5  A    between atoms: N_11  and  C_12
REMARK    6  A    between atoms: C_12  and  C_13
REMARK    7  A    between atoms: C_16  and  O_17
REMARK                            x       y       z     vdW  Elec       q    Type
REMARK                         _______ _______ _______ _____ _____    ______ ____
ROOT
ATOM      1  C   UNL     1       7.920   7.781  17.966  0.00  0.00    +0.000 C 
ATOM      2  O   UNL     1       8.337   6.982  18.804  0.00  0.00    +0.000 OA
ATOM      3  N   UNL     1       7.127   7.392  16.906  0.00  0.00    +0.000 N 
ATOM      4  H   UNL     1       6.904   8.045  16.165  0.00  0.00    +0.000 HD
ENDROOT
BRANCH   1   5
ATOM      5  C   UNL     1       8.217   9.274  18.043  0.00  0.00    +0.000 C 
BRANCH   5   6
ATOM      6  O   UNL     1       9.116   9.527  19.113  0.00  0.00    +0.000 OA
BRANCH   6  12
ATOM      7  C   UNL     1      11.461  13.309  16.874  0.00  0.00    +0.000 C 
ATOM      8  C   UNL     1      10.923  12.626  18.098  0.00  0.00    +0.000 A 
ATOM      9  C   UNL     1      11.081  13.200  19.363  0.00  0.00    +0.000 A 
ATOM     10  C   UNL     1      10.580  12.552  20.492  0.00  0.00    +0.000 A 
ATOM     11  C   UNL     1       9.923  11.328  20.356  0.00  0.00    +0.000 A 
ATOM     12  C   UNL     1       9.761  10.737  19.104  0.00  0.00    +0.000 A 
ATOM     13  C   UNL     1      10.260  11.393  17.975  0.00  0.00    +0.000 A 
ENDBRANCH   6  12
ENDBRANCH   5   6
ENDBRANCH   1   5
BRANCH   3  14
ATOM     14  C   UNL     1       6.800   5.994  16.705  0.00  0.00    +0.000 C 
BRANCH  14  15
ATOM     15  C   UNL     1       5.806   5.422  17.693  0.00  0.00    +0.000 A 
ATOM     16  N   UNL     1       6.162   4.281  18.345  0.00  0.00    +0.000 NA
ATOM     17  N   UNL     1       5.318   3.726  19.253  0.00  0.00    +0.000 NA
ATOM     18  C   UNL     1       4.142   4.330  19.505  0.00  0.00    +0.000 A 
ATOM     19  C   UNL     1       3.714   5.502  18.891  0.00  0.00    +0.000 A 
ATOM     20  C   UNL     1       2.486   6.131  19.195  0.00  0.00    +0.000 A 
ATOM     21  C   UNL     1       2.112   7.318  18.566  0.00  0.00    +0.000 A 
ATOM     22  C   UNL     1       2.944   7.879  17.607  0.00  0.00    +0.000 A 
ATOM     23  C   UNL     1       4.155   7.261  17.286  0.00  0.00    +0.000 A 
ATOM     24  C   UNL     1       4.575   6.072  17.934  0.00  0.00    +0.000 A 
BRANCH  18  25
ATOM     25  O   UNL     1       3.379   3.703  20.448  0.00  0.00    +0.000 OA
ATOM     26  H   UNL     1       2.556   4.219  20.399  0.00  0.00    +0.000 HD
ENDBRANCH  18  25
ENDBRANCH  14  15
ENDBRANCH   3  14
TORSDOF 6
ENDMDL
MODEL 2
REMARK VINA RESULT:      -8.2      1.713      2.500
REMARK  Name = 
REMARK  7 active torsions:
REMARK  status: ('A' for Active; 'I' for Inactive)
REMARK    1  A    between atoms: C_1  and  C_2
REMARK    2  A    between atoms: C_6  and  O_7
REMARK    3  A    between atoms: O_7  and  C_8
REMARK    4  A    between atoms: C_8  and  C_9
REMARK    5  A    between atoms: N_11  and  C_12
REMARK    6  A    between atoms: C_12  and  C_13
REMARK    7  A    between atoms: C_16  and  O_17
REMARK                            x       y       z     vdW  Elec       q    Type
REMARK                         _______ _______ _______ _____ _____    ______ ____
ROOT
ATOM      1  C   UNL     1       8.111   8.046  17.861  0.00  0.00    +0.000 C 
ATOM      2  O   UNL     1       7.926   7.594  16.731  0.00  0.00    +0.000 OA
ATOM      3  N   UNL     1       8.232   7.234  18.970  0.00  0.00    +0.000 N 
ATOM      4  H   UNL     1       8.257   7.635  19.899  0.00  0.00    +0.000 HD
ENDROOT
BRANCH   1   5
ATOM      5  C   UNL     1       8.251   9.540  18.130  0.00  0.00    +0.000 C 
BRANCH   5   6
ATOM      6  O   UNL     1       9.210   9.752  19.156  0.00  0.00    +0.000 OA
BRANCH   6  12
ATOM      7  C   UNL     1      11.610  13.342  16.671  0.00  0.00    +0.000 C 
ATOM      8  C   UNL     1      11.158  12.691  17.947  0.00  0.00    +0.000 A 
ATOM      9  C   UNL     1      11.514  13.231  19.188  0.00  0.00    +0.000 A 
ATOM     10  C   UNL     1      11.092  12.615  20.365  0.00  0.00    +0.000 A 
ATOM     11  C   UNL     1      10.316  11.456  20.303  0.00  0.00    +0.000 A 
ATOM     12  C   UNL     1       9.956  10.900  19.075  0.00  0.00    +0.000 A 
ATOM     13  C   UNL     1      10.377  11.525  17.898  0.00  0.00    +0.000 A 
ENDBRANCH   6  12
ENDBRANCH   5   6
ENDBRANCH   1   5
BRANCH   3  14
ATOM     14  C   UNL     1       8.086   5.797  18.850  0.00  0.00    +0.000 C 
BRANCH  14  15
ATOM     15  C   UNL     1       6.673   5.318  18.596  0.00  0.00    +0.000 A 
ATOM     16  N   UNL     1       5.791   5.403  19.629  0.00  0.00    +0.000 NA
ATOM     17  N   UNL     1       4.505   5.001  19.459  0.00  0.00    +0.000 NA
ATOM     18  C   UNL     1       4.120   4.535  18.256  0.00  0.00    +0.000 A 
ATOM     19  C   UNL     1       4.958   4.430  17.151  0.00  0.00    +0.000 A 
ATOM     20  C   UNL     1       4.521   3.964  15.890  0.00  0.00    +0.000 A 
ATOM     21  C   UNL     1       5.395   3.898  14.807  0.00  0.00    +0.000 A 
ATOM     22  C   UNL     1       6.723   4.269  14.972  0.00  0.00    +0.000 A 
ATOM     23  C   UNL     1       7.173   4.718  16.216  0.00  0.00    +0.000 A 
ATOM     24  C   UNL     1       6.297   4.827  17.325  0.00  0.00    +0.000 A 
BRANCH  18  25
ATOM     25  O   UNL     1       2.804   4.178  18.186  0.00  0.00    +0.000 OA
ATOM     26  H   UNL     1       2.399   5.005  17.872  0.00  0.00    +0.000 HD
ENDBRANCH  18  25
ENDBRANCH  14  15
ENDBRANCH   3  14
TORSDOF 6
ENDMDL
MODEL 3
REMARK VINA RESULT:      -8.2      4.552      6.745
REMARK  Name = 
REMARK  7 active torsions:
REMARK  status: ('A' for Active; 'I' for Inactive)
REMARK    1  A    between atoms: C_1  and  C_2
REMARK    2  A    between atoms: C_6  and  O_7
REMARK    3  A    between atoms: O_7  and  C_8
REMARK    4  A    between atoms: C_8  and  C_9
REMARK    5  A    between atoms: N_11  and  C_12
REMARK    6  A    between atoms: C_12  and  C_13
REMARK    7  A    between atoms: C_16  and  O_17
REMARK                            x       y       z     vdW  Elec       q    Type
REMARK                         _______ _______ _______ _____ _____    ______ ____
ROOT
ATOM      1  C   UNL     1       2.997   3.732  19.767  0.00  0.00    +0.000 C 
ATOM      2  O   UNL     1       1.874   3.232  19.798  0.00  0.00    +0.000 OA
ATOM      3  N   UNL     1       3.234   5.038  20.146  0.00  0.00    +0.000 N 
ATOM      4  H   UNL     1       4.141   5.461  19.991  0.00  0.00    +0.000 HD
ENDROOT
BRANCH   1   5
ATOM      5  C   UNL     1       4.230   2.946  19.337  0.00  0.00    +0.000 C 
BRANCH   5   6
ATOM      6  O   UNL     1       5.396   3.722  19.571  0.00  0.00    +0.000 OA
BRANCH   6  12
ATOM      7  C   UNL     1       5.771   4.813  14.724  0.00  0.00    +0.000 C 
ATOM      8  C   UNL     1       6.128   5.047  16.163  0.00  0.00    +0.000 A 
ATOM      9  C   UNL     1       7.039   6.048  16.520  0.00  0.00    +0.000 A 
ATOM     10  C   UNL     1       7.365   6.252  17.860  0.00  0.00    +0.000 A 
ATOM     11  C   UNL     1       6.783   5.452  18.845  0.00  0.00    +0.000 A 
ATOM     12  C   UNL     1       5.878   4.446  18.509  0.00  0.00    +0.000 A 
ATOM     13  C   UNL     1       5.550   4.250  17.165  0.00  0.00    +0.000 A 
ENDBRANCH   6  12
ENDBRANCH   5   6
ENDBRANCH   1   5
BRANCH   3  14
ATOM     14  C   UNL     1       2.139   5.899  20.545  0.00  0.00    +0.000 C 
BRANCH  14  15
ATOM     15  C   UNL     1       2.032   7.196  19.770  0.00  0.00    +0.000 A 
ATOM     16  N   UNL     1       2.666   7.257  18.567  0.00  0.00    +0.000 NA
ATOM     17  N   UNL     1       2.596   8.389  17.819  0.00  0.00    +0.000 NA
ATOM     18  C   UNL     1       1.882   9.432  18.280  0.00  0.00    +0.000 A 
ATOM     19  C   UNL     1       1.197   9.442  19.491  0.00  0.00    +0.000 A 
ATOM     20  C   UNL     1       0.431  10.541  19.938  0.00  0.00    +0.000 A 
ATOM     21  C   UNL     1      -0.255  10.492  21.151  0.00  0.00    +0.000 A 
ATOM     22  C   UNL     1      -0.164   9.358  21.946  0.00  0.00    +0.000 A 
ATOM     23  C   UNL     1       0.602   8.269  21.524  0.00  0.00    +0.000 A 
ATOM     24  C   UNL     1       1.282   8.279  20.281  0.00  0.00    +0.000 A 
BRANCH  18  25
ATOM     25  O   UNL     1       1.859  10.511  17.444  0.00  0.00    +0.000 OA
ATOM     26  H   UNL     1       1.587  11.219  18.054  0.00  0.00    +0.000 HD
ENDBRANCH  18  25
ENDBRANCH  14  15
ENDBRANCH   3  14
TORSDOF 6
ENDMDL
MODEL 4
REMARK VINA RESULT:      -8.1      5.662      8.244
REMARK  Name = 
REMARK  7 active torsions:
REMARK  status: ('A' for Active; 'I' for Inactive)
REMARK    1  A    between atoms: C_1  and  C_2
REMARK    2  A    between atoms: C_6  and  O_7
REMARK    3  A    between atoms: O_7  and  C_8
REMARK    4  A    between atoms: C_8  and  C_9
REMARK    5  A    between atoms: N_11  and  C_12
REMARK    6  A    between atoms: C_12  and  C_13
REMARK    7  A    between atoms: C_16  and  O_17
REMARK                            x       y       z     vdW  Elec       q    Type
REMARK                         _______ _______ _______ _____ _____    ______ ____
ROOT
ATOM      1  C   UNL     1       1.879   8.829  18.354  0.00  0.00    +0.000 C 
ATOM      2  O   UNL     1       2.141   9.347  17.269  0.00  0.00    +0.000 OA
ATOM      3  N   UNL     1       2.444   7.638  18.759  0.00  0.00    +0.000 N 
ATOM      4  H   UNL     1       2.117   7.172  19.596  0.00  0.00    +0.000 HD
ENDROOT
BRANCH   1   5
ATOM      5  C   UNL     1       0.929   9.473  19.357  0.00  0.00    +0.000 C 
BRANCH   5   6
ATOM      6  O   UNL     1       0.452  10.706  18.839  0.00  0.00    +0.000 OA
BRANCH   6  12
ATOM      7  C   UNL     1      -4.171  12.441  19.505  0.00  0.00    +0.000 C 
ATOM      8  C   UNL     1      -3.177  11.561  18.803  0.00  0.00    +0.000 A 
ATOM      9  C   UNL     1      -3.584  10.700  17.778  0.00  0.00    +0.000 A 
ATOM     10  C   UNL     1      -2.652   9.885  17.137  0.00  0.00    +0.000 A 
ATOM     11  C   UNL     1      -1.310   9.929  17.523  0.00  0.00    +0.000 A 
ATOM     12  C   UNL     1      -0.886  10.776  18.546  0.00  0.00    +0.000 A 
ATOM     13  C   UNL     1      -1.824  11.595  19.181  0.00  0.00    +0.000 A 
ENDBRANCH   6  12
ENDBRANCH   5   6
ENDBRANCH   1   5
BRANCH   3  14
ATOM     14  C   UNL     1       3.340   6.911  17.881  0.00  0.00    +0.000 C 
BRANCH  14  15
ATOM     15  C   UNL     1       3.790   5.562  18.402  0.00  0.00    +0.000 A 
ATOM     16  N   UNL     1       5.081   5.454  18.817  0.00  0.00    +0.000 NA
ATOM     17  N   UNL     1       5.540   4.273  19.307  0.00  0.00    +0.000 NA
ATOM     18  C   UNL     1       4.697   3.228  19.386  0.00  0.00    +0.000 A 
ATOM     19  C   UNL     1       3.363   3.263  18.994  0.00  0.00    +0.000 A 
ATOM     20  C   UNL     1       2.491   2.158  19.115  0.00  0.00    +0.000 A 
ATOM     21  C   UNL     1       1.156   2.252  18.727  0.00  0.00    +0.000 A 
ATOM     22  C   UNL     1       0.678   3.439  18.189  0.00  0.00    +0.000 A 
ATOM     23  C   UNL     1       1.532   4.536  18.051  0.00  0.00    +0.000 A 
ATOM     24  C   UNL     1       2.885   4.478  18.467  0.00  0.00    +0.000 A 
BRANCH  18  25
ATOM     25  O   UNL     1       5.253   2.096  19.911  0.00  0.00    +0.000 OA
ATOM     26  H   UNL     1       5.348   2.347  20.846  0.00  0.00    +0.000 HD
ENDBRANCH  18  25
ENDBRANCH  14  15
ENDBRANCH   3  14
TORSDOF 6
ENDMDL
MODEL 5
REMARK VINA RESULT:      -8.0      6.351      8.792
REMARK  Name = 
REMARK  7 active torsions:
REMARK  status: ('A' for Active; 'I' for Inactive)
REMARK    1  A    between atoms: C_1  and  C_2
REMARK    2  A    between atoms: C_6  and  O_7
REMARK    3  A    between atoms: O_7  and  C_8
REMARK    4  A    between atoms: C_8  and  C_9
REMARK    5  A    between atoms: N_11  and  C_12
REMARK    6  A    between atoms: C_12  and  C_13
REMARK    7  A    between atoms: C_16  and  O_17
REMARK                            x       y       z     vdW  Elec       q    Type
REMARK                         _______ _______ _______ _____ _____    ______ ____
ROOT
ATOM      1  C   UNL     1       0.248   8.983  20.928  0.00  0.00    +0.000 C 
ATOM      2  O   UNL     1      -0.336   8.416  21.851  0.00  0.00    +0.000 OA
ATOM      3  N   UNL     1       1.301   8.400  20.253  0.00  0.00    +0.000 N 
ATOM      4  H   UNL     1       1.843   8.936  19.587  0.00  0.00    +0.000 HD
ENDROOT
BRANCH   1   5
ATOM      5  C   UNL     1      -0.159  10.365  20.430  0.00  0.00    +0.000 C 
BRANCH   5   6
ATOM      6  O   UNL     1      -0.100  10.396  19.011  0.00  0.00    +0.000 OA
BRANCH   6  12
ATOM      7  C   UNL     1      -3.208   9.859  15.154  0.00  0.00    +0.000 C 
ATOM      8  C   UNL     1      -2.865  10.408  16.509  0.00  0.00    +0.000 A 
ATOM      9  C   UNL     1      -3.763  11.231  17.195  0.00  0.00    +0.000 A 
ATOM     10  C   UNL     1      -3.430  11.738  18.451  0.00  0.00    +0.000 A 
ATOM     11  C   UNL     1      -2.194  11.424  19.020  0.00  0.00    +0.000 A 
ATOM     12  C   UNL     1      -1.283  10.609  18.349  0.00  0.00    +0.000 A 
ATOM     13  C   UNL     1      -1.625  10.100  17.093  0.00  0.00    +0.000 A 
ENDBRANCH   6  12
ENDBRANCH   5   6
ENDBRANCH   1   5
BRANCH   3  14
ATOM     14  C   UNL     1       1.803   7.101  20.653  0.00  0.00    +0.000 C 
BRANCH  14  15
ATOM     15  C   UNL     1       2.401   6.275  19.533  0.00  0.00    +0.000 A 
ATOM     16  N   UNL     1       3.310   6.886  18.726  0.00  0.00    +0.000 NA
ATOM     17  N   UNL     1       3.891   6.194  17.711  0.00  0.00    +0.000 NA
ATOM     18  C   UNL     1       3.563   4.901  17.532  0.00  0.00    +0.000 A 
ATOM     19  C   UNL     1       2.655   4.204  18.322  0.00  0.00    +0.000 A 
ATOM     20  C   UNL     1       2.350   2.838  18.130  0.00  0.00    +0.000 A 
ATOM     21  C   UNL     1       1.448   2.180  18.964  0.00  0.00    +0.000 A 
ATOM     22  C   UNL     1       0.816   2.881  19.982  0.00  0.00    +0.000 A 
ATOM     23  C   UNL     1       1.096   4.236  20.175  0.00  0.00    +0.000 A 
ATOM     24  C   UNL     1       2.034   4.921  19.363  0.00  0.00    +0.000 A 
BRANCH  18  25
ATOM     25  O   UNL     1       4.218   4.293  16.500  0.00  0.00    +0.000 OA
ATOM     26  H   UNL     1       3.934   3.369  16.613  0.00  0.00    +0.000 HD
ENDBRANCH  18  25
ENDBRANCH  14  15
ENDBRANCH   3  14
TORSDOF 6
ENDMDL
MODEL 6
REMARK VINA RESULT:      -8.0      5.961      8.791
REMARK  Name = 
REMARK  7 active torsions:
REMARK  status: ('A' for Active; 'I' for Inactive)
REMARK    1  A    between atoms: C_1  and  C_2
REMARK    2  A    between atoms: C_6  and  O_7
REMARK    3  A    between atoms: O_7  and  C_8
REMARK    4  A    between atoms: C_8  and  C_9
REMARK    5  A    between atoms: N_11  and  C_12
REMARK    6  A    between atoms: C_12  and  C_13
REMARK    7  A    between atoms: C_16  and  O_17
REMARK                            x       y       z     vdW  Elec       q    Type
REMARK                         _______ _______ _______ _____ _____    ______ ____
ROOT
ATOM      1  C   UNL     1       1.078   9.137  19.191  0.00  0.00    +0.000 C 
ATOM      2  O   UNL     1       0.963   9.186  20.415  0.00  0.00    +0.000 OA
ATOM      3  N   UNL     1       1.838   8.175  18.559  0.00  0.00    +0.000 N 
ATOM      4  H   UNL     1       2.018   8.233  17.565  0.00  0.00    +0.000 HD
ENDROOT
BRANCH   1   5
ATOM      5  C   UNL     1       0.366  10.116  18.264  0.00  0.00    +0.000 C 
BRANCH   5   6
ATOM      6  O   UNL     1      -0.863  10.520  18.851  0.00  0.00    +0.000 OA
BRANCH   6  12
ATOM      7  C   UNL     1      -3.196  10.003  14.479  0.00  0.00    +0.000 C 
ATOM      8  C   UNL     1      -3.141  10.486  15.900  0.00  0.00    +0.000 A 
ATOM      9  C   UNL     1      -4.213  11.193  16.455  0.00  0.00    +0.000 A 
ATOM     10  C   UNL     1      -4.147  11.641  17.774  0.00  0.00    +0.000 A 
ATOM     11  C   UNL     1      -3.007  11.384  18.538  0.00  0.00    +0.000 A 
ATOM     12  C   UNL     1      -1.926  10.686  18.000  0.00  0.00    +0.000 A 
ATOM     13  C   UNL     1      -2.000  10.235  16.679  0.00  0.00    +0.000 A 
ENDBRANCH   6  12
ENDBRANCH   5   6
ENDBRANCH   1   5
BRANCH   3  14
ATOM     14  C   UNL     1       2.590   7.205  19.332  0.00  0.00    +0.000 C 
BRANCH  14  15
ATOM     15  C   UNL     1       3.255   6.117  18.516  0.00  0.00    +0.000 A 
ATOM     16  N   UNL     1       4.376   6.455  17.823  0.00  0.00    +0.000 NA
ATOM     17  N   UNL     1       5.025   5.519  17.083  0.00  0.00    +0.000 NA
ATOM     18  C   UNL     1       4.551   4.260  17.061  0.00  0.00    +0.000 A 
ATOM     19  C   UNL     1       3.421   3.835  17.752  0.00  0.00    +0.000 A 
ATOM     20  C   UNL     1       2.961   2.499  17.736  0.00  0.00    +0.000 A 
ATOM     21  C   UNL     1       1.834   2.119  18.463  0.00  0.00    +0.000 A 
ATOM     22  C   UNL     1       1.136   3.070  19.194  0.00  0.00    +0.000 A 
ATOM     23  C   UNL     1       1.571   4.397  19.209  0.00  0.00    +0.000 A 
ATOM     24  C   UNL     1       2.732   4.804  18.505  0.00  0.00    +0.000 A 
BRANCH  18  25
ATOM     25  O   UNL     1       5.288   3.394  16.305  0.00  0.00    +0.000 OA
ATOM     26  H   UNL     1       5.003   2.537  16.666  0.00  0.00    +0.000 HD
ENDBRANCH  18  25
ENDBRANCH  14  15
ENDBRANCH   3  14
TORSDOF 6
ENDMDL
MODEL 7
REMARK VINA RESULT:      -8.0      4.707      7.175
REMARK  Name = 
REMARK  7 active torsions:
REMARK  status: ('A' for Active; 'I' for Inactive)
REMARK    1  A    between atoms: C_1  and  C_2
REMARK    2  A    between atoms: C_6  and  O_7
REMARK    3  A    between atoms: O_7  and  C_8
REMARK    4  A    between atoms: C_8  and  C_9
REMARK    5  A    between atoms: N_11  and  C_12
REMARK    6  A    between atoms: C_12  and  C_13
REMARK    7  A    between atoms: C_16  and  O_17
REMARK                            x       y       z     vdW  Elec       q    Type
REMARK                         _______ _______ _______ _____ _____    ______ ____
ROOT
ATOM      1  C   UNL     1       2.433   3.888  20.556  0.00  0.00    +0.000 C 
ATOM      2  O   UNL     1       1.294   3.495  20.806  0.00  0.00    +0.000 OA
ATOM      3  N   UNL     1       2.784   5.221  20.624  0.00  0.00    +0.000 N 
ATOM      4  H   UNL     1       3.689   5.531  20.292  0.00  0.00    +0.000 HD
ENDROOT
BRANCH   1   5
ATOM      5  C   UNL     1       3.562   2.936  20.178  0.00  0.00    +0.000 C 
BRANCH   5   6
ATOM      6  O   UNL     1       3.754   2.960  18.771  0.00  0.00    +0.000 OA
BRANCH   6  12
ATOM      7  C   UNL     1       7.736   5.951  18.898  0.00  0.00    +0.000 C 
ATOM      8  C   UNL     1       6.470   5.461  18.256  0.00  0.00    +0.000 A 
ATOM      9  C   UNL     1       6.000   6.039  17.072  0.00  0.00    +0.000 A 
ATOM     10  C   UNL     1       4.821   5.577  16.488  0.00  0.00    +0.000 A 
ATOM     11  C   UNL     1       4.108   4.539  17.091  0.00  0.00    +0.000 A 
ATOM     12  C   UNL     1       4.557   3.955  18.275  0.00  0.00    +0.000 A 
ATOM     13  C   UNL     1       5.743   4.418  18.852  0.00  0.00    +0.000 A 
ENDBRANCH   6  12
ENDBRANCH   5   6
ENDBRANCH   1   5
BRANCH   3  14
ATOM     14  C   UNL     1       1.793   6.229  20.942  0.00  0.00    +0.000 C 
BRANCH  14  15
ATOM     15  C   UNL     1       1.805   7.443  20.038  0.00  0.00    +0.000 A 
ATOM     16  N   UNL     1       2.487   7.341  18.865  0.00  0.00    +0.000 NA
ATOM     17  N   UNL     1       2.524   8.392  18.006  0.00  0.00    +0.000 NA
ATOM     18  C   UNL     1       1.866   9.521  18.328  0.00  0.00    +0.000 A 
ATOM     19  C   UNL     1       1.137   9.698  19.499  0.00  0.00    +0.000 A 
ATOM     20  C   UNL     1       0.431  10.884  19.800  0.00  0.00    +0.000 A 
ATOM     21  C   UNL     1      -0.302  11.004  20.979  0.00  0.00    +0.000 A 
ATOM     22  C   UNL     1      -0.320   9.954  21.887  0.00  0.00    +0.000 A 
ATOM     23  C   UNL     1       0.385   8.780  21.610  0.00  0.00    +0.000 A 
ATOM     24  C   UNL     1       1.111   8.620  20.404  0.00  0.00    +0.000 A 
BRANCH  18  25
ATOM     25  O   UNL     1       1.949  10.508  17.388  0.00  0.00    +0.000 OA
ATOM     26  H   UNL     1       1.591  10.054  16.605  0.00  0.00    +0.000 HD
ENDBRANCH  18  25
ENDBRANCH  14  15
ENDBRANCH   3  14
TORSDOF 6
ENDMDL
MODEL 8
REMARK VINA RESULT:      -8.0      5.407      7.612
REMARK  Name = 
REMARK  7 active torsions:
REMARK  status: ('A' for Active; 'I' for Inactive)
REMARK    1  A    between atoms: C_1  and  C_2
REMARK    2  A    between atoms: C_6  and  O_7
REMARK    3  A    between atoms: O_7  and  C_8
REMARK    4  A    between atoms: C_8  and  C_9
REMARK    5  A    between atoms: N_11  and  C_12
REMARK    6  A    between atoms: C_12  and  C_13
REMARK    7  A    between atoms: C_16  and  O_17
REMARK                            x       y       z     vdW  Elec       q    Type
REMARK                         _______ _______ _______ _____ _____    ______ ____
ROOT
ATOM      1  C   UNL     1       2.595   5.755  19.138  0.00  0.00    +0.000 C 
ATOM      2  O   UNL     1       1.908   5.556  18.137  0.00  0.00    +0.000 OA
ATOM      3  N   UNL     1       2.610   6.970  19.792  0.00  0.00    +0.000 N 
ATOM      4  H   UNL     1       3.277   7.146  20.533  0.00  0.00    +0.000 HD
ENDROOT
BRANCH   1   5
ATOM      5  C   UNL     1       3.467   4.670  19.760  0.00  0.00    +0.000 C 
BRANCH   5   6
ATOM      6  O   UNL     1       3.809   3.709  18.772  0.00  0.00    +0.000 OA
BRANCH   6  12
ATOM      7  C   UNL     1       6.096   4.003  14.356  0.00  0.00    +0.000 C 
ATOM      8  C   UNL     1       6.069   4.188  15.846  0.00  0.00    +0.000 A 
ATOM      9  C   UNL     1       7.189   4.679  16.525  0.00  0.00    +0.000 A 
ATOM     10  C   UNL     1       7.152   4.842  17.909  0.00  0.00    +0.000 A 
ATOM     11  C   UNL     1       5.995   4.510  18.616  0.00  0.00    +0.000 A 
ATOM     12  C   UNL     1       4.870   4.013  17.958  0.00  0.00    +0.000 A 
ATOM     13  C   UNL     1       4.911   3.858  16.570  0.00  0.00    +0.000 A 
ENDBRANCH   6  12
ENDBRANCH   5   6
ENDBRANCH   1   5
BRANCH   3  14
ATOM     14  C   UNL     1       1.848   8.092  19.280  0.00  0.00    +0.000 C 
BRANCH  14  15
ATOM     15  C   UNL     1       1.135   8.913  20.334  0.00  0.00    +0.000 A 
ATOM     16  N   UNL     1       1.460   8.676  21.634  0.00  0.00    +0.000 NA
ATOM     17  N   UNL     1       0.863   9.389  22.624  0.00  0.00    +0.000 NA
ATOM     18  C   UNL     1      -0.035  10.336  22.296  0.00  0.00    +0.000 A 
ATOM     19  C   UNL     1      -0.410  10.645  20.993  0.00  0.00    +0.000 A 
ATOM     20  C   UNL     1      -1.334  11.664  20.674  0.00  0.00    +0.000 A 
ATOM     21  C   UNL     1      -1.660  11.949  19.349  0.00  0.00    +0.000 A 
ATOM     22  C   UNL     1      -1.089  11.205  18.326  0.00  0.00    +0.000 A 
ATOM     23  C   UNL     1      -0.184  10.185  18.626  0.00  0.00    +0.000 A 
ATOM     24  C   UNL     1       0.190   9.896  19.962  0.00  0.00    +0.000 A 
BRANCH  18  25
ATOM     25  O   UNL     1      -0.559  11.007  23.363  0.00  0.00    +0.000 OA
ATOM     26  H   UNL     1      -1.412  11.304  23.000  0.00  0.00    +0.000 HD
ENDBRANCH  18  25
ENDBRANCH  14  15
ENDBRANCH   3  14
TORSDOF 6
ENDMDL
MODEL 9
REMARK VINA RESULT:      -8.0      5.362      7.701
REMARK  Name = 
REMARK  7 active torsions:
REMARK  status: ('A' for Active; 'I' for Inactive)
REMARK    1  A    between atoms: C_1  and  C_2
REMARK    2  A    between atoms: C_6  and  O_7
REMARK    3  A    between atoms: O_7  and  C_8
REMARK    4  A    between atoms: C_8  and  C_9
REMARK    5  A    between atoms: N_11  and  C_12
REMARK    6  A    between atoms: C_12  and  C_13
REMARK    7  A    between atoms: C_16  and  O_17
REMARK                            x       y       z     vdW  Elec       q    Type
REMARK                         _______ _______ _______ _____ _____    ______ ____
ROOT
ATOM      1  C   UNL     1       1.979   4.900  20.070  0.00  0.00    +0.000 C 
ATOM      2  O   UNL     1       0.935   4.433  20.526  0.00  0.00    +0.000 OA
ATOM      3  N   UNL     1       2.377   6.197  20.320  0.00  0.00    +0.000 N 
ATOM      4  H   UNL     1       3.171   6.593  19.832  0.00  0.00    +0.000 HD
ENDROOT
BRANCH   1   5
ATOM      5  C   UNL     1       2.936   4.078  19.215  0.00  0.00    +0.000 C 
BRANCH   5   6
ATOM      6  O   UNL     1       4.181   4.754  19.110  0.00  0.00    +0.000 OA
BRANCH   6  12
ATOM      7  C   UNL     1       6.138   3.758  14.638  0.00  0.00    +0.000 C 
ATOM      8  C   UNL     1       5.543   4.705  15.640  0.00  0.00    +0.000 A 
ATOM      9  C   UNL     1       5.392   6.062  15.337  0.00  0.00    +0.000 A 
ATOM     10  C   UNL     1       4.842   6.932  16.278  0.00  0.00    +0.000 A 
ATOM     11  C   UNL     1       4.445   6.445  17.525  0.00  0.00    +0.000 A 
ATOM     12  C   UNL     1       4.593   5.096  17.847  0.00  0.00    +0.000 A 
ATOM     13  C   UNL     1       5.139   4.228  16.898  0.00  0.00    +0.000 A 
ENDBRANCH   6  12
ENDBRANCH   5   6
ENDBRANCH   1   5
BRANCH   3  14
ATOM     14  C   UNL     1       1.538   7.089  21.094  0.00  0.00    +0.000 C 
BRANCH  14  15
ATOM     15  C   UNL     1       1.249   8.423  20.438  0.00  0.00    +0.000 A 
ATOM     16  N   UNL     1       1.702   8.604  19.168  0.00  0.00    +0.000 NA
ATOM     17  N   UNL     1       1.463   9.774  18.521  0.00  0.00    +0.000 NA
ATOM     18  C   UNL     1       0.763  10.736  19.150  0.00  0.00    +0.000 A 
ATOM     19  C   UNL     1       0.255  10.621  20.440  0.00  0.00    +0.000 A 
ATOM     20  C   UNL     1      -0.502  11.636  21.067  0.00  0.00    +0.000 A 
ATOM     21  C   UNL     1      -1.006  11.464  22.355  0.00  0.00    +0.000 A 
ATOM     22  C   UNL     1      -0.739  10.289  23.046  0.00  0.00    +0.000 A 
ATOM     23  C   UNL     1       0.020   9.283  22.444  0.00  0.00    +0.000 A 
ATOM     24  C   UNL     1       0.517   9.419  21.124  0.00  0.00    +0.000 A 
BRANCH  18  25
ATOM     25  O   UNL     1       0.560  11.862  18.405  0.00  0.00    +0.000 OA
ATOM     26  H   UNL     1       1.030  12.528  18.937  0.00  0.00    +0.000 HD
ENDBRANCH  18  25
ENDBRANCH  14  15
ENDBRANCH   3  14
TORSDOF 6
ENDMDL
