MODEL 1
REMARK VINA RESULT:      -7.9      0.000      0.000
REMARK  Name = 
REMARK  7 active torsions:
REMARK  status: ('A' for Active; 'I' for Inactive)
REMARK    1  A    between atoms: C_2  and  C_14
REMARK    2  A    between atoms: N_3  and  C_4
REMARK    3  A    between atoms: C_4  and  C_5
REMARK    4  A    between atoms: C_5  and  N_6
REMARK    5  A    between atoms: C_11  and  C_12
REMARK    6  A    between atoms: C_12  and  O_13
REMARK    7  A    between atoms: C_16  and  C_17
REMARK                            x       y       z     vdW  Elec       q    Type
REMARK                         _______ _______ _______ _____ _____    ______ ____
ROOT
ATOM      1  O   UNL     1       5.827   6.837  15.989  0.00  0.00    +0.000 OA
ATOM      2  C   UNL     1       6.305   6.508  17.077  0.00  0.00    +0.000 C 
ATOM      3  N   UNL     1       5.924   5.339  17.710  0.00  0.00    +0.000 N 
ATOM      4  H   UNL     1       6.251   5.142  18.652  0.00  0.00    +0.000 HD
ENDROOT
BRANCH   2   5
ATOM      5  C   UNL     1       7.284   7.355  17.754  0.00  0.00    +0.000 A 
ATOM      6  C   UNL     1       7.455   8.743  17.513  0.00  0.00    +0.000 A 
ATOM      7  C   UNL     1       8.455   9.141  18.361  0.00  0.00    +0.000 A 
ATOM      8  O   UNL     1       8.880   8.048  19.063  0.00  0.00    +0.000 OA
ATOM      9  N   UNL     1       8.143   6.925  18.691  0.00  0.00    +0.000 NA
BRANCH   7  10
ATOM     10  C   UNL     1       9.089  10.424  18.651  0.00  0.00    +0.000 A 
ATOM     11  C   UNL     1       8.883  11.524  17.799  0.00  0.00    +0.000 A 
ATOM     12  C   UNL     1       9.457  12.769  18.075  0.00  0.00    +0.000 A 
ATOM     13  C   UNL     1      10.249  12.934  19.207  0.00  0.00    +0.000 A 
ATOM     14  C   UNL     1      10.473  11.854  20.058  0.00  0.00    +0.000 A 
ATOM     15  C   UNL     1       9.899  10.609  19.781  0.00  0.00    +0.000 A 
ENDBRANCH   7  10
ENDBRANCH   2   5
BRANCH   3  16
ATOM     16  C   UNL     1       4.904   4.525  17.083  0.00  0.00    +0.000 C 
BRANCH  16  17
ATOM     17  C   UNL     1       3.450   4.827  17.482  0.00  0.00    +0.000 C 
BRANCH  17  18
ATOM     18  N   UNL     1       3.005   4.277  18.771  0.00  0.00    +0.000 NA
ATOM     19  C   UNL     1       1.550   4.264  18.955  0.00  0.00    +0.000 C 
ATOM     20  C   UNL     1       1.191   3.930  20.406  0.00  0.00    +0.000 C 
ATOM     21  C   UNL     1       1.872   2.662  20.910  0.00  0.00    +0.000 C 
ATOM     22  C   UNL     1       3.364   2.677  20.577  0.00  0.00    +0.000 C 
ATOM     23  C   UNL     1       3.618   2.958  19.083  0.00  0.00    +0.000 C 
BRANCH  23  24
ATOM     24  C   UNL     1       3.175   1.719  18.249  0.00  0.00    +0.000 C 
BRANCH  24  25
ATOM     25  O   UNL     1       4.076   0.624  18.350  0.00  0.00    +0.000 OA
ATOM     26  H   UNL     1       3.529  -0.179  18.389  0.00  0.00    +0.000 HD
ENDBRANCH  24  25
ENDBRANCH  23  24
ENDBRANCH  17  18
ENDBRANCH  16  17
ENDBRANCH   3  16
TORSDOF 7
ENDMDL
MODEL 2
REMARK VINA RESULT:      -7.7      0.903      1.213
REMARK  Name = 
REMARK  7 active torsions:
REMARK  status: ('A' for Active; 'I' for Inactive)
REMARK    1  A    between atoms: C_2  and  C_14
REMARK    2  A    between atoms: N_3  and  C_4
REMARK    3  A    between atoms: C_4  and  C_5
REMARK    4  A    between atoms: C_5  and  N_6
REMARK    5  A    between atoms: C_11  and  C_12
REMARK    6  A    between atoms: C_12  and  O_13
REMARK    7  A    between atoms: C_16  and  C_17
REMARK                            x       y       z     vdW  Elec       q    Type
REMARK                         _______ _______ _______ _____ _____    ______ ____
ROOT
ATOM      1  O   UNL     1       7.036   5.882  15.683  0.00  0.00    +0.000 OA
ATOM      2  C   UNL     1       6.709   6.136  16.844  0.00  0.00    +0.000 C 
ATOM      3  N   UNL     1       5.571   5.590  17.410  0.00  0.00    +0.000 N 
ATOM      4  H   UNL     1       5.264   5.897  18.329  0.00  0.00    +0.000 HD
ENDROOT
BRANCH   2   5
ATOM      5  C   UNL     1       7.502   7.046  17.666  0.00  0.00    +0.000 A 
ATOM      6  C   UNL     1       7.691   8.426  17.392  0.00  0.00    +0.000 A 
ATOM      7  C   UNL     1       8.479   8.897  18.410  0.00  0.00    +0.000 A 
ATOM      8  O   UNL     1       8.768   7.853  19.244  0.00  0.00    +0.000 OA
ATOM      9  N   UNL     1       8.152   6.690  18.786  0.00  0.00    +0.000 NA
BRANCH   7  10
ATOM     10  C   UNL     1       9.009  10.212  18.758  0.00  0.00    +0.000 A 
ATOM     11  C   UNL     1       8.948  11.267  17.831  0.00  0.00    +0.000 A 
ATOM     12  C   UNL     1       9.423  12.542  18.154  0.00  0.00    +0.000 A 
ATOM     13  C   UNL     1       9.970  12.782  19.411  0.00  0.00    +0.000 A 
ATOM     14  C   UNL     1      10.048  11.746  20.340  0.00  0.00    +0.000 A 
ATOM     15  C   UNL     1       9.573  10.472  20.016  0.00  0.00    +0.000 A 
ENDBRANCH   7  10
ENDBRANCH   2   5
BRANCH   3  16
ATOM     16  C   UNL     1       4.738   4.742  16.584  0.00  0.00    +0.000 C 
BRANCH  16  17
ATOM     17  C   UNL     1       4.284   3.412  17.210  0.00  0.00    +0.000 C 
BRANCH  17  18
ATOM     18  N   UNL     1       3.098   3.477  18.078  0.00  0.00    +0.000 NA
ATOM     19  C   UNL     1       2.206   2.318  17.972  0.00  0.00    +0.000 C 
ATOM     20  C   UNL     1       0.883   2.587  18.697  0.00  0.00    +0.000 C 
ATOM     21  C   UNL     1       1.078   3.067  20.131  0.00  0.00    +0.000 C 
ATOM     22  C   UNL     1       2.113   4.190  20.192  0.00  0.00    +0.000 C 
ATOM     23  C   UNL     1       3.429   3.799  19.492  0.00  0.00    +0.000 C 
BRANCH  23  24
ATOM     24  C   UNL     1       4.161   2.721  20.346  0.00  0.00    +0.000 C 
BRANCH  24  25
ATOM     25  O   UNL     1       5.016   1.884  19.577  0.00  0.00    +0.000 OA
ATOM     26  H   UNL     1       5.001   1.011  20.005  0.00  0.00    +0.000 HD
ENDBRANCH  24  25
ENDBRANCH  23  24
ENDBRANCH  17  18
ENDBRANCH  16  17
ENDBRANCH   3  16
TORSDOF 7
ENDMDL
MODEL 3
REMARK VINA RESULT:      -7.7      1.794      2.484
REMARK  Name = 
REMARK  7 active torsions:
REMARK  status: ('A' for Active; 'I' for Inactive)
REMARK    1  A    between atoms: C_2  and  C_14
REMARK    2  A    between atoms: N_3  and  C_4
REMARK    3  A    between atoms: C_4  and  C_5
REMARK    4  A    between atoms: C_5  and  N_6
REMARK    5  A    between atoms: C_11  and  C_12
REMARK    6  A    between atoms: C_12  and  O_13
REMARK    7  A    between atoms: C_16  and  C_17
REMARK                            x       y       z     vdW  Elec       q    Type
REMARK                         _______ _______ _______ _____ _____    ______ ____
ROOT
ATOM      1  O   UNL     1       7.768   4.885  17.322  0.00  0.00    +0.000 OA
ATOM      2  C   UNL     1       7.146   5.750  17.941  0.00  0.00    +0.000 C 
ATOM      3  N   UNL     1       6.038   5.435  18.707  0.00  0.00    +0.000 N 
ATOM      4  H   UNL     1       5.479   6.177  19.121  0.00  0.00    +0.000 HD
ENDROOT
BRANCH   2   5
ATOM      5  C   UNL     1       7.543   7.154  17.873  0.00  0.00    +0.000 A 
ATOM      6  C   UNL     1       8.420   7.791  18.789  0.00  0.00    +0.000 A 
ATOM      7  C   UNL     1       8.529   9.086  18.353  0.00  0.00    +0.000 A 
ATOM      8  O   UNL     1       7.743   9.229  17.244  0.00  0.00    +0.000 OA
ATOM      9  N   UNL     1       7.126   8.019  16.935  0.00  0.00    +0.000 NA
BRANCH   7  10
ATOM     10  C   UNL     1       9.290  10.248  18.803  0.00  0.00    +0.000 A 
ATOM     11  C   UNL     1       9.361  10.560  20.172  0.00  0.00    +0.000 A 
ATOM     12  C   UNL     1      10.108  11.651  20.627  0.00  0.00    +0.000 A 
ATOM     13  C   UNL     1      10.794  12.451  19.717  0.00  0.00    +0.000 A 
ATOM     14  C   UNL     1      10.727  12.163  18.356  0.00  0.00    +0.000 A 
ATOM     15  C   UNL     1       9.980  11.072  17.902  0.00  0.00    +0.000 A 
ENDBRANCH   7  10
ENDBRANCH   2   5
BRANCH   3  16
ATOM     16  C   UNL     1       5.592   4.058  18.727  0.00  0.00    +0.000 C 
BRANCH  16  17
ATOM     17  C   UNL     1       4.212   3.779  18.107  0.00  0.00    +0.000 C 
BRANCH  17  18
ATOM     18  N   UNL     1       3.135   3.440  19.050  0.00  0.00    +0.000 NA
ATOM     19  C   UNL     1       3.598   2.870  20.319  0.00  0.00    +0.000 C 
ATOM     20  C   UNL     1       2.420   2.308  21.120  0.00  0.00    +0.000 C 
ATOM     21  C   UNL     1       1.285   3.311  21.291  0.00  0.00    +0.000 C 
ATOM     22  C   UNL     1       0.932   3.965  19.956  0.00  0.00    +0.000 C 
ATOM     23  C   UNL     1       2.173   4.556  19.258  0.00  0.00    +0.000 C 
BRANCH  23  24
ATOM     24  C   UNL     1       2.654   5.810  20.047  0.00  0.00    +0.000 C 
BRANCH  24  25
ATOM     25  O   UNL     1       2.298   7.037  19.420  0.00  0.00    +0.000 OA
ATOM     26  H   UNL     1       2.552   6.950  18.486  0.00  0.00    +0.000 HD
ENDBRANCH  24  25
ENDBRANCH  23  24
ENDBRANCH  17  18
ENDBRANCH  16  17
ENDBRANCH   3  16
TORSDOF 7
ENDMDL
MODEL 4
REMARK VINA RESULT:      -7.7      1.886      2.296
REMARK  Name = 
REMARK  7 active torsions:
REMARK  status: ('A' for Active; 'I' for Inactive)
REMARK    1  A    between atoms: C_2  and  C_14
REMARK    2  A    between atoms: N_3  and  C_4
REMARK    3  A    between atoms: C_4  and  C_5
REMARK    4  A    between atoms: C_5  and  N_6
REMARK    5  A    between atoms: C_11  and  C_12
REMARK    6  A    between atoms: C_12  and  O_13
REMARK    7  A    between atoms: C_16  and  C_17
REMARK                            x       y       z     vdW  Elec       q    Type
REMARK                         _______ _______ _______ _____ _____    ______ ____
ROOT
ATOM      1  O   UNL     1       7.945   5.103  17.540  0.00  0.00    +0.000 OA
ATOM      2  C   UNL     1       7.140   5.993  17.826  0.00  0.00    +0.000 C 
ATOM      3  N   UNL     1       5.816   5.707  18.106  0.00  0.00    +0.000 N 
ATOM      4  H   UNL     1       5.150   6.464  18.232  0.00  0.00    +0.000 HD
ENDROOT
BRANCH   2   5
ATOM      5  C   UNL     1       7.551   7.394  17.860  0.00  0.00    +0.000 A 
ATOM      6  C   UNL     1       8.515   7.931  18.751  0.00  0.00    +0.000 A 
ATOM      7  C   UNL     1       8.604   9.262  18.435  0.00  0.00    +0.000 A 
ATOM      8  O   UNL     1       7.725   9.520  17.421  0.00  0.00    +0.000 OA
ATOM      9  N   UNL     1       7.065   8.349  17.051  0.00  0.00    +0.000 NA
BRANCH   7  10
ATOM     10  C   UNL     1       9.420  10.370  18.926  0.00  0.00    +0.000 A 
ATOM     11  C   UNL     1      10.182  11.139  18.029  0.00  0.00    +0.000 A 
ATOM     12  C   UNL     1      10.947  12.221  18.474  0.00  0.00    +0.000 A 
ATOM     13  C   UNL     1      10.964  12.551  19.826  0.00  0.00    +0.000 A 
ATOM     14  C   UNL     1      10.222  11.795  20.731  0.00  0.00    +0.000 A 
ATOM     15  C   UNL     1       9.458  10.713  20.285  0.00  0.00    +0.000 A 
ENDBRANCH   7  10
ENDBRANCH   2   5
BRANCH   3  16
ATOM     16  C   UNL     1       5.380   4.330  18.007  0.00  0.00    +0.000 C 
BRANCH  16  17
ATOM     17  C   UNL     1       4.896   3.673  19.311  0.00  0.00    +0.000 C 
BRANCH  17  18
ATOM     18  N   UNL     1       3.467   3.327  19.370  0.00  0.00    +0.000 NA
ATOM     19  C   UNL     1       2.991   2.943  20.702  0.00  0.00    +0.000 C 
ATOM     20  C   UNL     1       1.580   2.350  20.622  0.00  0.00    +0.000 C 
ATOM     21  C   UNL     1       0.602   3.244  19.869  0.00  0.00    +0.000 C 
ATOM     22  C   UNL     1       1.204   3.716  18.545  0.00  0.00    +0.000 C 
ATOM     23  C   UNL     1       2.594   4.355  18.740  0.00  0.00    +0.000 C 
BRANCH  23  24
ATOM     24  C   UNL     1       2.429   5.727  19.458  0.00  0.00    +0.000 C 
BRANCH  24  25
ATOM     25  O   UNL     1       3.016   6.807  18.743  0.00  0.00    +0.000 OA
ATOM     26  H   UNL     1       2.465   7.587  18.924  0.00  0.00    +0.000 HD
ENDBRANCH  24  25
ENDBRANCH  23  24
ENDBRANCH  17  18
ENDBRANCH  16  17
ENDBRANCH   3  16
TORSDOF 7
ENDMDL
MODEL 5
REMARK VINA RESULT:      -7.7      1.576      1.985
REMARK  Name = 
REMARK  7 active torsions:
REMARK  status: ('A' for Active; 'I' for Inactive)
REMARK    1  A    between atoms: C_2  and  C_14
REMARK    2  A    between atoms: N_3  and  C_4
REMARK    3  A    between atoms: C_4  and  C_5
REMARK    4  A    between atoms: C_5  and  N_6
REMARK    5  A    between atoms: C_11  and  C_12
REMARK    6  A    between atoms: C_12  and  O_13
REMARK    7  A    between atoms: C_16  and  C_17
REMARK                            x       y       z     vdW  Elec       q    Type
REMARK                         _______ _______ _______ _____ _____    ______ ____
ROOT
ATOM      1  O   UNL     1       7.769   5.109  18.708  0.00  0.00    +0.000 OA
ATOM      2  C   UNL     1       7.170   5.923  18.001  0.00  0.00    +0.000 C 
ATOM      3  N   UNL     1       6.109   5.541  17.200  0.00  0.00    +0.000 N 
ATOM      4  H   UNL     1       5.702   6.205  16.547  0.00  0.00    +0.000 HD
ENDROOT
BRANCH   2   5
ATOM      5  C   UNL     1       7.572   7.326  17.966  0.00  0.00    +0.000 A 
ATOM      6  C   UNL     1       8.530   7.914  18.832  0.00  0.00    +0.000 A 
ATOM      7  C   UNL     1       8.612   9.228  18.450  0.00  0.00    +0.000 A 
ATOM      8  O   UNL     1       7.736   9.428  17.420  0.00  0.00    +0.000 OA
ATOM      9  N   UNL     1       7.085   8.236  17.108  0.00  0.00    +0.000 NA
BRANCH   7  10
ATOM     10  C   UNL     1       9.419  10.364  18.887  0.00  0.00    +0.000 A 
ATOM     11  C   UNL     1       9.484  10.702  20.251  0.00  0.00    +0.000 A 
ATOM     12  C   UNL     1      10.273  11.768  20.694  0.00  0.00    +0.000 A 
ATOM     13  C   UNL     1      11.009  12.515  19.779  0.00  0.00    +0.000 A 
ATOM     14  C   UNL     1      10.950  12.202  18.424  0.00  0.00    +0.000 A 
ATOM     15  C   UNL     1      10.160  11.136  17.981  0.00  0.00    +0.000 A 
ENDBRANCH   7  10
ENDBRANCH   2   5
BRANCH   3  16
ATOM     16  C   UNL     1       5.745   4.140  17.172  0.00  0.00    +0.000 C 
BRANCH  16  17
ATOM     17  C   UNL     1       4.255   3.818  17.379  0.00  0.00    +0.000 C 
BRANCH  17  18
ATOM     18  N   UNL     1       3.615   4.441  18.549  0.00  0.00    +0.000 NA
ATOM     19  C   UNL     1       2.870   5.668  18.250  0.00  0.00    +0.000 C 
ATOM     20  C   UNL     1       2.468   6.384  19.543  0.00  0.00    +0.000 C 
ATOM     21  C   UNL     1       1.751   5.471  20.530  0.00  0.00    +0.000 C 
ATOM     22  C   UNL     1       2.510   4.155  20.704  0.00  0.00    +0.000 C 
ATOM     23  C   UNL     1       2.810   3.481  19.351  0.00  0.00    +0.000 C 
BRANCH  23  24
ATOM     24  C   UNL     1       1.482   2.940  18.744  0.00  0.00    +0.000 C 
BRANCH  24  25
ATOM     25  O   UNL     1       1.497   1.534  18.525  0.00  0.00    +0.000 OA
ATOM     26  H   UNL     1       2.112   1.378  17.788  0.00  0.00    +0.000 HD
ENDBRANCH  24  25
ENDBRANCH  23  24
ENDBRANCH  17  18
ENDBRANCH  16  17
ENDBRANCH   3  16
TORSDOF 7
ENDMDL
MODEL 6
REMARK VINA RESULT:      -7.6      1.967      9.623
REMARK  Name = 
REMARK  7 active torsions:
REMARK  status: ('A' for Active; 'I' for Inactive)
REMARK    1  A    between atoms: C_2  and  C_14
REMARK    2  A    between atoms: N_3  and  C_4
REMARK    3  A    between atoms: C_4  and  C_5
REMARK    4  A    between atoms: C_5  and  N_6
REMARK    5  A    between atoms: C_11  and  C_12
REMARK    6  A    between atoms: C_12  and  O_13
REMARK    7  A    between atoms: C_16  and  C_17
REMARK                            x       y       z     vdW  Elec       q    Type
REMARK                         _______ _______ _______ _____ _____    ______ ____
ROOT
ATOM      1  O   UNL     1       7.758   6.906  16.458  0.00  0.00    +0.000 OA
ATOM      2  C   UNL     1       7.281   6.950  17.594  0.00  0.00    +0.000 C 
ATOM      3  N   UNL     1       7.545   8.005  18.448  0.00  0.00    +0.000 N 
ATOM      4  H   UNL     1       7.229   7.967  19.414  0.00  0.00    +0.000 HD
ENDROOT
BRANCH   2   5
ATOM      5  C   UNL     1       6.431   5.872  18.094  0.00  0.00    +0.000 A 
ATOM      6  C   UNL     1       5.020   5.952  18.226  0.00  0.00    +0.000 A 
ATOM      7  C   UNL     1       4.629   4.731  18.712  0.00  0.00    +0.000 A 
ATOM      8  O   UNL     1       5.746   3.962  18.884  0.00  0.00    +0.000 OA
ATOM      9  N   UNL     1       6.879   4.671  18.492  0.00  0.00    +0.000 NA
BRANCH   7  10
ATOM     10  C   UNL     1       3.335   4.134  19.034  0.00  0.00    +0.000 A 
ATOM     11  C   UNL     1       2.879   4.108  20.364  0.00  0.00    +0.000 A 
ATOM     12  C   UNL     1       1.631   3.567  20.689  0.00  0.00    +0.000 A 
ATOM     13  C   UNL     1       0.820   3.041  19.689  0.00  0.00    +0.000 A 
ATOM     14  C   UNL     1       1.259   3.048  18.367  0.00  0.00    +0.000 A 
ATOM     15  C   UNL     1       2.507   3.589  18.042  0.00  0.00    +0.000 A 
ENDBRANCH   7  10
ENDBRANCH   2   5
BRANCH   3  16
ATOM     16  C   UNL     1       8.442   9.045  17.991  0.00  0.00    +0.000 C 
BRANCH  16  17
ATOM     17  C   UNL     1       9.051   9.948  19.077  0.00  0.00    +0.000 C 
BRANCH  17  18
ATOM     18  N   UNL     1      10.083  10.894  18.628  0.00  0.00    +0.000 NA
ATOM     19  C   UNL     1       9.579  11.991  17.797  0.00  0.00    +0.000 C 
ATOM     20  C   UNL     1      10.738  12.766  17.161  0.00  0.00    +0.000 C 
ATOM     21  C   UNL     1      11.781  13.214  18.179  0.00  0.00    +0.000 C 
ATOM     22  C   UNL     1      12.175  12.059  19.099  0.00  0.00    +0.000 C 
ATOM     23  C   UNL     1      10.943  11.386  19.738  0.00  0.00    +0.000 C 
BRANCH  23  24
ATOM     24  C   UNL     1      10.319  12.356  20.785  0.00  0.00    +0.000 C 
BRANCH  24  25
ATOM     25  O   UNL     1       9.685  11.681  21.865  0.00  0.00    +0.000 OA
ATOM     26  H   UNL     1       8.757  11.972  21.864  0.00  0.00    +0.000 HD
ENDBRANCH  24  25
ENDBRANCH  23  24
ENDBRANCH  17  18
ENDBRANCH  16  17
ENDBRANCH   3  16
TORSDOF 7
ENDMDL
MODEL 7
REMARK VINA RESULT:      -7.6      1.045      1.213
REMARK  Name = 
REMARK  7 active torsions:
REMARK  status: ('A' for Active; 'I' for Inactive)
REMARK    1  A    between atoms: C_2  and  C_14
REMARK    2  A    between atoms: N_3  and  C_4
REMARK    3  A    between atoms: C_4  and  C_5
REMARK    4  A    between atoms: C_5  and  N_6
REMARK    5  A    between atoms: C_11  and  C_12
REMARK    6  A    between atoms: C_12  and  O_13
REMARK    7  A    between atoms: C_16  and  C_17
REMARK                            x       y       z     vdW  Elec       q    Type
REMARK                         _______ _______ _______ _____ _____    ______ ____
ROOT
ATOM      1  O   UNL     1       6.249   6.336  15.669  0.00  0.00    +0.000 OA
ATOM      2  C   UNL     1       6.593   6.037  16.815  0.00  0.00    +0.000 C 
ATOM      3  N   UNL     1       6.204   4.844  17.398  0.00  0.00    +0.000 N 
ATOM      4  H   UNL     1       6.409   4.668  18.378  0.00  0.00    +0.000 HD
ENDROOT
BRANCH   2   5
ATOM      5  C   UNL     1       7.414   6.944  17.614  0.00  0.00    +0.000 A 
ATOM      6  C   UNL     1       7.612   8.319  17.326  0.00  0.00    +0.000 A 
ATOM      7  C   UNL     1       8.426   8.788  18.324  0.00  0.00    +0.000 A 
ATOM      8  O   UNL     1       8.721   7.747  19.159  0.00  0.00    +0.000 OA
ATOM      9  N   UNL     1       8.083   6.588  18.722  0.00  0.00    +0.000 NA
BRANCH   7  10
ATOM     10  C   UNL     1       8.977  10.100  18.651  0.00  0.00    +0.000 A 
ATOM     11  C   UNL     1       8.813  11.178  17.763  0.00  0.00    +0.000 A 
ATOM     12  C   UNL     1       9.308  12.449  18.071  0.00  0.00    +0.000 A 
ATOM     13  C   UNL     1       9.977  12.663  19.272  0.00  0.00    +0.000 A 
ATOM     14  C   UNL     1      10.158  11.605  20.160  0.00  0.00    +0.000 A 
ATOM     15  C   UNL     1       9.663  10.334  19.852  0.00  0.00    +0.000 A 
ENDBRANCH   7  10
ENDBRANCH   2   5
BRANCH   3  16
ATOM     16  C   UNL     1       5.333   3.968  16.643  0.00  0.00    +0.000 C 
BRANCH  16  17
ATOM     17  C   UNL     1       3.822   4.182  16.830  0.00  0.00    +0.000 C 
BRANCH  17  18
ATOM     18  N   UNL     1       3.384   4.561  18.183  0.00  0.00    +0.000 NA
ATOM     19  C   UNL     1       2.477   5.712  18.226  0.00  0.00    +0.000 C 
ATOM     20  C   UNL     1       2.288   6.197  19.666  0.00  0.00    +0.000 C 
ATOM     21  C   UNL     1       1.886   5.080  20.622  0.00  0.00    +0.000 C 
ATOM     22  C   UNL     1       2.789   3.859  20.442  0.00  0.00    +0.000 C 
ATOM     23  C   UNL     1       2.863   3.410  18.969  0.00  0.00    +0.000 C 
BRANCH  23  24
ATOM     24  C   UNL     1       1.496   2.789  18.555  0.00  0.00    +0.000 C 
BRANCH  24  25
ATOM     25  O   UNL     1       1.506   1.367  18.548  0.00  0.00    +0.000 OA
ATOM     26  H   UNL     1       1.610   1.089  19.474  0.00  0.00    +0.000 HD
ENDBRANCH  24  25
ENDBRANCH  23  24
ENDBRANCH  17  18
ENDBRANCH  16  17
ENDBRANCH   3  16
TORSDOF 7
ENDMDL
MODEL 8
REMARK VINA RESULT:      -7.4      2.150      9.815
REMARK  Name = 
REMARK  7 active torsions:
REMARK  status: ('A' for Active; 'I' for Inactive)
REMARK    1  A    between atoms: C_2  and  C_14
REMARK    2  A    between atoms: N_3  and  C_4
REMARK    3  A    between atoms: C_4  and  C_5
REMARK    4  A    between atoms: C_5  and  N_6
REMARK    5  A    between atoms: C_11  and  C_12
REMARK    6  A    between atoms: C_12  and  O_13
REMARK    7  A    between atoms: C_16  and  C_17
REMARK                            x       y       z     vdW  Elec       q    Type
REMARK                         _______ _______ _______ _____ _____    ______ ____
ROOT
ATOM      1  O   UNL     1       8.420   6.979  18.647  0.00  0.00    +0.000 OA
ATOM      2  C   UNL     1       7.526   7.456  17.945  0.00  0.00    +0.000 C 
ATOM      3  N   UNL     1       7.563   8.773  17.524  0.00  0.00    +0.000 N 
ATOM      4  H   UNL     1       6.765   9.173  17.037  0.00  0.00    +0.000 HD
ENDROOT
BRANCH   2   5
ATOM      5  C   UNL     1       6.375   6.651  17.545  0.00  0.00    +0.000 A 
ATOM      6  C   UNL     1       5.609   5.844  18.425  0.00  0.00    +0.000 A 
ATOM      7  C   UNL     1       4.630   5.281  17.648  0.00  0.00    +0.000 A 
ATOM      8  O   UNL     1       4.808   5.709  16.362  0.00  0.00    +0.000 OA
ATOM      9  N   UNL     1       5.898   6.575  16.293  0.00  0.00    +0.000 NA
BRANCH   7  10
ATOM     10  C   UNL     1       3.502   4.394  17.920  0.00  0.00    +0.000 A 
ATOM     11  C   UNL     1       3.463   3.106  17.358  0.00  0.00    +0.000 A 
ATOM     12  C   UNL     1       2.407   2.231  17.629  0.00  0.00    +0.000 A 
ATOM     13  C   UNL     1       1.370   2.632  18.466  0.00  0.00    +0.000 A 
ATOM     14  C   UNL     1       1.386   3.908  19.025  0.00  0.00    +0.000 A 
ATOM     15  C   UNL     1       2.443   4.782  18.753  0.00  0.00    +0.000 A 
ENDBRANCH   7  10
ENDBRANCH   2   5
BRANCH   3  16
ATOM     16  C   UNL     1       8.662   9.602  17.971  0.00  0.00    +0.000 C 
BRANCH  16  17
ATOM     17  C   UNL     1       8.510  11.116  17.747  0.00  0.00    +0.000 C 
BRANCH  17  18
ATOM     18  N   UNL     1       9.239  11.985  18.684  0.00  0.00    +0.000 NA
ATOM     19  C   UNL     1      10.205  11.283  19.535  0.00  0.00    +0.000 C 
ATOM     20  C   UNL     1      10.716  12.205  20.646  0.00  0.00    +0.000 C 
ATOM     21  C   UNL     1      11.236  13.539  20.120  0.00  0.00    +0.000 C 
ATOM     22  C   UNL     1      10.242  14.162  19.140  0.00  0.00    +0.000 C 
ATOM     23  C   UNL     1       9.839  13.177  18.025  0.00  0.00    +0.000 C 
BRANCH  23  24
ATOM     24  C   UNL     1      11.051  12.963  17.070  0.00  0.00    +0.000 C 
BRANCH  24  25
ATOM     25  O   UNL     1      11.174  13.982  16.085  0.00  0.00    +0.000 OA
ATOM     26  H   UNL     1      10.293  14.087  15.687  0.00  0.00    +0.000 HD
ENDBRANCH  24  25
ENDBRANCH  23  24
ENDBRANCH  17  18
ENDBRANCH  16  17
ENDBRANCH   3  16
TORSDOF 7
ENDMDL
MODEL 9
REMARK VINA RESULT:      -7.4      1.749      2.298
REMARK  Name = 
REMARK  7 active torsions:
REMARK  status: ('A' for Active; 'I' for Inactive)
REMARK    1  A    between atoms: C_2  and  C_14
REMARK    2  A    between atoms: N_3  and  C_4
REMARK    3  A    between atoms: C_4  and  C_5
REMARK    4  A    between atoms: C_5  and  N_6
REMARK    5  A    between atoms: C_11  and  C_12
REMARK    6  A    between atoms: C_12  and  O_13
REMARK    7  A    between atoms: C_16  and  C_17
REMARK                            x       y       z     vdW  Elec       q    Type
REMARK                         _______ _______ _______ _____ _____    ______ ____
ROOT
ATOM      1  O   UNL     1       7.261   5.240  19.049  0.00  0.00    +0.000 OA
ATOM      2  C   UNL     1       6.960   5.948  18.086  0.00  0.00    +0.000 C 
ATOM      3  N   UNL     1       6.142   5.480  17.073  0.00  0.00    +0.000 N 
ATOM      4  H   UNL     1       5.996   6.043  16.239  0.00  0.00    +0.000 HD
ENDROOT
BRANCH   2   5
ATOM      5  C   UNL     1       7.475   7.310  17.964  0.00  0.00    +0.000 A 
ATOM      6  C   UNL     1       8.376   7.916  18.876  0.00  0.00    +0.000 A 
ATOM      7  C   UNL     1       8.605   9.175  18.382  0.00  0.00    +0.000 A 
ATOM      8  O   UNL     1       7.864   9.327  17.243  0.00  0.00    +0.000 OA
ATOM      9  N   UNL     1       7.158   8.157  16.973  0.00  0.00    +0.000 NA
BRANCH   7  10
ATOM     10  C   UNL     1       9.447  10.292  18.800  0.00  0.00    +0.000 A 
ATOM     11  C   UNL     1      10.091  11.090  17.839  0.00  0.00    +0.000 A 
ATOM     12  C   UNL     1      10.879  12.182  18.217  0.00  0.00    +0.000 A 
ATOM     13  C   UNL     1      11.038  12.491  19.565  0.00  0.00    +0.000 A 
ATOM     14  C   UNL     1      10.416  11.706  20.532  0.00  0.00    +0.000 A 
ATOM     15  C   UNL     1       9.628  10.614  20.153  0.00  0.00    +0.000 A 
ENDBRANCH   7  10
ENDBRANCH   2   5
BRANCH   3  16
ATOM     16  C   UNL     1       5.682   4.110  17.146  0.00  0.00    +0.000 C 
BRANCH  16  17
ATOM     17  C   UNL     1       4.179   3.881  16.910  0.00  0.00    +0.000 C 
BRANCH  17  18
ATOM     18  N   UNL     1       3.374   3.587  18.106  0.00  0.00    +0.000 NA
ATOM     19  C   UNL     1       4.139   3.047  19.234  0.00  0.00    +0.000 C 
ATOM     20  C   UNL     1       3.198   2.527  20.325  0.00  0.00    +0.000 C 
ATOM     21  C   UNL     1       2.152   3.553  20.746  0.00  0.00    +0.000 C 
ATOM     22  C   UNL     1       1.477   4.174  19.523  0.00  0.00    +0.000 C 
ATOM     23  C   UNL     1       2.505   4.724  18.515  0.00  0.00    +0.000 C 
BRANCH  23  24
ATOM     24  C   UNL     1       3.180   5.993  19.115  0.00  0.00    +0.000 C 
BRANCH  24  25
ATOM     25  O   UNL     1       3.502   6.973  18.136  0.00  0.00    +0.000 OA
ATOM     26  H   UNL     1       2.859   6.861  17.415  0.00  0.00    +0.000 HD
ENDBRANCH  24  25
ENDBRANCH  23  24
ENDBRANCH  17  18
ENDBRANCH  16  17
ENDBRANCH   3  16
TORSDOF 7
ENDMDL
