MODEL 1
REMARK VINA RESULT:      -7.5      0.000      0.000
REMARK  Name = 
REMARK  2 active torsions:
REMARK  status: ('A' for Active; 'I' for Inactive)
REMARK    1  A    between atoms: C_5  and  N_6
REMARK    2  A    between atoms: N_6  and  C_7
REMARK                            x       y       z     vdW  Elec       q    Type
REMARK                         _______ _______ _______ _____ _____    ______ ____
ROOT
ATOM      1  O   UNL     1       7.901   6.861  16.751  0.00  0.00    +0.000 OA
ATOM      2  C   UNL     1       7.204   5.853  16.718  0.00  0.00    +0.000 C 
ATOM      3  C   UNL     1       6.587   5.236  17.949  0.00  0.00    +0.000 C 
ATOM      4 CL   UNL     1       7.201   5.876  19.452  0.00  0.00    +0.000 Cl
ATOM      5  C   UNL     1       5.670   4.236  17.955  0.00  0.00    +0.000 C 
ATOM      6  C   UNL     1       5.292   3.596  16.626  0.00  0.00    +0.000 C 
ATOM      7  O   UNL     1       4.467   2.685  16.581  0.00  0.00    +0.000 OA
ATOM      8  C   UNL     1       5.985   4.087  15.483  0.00  0.00    +0.000 A 
ATOM      9  N   UNL     1       5.946   3.652  14.187  0.00  0.00    +0.000 N 
ATOM     10  C   UNL     1       6.843   4.411  13.486  0.00  0.00    +0.000 A 
ATOM     11  N   UNL     1       7.404   5.325  14.248  0.00  0.00    +0.000 NA
ATOM     12  C   UNL     1       6.880   5.127  15.505  0.00  0.00    +0.000 A 
ATOM     13  H   UNL     1       5.387   2.889  13.825  0.00  0.00    +0.000 HD
ENDROOT
BRANCH   5  14
ATOM     14  N   UNL     1       5.077   3.640  19.075  0.00  0.00    +0.000 N 
ATOM     15  H   UNL     1       5.108   2.617  18.988  0.00  0.00    +0.000 HD
BRANCH  14  16
ATOM     16  C   UNL     1       3.795   3.990  19.585  0.00  0.00    +0.000 A 
ATOM     17  C   UNL     1       2.928   2.950  19.959  0.00  0.00    +0.000 A 
ATOM     18  C   UNL     1       1.659   3.216  20.481  0.00  0.00    +0.000 A 
ATOM     19  C   UNL     1       1.243   4.532  20.659  0.00  0.00    +0.000 A 
ATOM     20  C   UNL     1       2.107   5.574  20.331  0.00  0.00    +0.000 A 
ATOM     21  I   UNL     1       1.505   7.544  20.618  0.00  0.00    +0.000 I 
ATOM     22  C   UNL     1       3.376   5.309  19.806  0.00  0.00    +0.000 A 
ENDBRANCH  14  16
ENDBRANCH   5  14
TORSDOF 2
ENDMDL
MODEL 2
REMARK VINA RESULT:      -7.0      2.308      3.098
REMARK  Name = 
REMARK  2 active torsions:
REMARK  status: ('A' for Active; 'I' for Inactive)
REMARK    1  A    between atoms: C_5  and  N_6
REMARK    2  A    between atoms: N_6  and  C_7
REMARK                            x       y       z     vdW  Elec       q    Type
REMARK                         _______ _______ _______ _____ _____    ______ ____
ROOT
ATOM      1  O   UNL     1       6.314   6.071  15.155  0.00  0.00    +0.000 OA
ATOM      2  C   UNL     1       6.436   5.918  16.366  0.00  0.00    +0.000 C 
ATOM      3  C   UNL     1       5.725   4.833  17.136  0.00  0.00    +0.000 C 
ATOM      4 CL   UNL     1       4.475   4.018  16.231  0.00  0.00    +0.000 Cl
ATOM      5  C   UNL     1       5.956   4.505  18.432  0.00  0.00    +0.000 C 
ATOM      6  C   UNL     1       6.937   5.355  19.227  0.00  0.00    +0.000 C 
ATOM      7  O   UNL     1       7.177   5.099  20.406  0.00  0.00    +0.000 OA
ATOM      8  C   UNL     1       7.497   6.467  18.534  0.00  0.00    +0.000 A 
ATOM      9  N   UNL     1       8.313   7.461  18.999  0.00  0.00    +0.000 N 
ATOM     10  C   UNL     1       8.516   8.325  17.957  0.00  0.00    +0.000 A 
ATOM     11  N   UNL     1       7.922   7.910  16.859  0.00  0.00    +0.000 NA
ATOM     12  C   UNL     1       7.272   6.749  17.211  0.00  0.00    +0.000 A 
ATOM     13  H   UNL     1       8.667   7.558  19.942  0.00  0.00    +0.000 HD
ENDROOT
BRANCH   5  14
ATOM     14  N   UNL     1       5.317   3.506  19.178  0.00  0.00    +0.000 N 
ATOM     15  H   UNL     1       5.316   2.623  18.654  0.00  0.00    +0.000 HD
BRANCH  14  16
ATOM     16  C   UNL     1       4.037   3.651  19.782  0.00  0.00    +0.000 A 
ATOM     17  C   UNL     1       3.421   2.501  20.305  0.00  0.00    +0.000 A 
ATOM     18  C   UNL     1       2.171   2.568  20.926  0.00  0.00    +0.000 A 
ATOM     19  C   UNL     1       1.523   3.793  21.055  0.00  0.00    +0.000 A 
ATOM     20  C   UNL     1       2.139   4.946  20.577  0.00  0.00    +0.000 A 
ATOM     21  I   UNL     1       1.192   6.787  20.789  0.00  0.00    +0.000 I 
ATOM     22  C   UNL     1       3.389   4.882  19.954  0.00  0.00    +0.000 A 
ENDBRANCH  14  16
ENDBRANCH   5  14
TORSDOF 2
ENDMDL
MODEL 3
REMARK VINA RESULT:      -6.6      3.423      5.251
REMARK  Name = 
REMARK  2 active torsions:
REMARK  status: ('A' for Active; 'I' for Inactive)
REMARK    1  A    between atoms: C_5  and  N_6
REMARK    2  A    between atoms: N_6  and  C_7
REMARK                            x       y       z     vdW  Elec       q    Type
REMARK                         _______ _______ _______ _____ _____    ______ ____
ROOT
ATOM      1  O   UNL     1       4.301   4.270  16.418  0.00  0.00    +0.000 OA
ATOM      2  C   UNL     1       3.664   4.405  17.457  0.00  0.00    +0.000 C 
ATOM      3  C   UNL     1       3.626   5.693  18.242  0.00  0.00    +0.000 C 
ATOM      4 CL   UNL     1       4.809   6.872  17.735  0.00  0.00    +0.000 Cl
ATOM      5  C   UNL     1       2.805   5.954  19.290  0.00  0.00    +0.000 C 
ATOM      6  C   UNL     1       1.910   4.834  19.801  0.00  0.00    +0.000 C 
ATOM      7  O   UNL     1       1.150   5.023  20.750  0.00  0.00    +0.000 OA
ATOM      8  C   UNL     1       2.054   3.577  19.146  0.00  0.00    +0.000 A 
ATOM      9  N   UNL     1       1.478   2.372  19.439  0.00  0.00    +0.000 N 
ATOM     10  C   UNL     1       1.992   1.463  18.554  0.00  0.00    +0.000 A 
ATOM     11  N   UNL     1       2.813   2.030  17.697  0.00  0.00    +0.000 NA
ATOM     12  C   UNL     1       2.866   3.356  18.063  0.00  0.00    +0.000 A 
ATOM     13  H   UNL     1       0.826   2.183  20.189  0.00  0.00    +0.000 HD
ENDROOT
BRANCH   5  14
ATOM     14  N   UNL     1       2.742   7.135  20.040  0.00  0.00    +0.000 N 
ATOM     15  H   UNL     1       2.613   6.914  21.034  0.00  0.00    +0.000 HD
BRANCH  14  16
ATOM     16  C   UNL     1       1.897   8.238  19.729  0.00  0.00    +0.000 A 
ATOM     17  C   UNL     1       1.692   8.549  18.375  0.00  0.00    +0.000 A 
ATOM     18  C   UNL     1       0.864   9.608  17.992  0.00  0.00    +0.000 A 
ATOM     19  C   UNL     1       0.207  10.362  18.960  0.00  0.00    +0.000 A 
ATOM     20  C   UNL     1       0.370  10.040  20.305  0.00  0.00    +0.000 A 
ATOM     21  I   UNL     1      -0.628  11.143  21.759  0.00  0.00    +0.000 I 
ATOM     22  C   UNL     1       1.200   8.982  20.690  0.00  0.00    +0.000 A 
ENDBRANCH  14  16
ENDBRANCH   5  14
TORSDOF 2
ENDMDL
MODEL 4
REMARK VINA RESULT:      -6.3      2.915      4.229
REMARK  Name = 
REMARK  2 active torsions:
REMARK  status: ('A' for Active; 'I' for Inactive)
REMARK    1  A    between atoms: C_5  and  N_6
REMARK    2  A    between atoms: N_6  and  C_7
REMARK                            x       y       z     vdW  Elec       q    Type
REMARK                         _______ _______ _______ _____ _____    ______ ____
ROOT
ATOM      1  O   UNL     1       2.627   2.300  17.028  0.00  0.00    +0.000 OA
ATOM      2  C   UNL     1       3.252   3.294  17.380  0.00  0.00    +0.000 C 
ATOM      3  C   UNL     1       2.763   4.244  18.446  0.00  0.00    +0.000 C 
ATOM      4 CL   UNL     1       1.099   3.996  18.910  0.00  0.00    +0.000 Cl
ATOM      5  C   UNL     1       3.485   5.250  18.997  0.00  0.00    +0.000 C 
ATOM      6  C   UNL     1       4.873   5.532  18.440  0.00  0.00    +0.000 C 
ATOM      7  O   UNL     1       5.565   6.436  18.906  0.00  0.00    +0.000 OA
ATOM      8  C   UNL     1       5.273   4.724  17.337  0.00  0.00    +0.000 A 
ATOM      9  N   UNL     1       6.398   4.803  16.563  0.00  0.00    +0.000 N 
ATOM     10  C   UNL     1       6.279   3.844  15.593  0.00  0.00    +0.000 A 
ATOM     11  N   UNL     1       5.178   3.140  15.740  0.00  0.00    +0.000 NA
ATOM     12  C   UNL     1       4.535   3.687  16.826  0.00  0.00    +0.000 A 
ATOM     13  H   UNL     1       7.155   5.467  16.666  0.00  0.00    +0.000 HD
ENDROOT
BRANCH   5  14
ATOM     14  N   UNL     1       3.064   6.148  19.987  0.00  0.00    +0.000 N 
ATOM     15  H   UNL     1       2.572   5.644  20.733  0.00  0.00    +0.000 HD
BRANCH  14  16
ATOM     16  C   UNL     1       2.342   7.347  19.727  0.00  0.00    +0.000 A 
ATOM     17  C   UNL     1       2.316   7.827  18.407  0.00  0.00    +0.000 A 
ATOM     18  C   UNL     1       1.615   8.989  18.072  0.00  0.00    +0.000 A 
ATOM     19  C   UNL     1       0.908   9.681  19.051  0.00  0.00    +0.000 A 
ATOM     20  C   UNL     1       0.893   9.195  20.356  0.00  0.00    +0.000 A 
ATOM     21  I   UNL     1      -0.183  10.207  21.822  0.00  0.00    +0.000 I 
ATOM     22  C   UNL     1       1.595   8.033  20.693  0.00  0.00    +0.000 A 
ENDBRANCH  14  16
ENDBRANCH   5  14
TORSDOF 2
ENDMDL
MODEL 5
REMARK VINA RESULT:      -6.3      3.172      6.264
REMARK  Name = 
REMARK  2 active torsions:
REMARK  status: ('A' for Active; 'I' for Inactive)
REMARK    1  A    between atoms: C_5  and  N_6
REMARK    2  A    between atoms: N_6  and  C_7
REMARK                            x       y       z     vdW  Elec       q    Type
REMARK                         _______ _______ _______ _____ _____    ______ ____
ROOT
ATOM      1  O   UNL     1       2.357   6.828  19.185  0.00  0.00    +0.000 OA
ATOM      2  C   UNL     1       2.891   5.725  19.210  0.00  0.00    +0.000 C 
ATOM      3  C   UNL     1       4.178   5.413  18.487  0.00  0.00    +0.000 C 
ATOM      4 CL   UNL     1       4.676   6.645  17.356  0.00  0.00    +0.000 Cl
ATOM      5  C   UNL     1       4.902   4.274  18.621  0.00  0.00    +0.000 C 
ATOM      6  C   UNL     1       4.339   3.159  19.491  0.00  0.00    +0.000 C 
ATOM      7  O   UNL     1       4.958   2.107  19.642  0.00  0.00    +0.000 OA
ATOM      8  C   UNL     1       3.055   3.404  20.057  0.00  0.00    +0.000 A 
ATOM      9  N   UNL     1       2.251   2.570  20.784  0.00  0.00    +0.000 N 
ATOM     10  C   UNL     1       1.093   3.257  21.036  0.00  0.00    +0.000 A 
ATOM     11  N   UNL     1       1.141   4.480  20.556  0.00  0.00    +0.000 NA
ATOM     12  C   UNL     1       2.364   4.582  19.933  0.00  0.00    +0.000 A 
ATOM     13  H   UNL     1       2.458   1.616  21.052  0.00  0.00    +0.000 HD
ENDROOT
BRANCH   5  14
ATOM     14  N   UNL     1       6.099   3.951  17.968  0.00  0.00    +0.000 N 
ATOM     15  H   UNL     1       6.901   4.243  18.539  0.00  0.00    +0.000 HD
BRANCH  14  16
ATOM     16  C   UNL     1       6.389   4.285  16.614  0.00  0.00    +0.000 A 
ATOM     17  C   UNL     1       7.444   5.179  16.369  0.00  0.00    +0.000 A 
ATOM     18  C   UNL     1       7.797   5.543  15.066  0.00  0.00    +0.000 A 
ATOM     19  C   UNL     1       7.113   4.998  13.983  0.00  0.00    +0.000 A 
ATOM     20  C   UNL     1       6.091   4.080  14.210  0.00  0.00    +0.000 A 
ATOM     21  I   UNL     1       5.080   3.240  12.598  0.00  0.00    +0.000 I 
ATOM     22  C   UNL     1       5.735   3.717  15.513  0.00  0.00    +0.000 A 
ENDBRANCH  14  16
ENDBRANCH   5  14
TORSDOF 2
ENDMDL
MODEL 6
REMARK VINA RESULT:      -6.3      3.301      6.552
REMARK  Name = 
REMARK  2 active torsions:
REMARK  status: ('A' for Active; 'I' for Inactive)
REMARK    1  A    between atoms: C_5  and  N_6
REMARK    2  A    between atoms: N_6  and  C_7
REMARK                            x       y       z     vdW  Elec       q    Type
REMARK                         _______ _______ _______ _____ _____    ______ ____
ROOT
ATOM      1  O   UNL     1       1.208   2.582  19.313  0.00  0.00    +0.000 OA
ATOM      2  C   UNL     1       2.131   3.385  19.244  0.00  0.00    +0.000 C 
ATOM      3  C   UNL     1       3.471   3.054  18.633  0.00  0.00    +0.000 C 
ATOM      4 CL   UNL     1       3.712   1.354  18.322  0.00  0.00    +0.000 Cl
ATOM      5  C   UNL     1       4.459   3.945  18.370  0.00  0.00    +0.000 C 
ATOM      6  C   UNL     1       4.266   5.388  18.814  0.00  0.00    +0.000 C 
ATOM      7  O   UNL     1       5.136   6.232  18.599  0.00  0.00    +0.000 OA
ATOM      8  C   UNL     1       3.060   5.664  19.519  0.00  0.00    +0.000 A 
ATOM      9  N   UNL     1       2.651   6.818  20.128  0.00  0.00    +0.000 N 
ATOM     10  C   UNL     1       1.448   6.548  20.722  0.00  0.00    +0.000 A 
ATOM     11  N   UNL     1       1.055   5.316  20.483  0.00  0.00    +0.000 NA
ATOM     12  C   UNL     1       2.061   4.748  19.735  0.00  0.00    +0.000 A 
ATOM     13  H   UNL     1       3.160   7.693  20.164  0.00  0.00    +0.000 HD
ENDROOT
BRANCH   5  14
ATOM     14  N   UNL     1       5.712   3.675  17.804  0.00  0.00    +0.000 N 
ATOM     15  H   UNL     1       6.458   3.959  18.449  0.00  0.00    +0.000 HD
BRANCH  14  16
ATOM     16  C   UNL     1       6.101   4.069  16.492  0.00  0.00    +0.000 A 
ATOM     17  C   UNL     1       7.173   4.968  16.367  0.00  0.00    +0.000 A 
ATOM     18  C   UNL     1       7.622   5.389  15.111  0.00  0.00    +0.000 A 
ATOM     19  C   UNL     1       7.017   4.900  13.957  0.00  0.00    +0.000 A 
ATOM     20  C   UNL     1       5.980   3.978  14.066  0.00  0.00    +0.000 A 
ATOM     21  I   UNL     1       5.088   3.220  12.346  0.00  0.00    +0.000 I 
ATOM     22  C   UNL     1       5.529   3.557  15.321  0.00  0.00    +0.000 A 
ENDBRANCH  14  16
ENDBRANCH   5  14
TORSDOF 2
ENDMDL
MODEL 7
REMARK VINA RESULT:      -6.2      3.364      6.315
REMARK  Name = 
REMARK  2 active torsions:
REMARK  status: ('A' for Active; 'I' for Inactive)
REMARK    1  A    between atoms: C_5  and  N_6
REMARK    2  A    between atoms: N_6  and  C_7
REMARK                            x       y       z     vdW  Elec       q    Type
REMARK                         _______ _______ _______ _____ _____    ______ ____
ROOT
ATOM      1  O   UNL     1       2.184   6.269  18.645  0.00  0.00    +0.000 OA
ATOM      2  C   UNL     1       2.664   5.191  18.312  0.00  0.00    +0.000 C 
ATOM      3  C   UNL     1       4.012   5.055  17.648  0.00  0.00    +0.000 C 
ATOM      4 CL   UNL     1       4.692   6.567  17.101  0.00  0.00    +0.000 Cl
ATOM      5  C   UNL     1       4.666   3.889  17.422  0.00  0.00    +0.000 C 
ATOM      6  C   UNL     1       3.957   2.586  17.765  0.00  0.00    +0.000 C 
ATOM      7  O   UNL     1       4.509   1.503  17.576  0.00  0.00    +0.000 OA
ATOM      8  C   UNL     1       2.627   2.715  18.259  0.00  0.00    +0.000 A 
ATOM      9  N   UNL     1       1.709   1.745  18.551  0.00  0.00    +0.000 N 
ATOM     10  C   UNL     1       0.560   2.388  18.928  0.00  0.00    +0.000 A 
ATOM     11  N   UNL     1       0.717   3.694  18.938  0.00  0.00    +0.000 NA
ATOM     12  C   UNL     1       2.007   3.912  18.513  0.00  0.00    +0.000 A 
ATOM     13  H   UNL     1       1.841   0.745  18.468  0.00  0.00    +0.000 HD
ENDROOT
BRANCH   5  14
ATOM     14  N   UNL     1       5.915   3.725  16.810  0.00  0.00    +0.000 N 
ATOM     15  H   UNL     1       6.646   4.168  17.379  0.00  0.00    +0.000 HD
BRANCH  14  16
ATOM     16  C   UNL     1       6.187   4.030  15.446  0.00  0.00    +0.000 A 
ATOM     17  C   UNL     1       7.296   4.844  15.162  0.00  0.00    +0.000 A 
ATOM     18  C   UNL     1       7.634   5.174  13.846  0.00  0.00    +0.000 A 
ATOM     19  C   UNL     1       6.879   4.676  12.789  0.00  0.00    +0.000 A 
ATOM     20  C   UNL     1       5.800   3.836  13.054  0.00  0.00    +0.000 A 
ATOM     21  I   UNL     1       4.681   3.065  11.479  0.00  0.00    +0.000 I 
ATOM     22  C   UNL     1       5.460   3.506  14.370  0.00  0.00    +0.000 A 
ENDBRANCH  14  16
ENDBRANCH   5  14
TORSDOF 2
ENDMDL
MODEL 8
REMARK VINA RESULT:      -6.1      5.976      7.790
REMARK  Name = 
REMARK  2 active torsions:
REMARK  status: ('A' for Active; 'I' for Inactive)
REMARK    1  A    between atoms: C_5  and  N_6
REMARK    2  A    between atoms: N_6  and  C_7
REMARK                            x       y       z     vdW  Elec       q    Type
REMARK                         _______ _______ _______ _____ _____    ______ ____
ROOT
ATOM      1  O   UNL     1      -0.954  10.571  22.143  0.00  0.00    +0.000 OA
ATOM      2  C   UNL     1      -0.409  10.341  21.070  0.00  0.00    +0.000 C 
ATOM      3  C   UNL     1       0.773   9.415  20.926  0.00  0.00    +0.000 C 
ATOM      4 CL   UNL     1       1.502   8.948  22.442  0.00  0.00    +0.000 Cl
ATOM      5  C   UNL     1       1.302   8.986  19.753  0.00  0.00    +0.000 C 
ATOM      6  C   UNL     1       0.737   9.553  18.458  0.00  0.00    +0.000 C 
ATOM      7  O   UNL     1       1.185   9.197  17.369  0.00  0.00    +0.000 OA
ATOM      8  C   UNL     1      -0.283  10.536  18.605  0.00  0.00    +0.000 A 
ATOM      9  N   UNL     1      -0.904  11.296  17.652  0.00  0.00    +0.000 N 
ATOM     10  C   UNL     1      -1.761  12.136  18.312  0.00  0.00    +0.000 A 
ATOM     11  N   UNL     1      -1.752  11.917  19.609  0.00  0.00    +0.000 NA
ATOM     12  C   UNL     1      -0.823  10.920  19.806  0.00  0.00    +0.000 A 
ATOM     13  H   UNL     1      -0.735  11.268  16.655  0.00  0.00    +0.000 HD
ENDROOT
BRANCH   5  14
ATOM     14  N   UNL     1       2.395   8.128  19.582  0.00  0.00    +0.000 N 
ATOM     15  H   UNL     1       3.043   8.517  18.887  0.00  0.00    +0.000 HD
BRANCH  14  16
ATOM     16  C   UNL     1       2.286   6.730  19.334  0.00  0.00    +0.000 A 
ATOM     17  C   UNL     1       2.468   6.279  18.015  0.00  0.00    +0.000 A 
ATOM     18  C   UNL     1       2.390   4.920  17.698  0.00  0.00    +0.000 A 
ATOM     19  C   UNL     1       2.152   3.984  18.700  0.00  0.00    +0.000 A 
ATOM     20  C   UNL     1       2.011   4.413  20.017  0.00  0.00    +0.000 A 
ATOM     21  I   UNL     1       1.682   3.020  21.527  0.00  0.00    +0.000 I 
ATOM     22  C   UNL     1       2.086   5.773  20.337  0.00  0.00    +0.000 A 
ENDBRANCH  14  16
ENDBRANCH   5  14
TORSDOF 2
ENDMDL
MODEL 9
REMARK VINA RESULT:      -6.1      3.122      4.890
REMARK  Name = 
REMARK  2 active torsions:
REMARK  status: ('A' for Active; 'I' for Inactive)
REMARK    1  A    between atoms: C_5  and  N_6
REMARK    2  A    between atoms: N_6  and  C_7
REMARK                            x       y       z     vdW  Elec       q    Type
REMARK                         _______ _______ _______ _____ _____    ______ ____
ROOT
ATOM      1  O   UNL     1       6.695   4.597  18.660  0.00  0.00    +0.000 OA
ATOM      2  C   UNL     1       5.473   4.653  18.742  0.00  0.00    +0.000 C 
ATOM      3  C   UNL     1       4.657   5.779  18.157  0.00  0.00    +0.000 C 
ATOM      4 CL   UNL     1       5.603   7.151  17.638  0.00  0.00    +0.000 Cl
ATOM      5  C   UNL     1       3.304   5.805  18.062  0.00  0.00    +0.000 C 
ATOM      6  C   UNL     1       2.515   4.660  18.681  0.00  0.00    +0.000 C 
ATOM      7  O   UNL     1       1.286   4.641  18.621  0.00  0.00    +0.000 OA
ATOM      8  C   UNL     1       3.285   3.671  19.357  0.00  0.00    +0.000 A 
ATOM      9  N   UNL     1       2.869   2.595  20.092  0.00  0.00    +0.000 N 
ATOM     10  C   UNL     1       3.995   1.995  20.587  0.00  0.00    +0.000 A 
ATOM     11  N   UNL     1       5.089   2.595  20.169  0.00  0.00    +0.000 NA
ATOM     12  C   UNL     1       4.656   3.653  19.403  0.00  0.00    +0.000 A 
ATOM     13  H   UNL     1       1.911   2.320  20.267  0.00  0.00    +0.000 HD
ENDROOT
BRANCH   5  14
ATOM     14  N   UNL     1       2.514   6.831  17.526  0.00  0.00    +0.000 N 
ATOM     15  H   UNL     1       2.906   7.146  16.631  0.00  0.00    +0.000 HD
BRANCH  14  16
ATOM     16  C   UNL     1       2.104   7.987  18.248  0.00  0.00    +0.000 A 
ATOM     17  C   UNL     1       2.042   9.208  17.555  0.00  0.00    +0.000 A 
ATOM     18  C   UNL     1       1.633  10.383  18.192  0.00  0.00    +0.000 A 
ATOM     19  C   UNL     1       1.258  10.352  19.532  0.00  0.00    +0.000 A 
ATOM     20  C   UNL     1       1.277   9.142  20.220  0.00  0.00    +0.000 A 
ATOM     21  I   UNL     1       0.692   9.081  22.216  0.00  0.00    +0.000 I 
ATOM     22  C   UNL     1       1.687   7.966  19.585  0.00  0.00    +0.000 A 
ENDBRANCH  14  16
ENDBRANCH   5  14
TORSDOF 2
ENDMDL
