MODEL 1
REMARK VINA RESULT:      -6.9      0.000      0.000
REMARK  Name = 
REMARK  10 active torsions:
REMARK  status: ('A' for Active; 'I' for Inactive)
REMARK    1  A    between atoms: C_1  and  C_2
REMARK    2  A    between atoms: C_2  and  C_3
REMARK    3  A    between atoms: C_3  and  C_4
REMARK    4  A    between atoms: C_3  and  N_7
REMARK    5  A    between atoms: C_4  and  O_6
REMARK    6  A    between atoms: N_7  and  C_8
REMARK    7  A    between atoms: N_7  and  C_9
REMARK    8  A    between atoms: C_9  and  C_10
REMARK    9  A    between atoms: C_11  and  O_12
REMARK   10  A    between atoms: O_12  and  C_13
REMARK                            x       y       z     vdW  Elec       q    Type
REMARK                         _______ _______ _______ _____ _____    ______ ____
ROOT
ATOM      1  C   UNL     1       3.988   5.695  17.752  0.00  0.00    +0.000 C 
ENDROOT
BRANCH   1   2
ATOM      2  C   UNL     1       2.942   4.982  18.587  0.00  0.00    +0.000 A 
ATOM      3  C   UNL     1       2.265   5.656  19.629  0.00  0.00    +0.000 A 
ATOM      4  C   UNL     1       1.339   4.964  20.425  0.00  0.00    +0.000 A 
ATOM      5  C   UNL     1       1.088   3.609  20.207  0.00  0.00    +0.000 A 
ATOM      6  C   UNL     1       1.766   2.943  19.198  0.00  0.00    +0.000 A 
ATOM      7  F   UNL     1       1.524   1.642  18.993  0.00  0.00    +0.000 F 
ATOM      8  C   UNL     1       2.690   3.613  18.405  0.00  0.00    +0.000 A 
ATOM      9  F   UNL     1       3.324   2.924  17.443  0.00  0.00    +0.000 F 
BRANCH   3  10
ATOM     10  O   UNL     1       2.582   6.979  19.800  0.00  0.00    +0.000 OA
ATOM     11  C   UNL     1       1.660   7.794  20.518  0.00  0.00    +0.000 C 
ENDBRANCH   3  10
ENDBRANCH   1   2
BRANCH   1  12
ATOM     12  N   UNL     1       5.371   5.192  17.895  0.00  0.00    +0.000 NA
ATOM     13  C   UNL     1       5.729   5.151  19.322  0.00  0.00    +0.000 C 
BRANCH  12  14
ATOM     14  C   UNL     1       6.377   5.947  17.081  0.00  0.00    +0.000 C 
BRANCH  14  16
ATOM     15  C   UNL     1       7.750   8.052  17.567  0.00  0.00    +0.000 C 
ATOM     16  C   UNL     1       7.543   6.571  17.867  0.00  0.00    +0.000 C 
ENDBRANCH  14  16
BRANCH  14  17
ATOM     17  C   UNL     1       6.836   5.019  15.927  0.00  0.00    +0.000 C 
ATOM     18  O   UNL     1       7.482   5.348  14.948  0.00  0.00    +0.000 OA
BRANCH  17  19
ATOM     19  O   UNL     1       6.425   3.736  16.135  0.00  0.00    +0.000 OA
ATOM     20  H   UNL     1       5.497   3.748  16.464  0.00  0.00    +0.000 HD
ENDBRANCH  17  19
ENDBRANCH  14  17
ENDBRANCH  12  14
ENDBRANCH   1  12
TORSDOF 7
ENDMDL
MODEL 2
REMARK VINA RESULT:      -6.9      1.321      1.933
REMARK  Name = 
REMARK  10 active torsions:
REMARK  status: ('A' for Active; 'I' for Inactive)
REMARK    1  A    between atoms: C_1  and  C_2
REMARK    2  A    between atoms: C_2  and  C_3
REMARK    3  A    between atoms: C_3  and  C_4
REMARK    4  A    between atoms: C_3  and  N_7
REMARK    5  A    between atoms: C_4  and  O_6
REMARK    6  A    between atoms: N_7  and  C_8
REMARK    7  A    between atoms: N_7  and  C_9
REMARK    8  A    between atoms: C_9  and  C_10
REMARK    9  A    between atoms: C_11  and  O_12
REMARK   10  A    between atoms: O_12  and  C_13
REMARK                            x       y       z     vdW  Elec       q    Type
REMARK                         _______ _______ _______ _____ _____    ______ ____
ROOT
ATOM      1  C   UNL     1       3.837   4.970  17.454  0.00  0.00    +0.000 C 
ENDROOT
BRANCH   1   2
ATOM      2  C   UNL     1       2.695   4.491  18.328  0.00  0.00    +0.000 A 
ATOM      3  C   UNL     1       2.289   5.235  19.460  0.00  0.00    +0.000 A 
ATOM      4  C   UNL     1       1.265   4.748  20.288  0.00  0.00    +0.000 A 
ATOM      5  C   UNL     1       0.650   3.526  20.013  0.00  0.00    +0.000 A 
ATOM      6  C   UNL     1       1.063   2.787  18.915  0.00  0.00    +0.000 A 
ATOM      7  F   UNL     1       0.471   1.613  18.655  0.00  0.00    +0.000 F 
ATOM      8  C   UNL     1       2.078   3.253  18.089  0.00  0.00    +0.000 A 
ATOM      9  F   UNL     1       2.445   2.500  17.040  0.00  0.00    +0.000 F 
BRANCH   3  10
ATOM     10  O   UNL     1       2.955   6.413  19.681  0.00  0.00    +0.000 OA
ATOM     11  C   UNL     1       2.211   7.624  19.585  0.00  0.00    +0.000 C 
ENDBRANCH   3  10
ENDBRANCH   1   2
BRANCH   1  12
ATOM     12  N   UNL     1       5.130   4.280  17.657  0.00  0.00    +0.000 NA
ATOM     13  C   UNL     1       5.879   4.954  18.728  0.00  0.00    +0.000 C 
BRANCH  12  14
ATOM     14  C   UNL     1       5.941   4.134  16.405  0.00  0.00    +0.000 C 
BRANCH  14  16
ATOM     15  C   UNL     1       5.906   3.938  13.853  0.00  0.00    +0.000 C 
ATOM     16  C   UNL     1       5.222   4.501  15.095  0.00  0.00    +0.000 C 
ENDBRANCH  14  16
BRANCH  14  17
ATOM     17  C   UNL     1       7.270   4.902  16.617  0.00  0.00    +0.000 C 
ATOM     18  O   UNL     1       7.498   6.056  16.297  0.00  0.00    +0.000 OA
BRANCH  17  19
ATOM     19  O   UNL     1       8.200   4.116  17.232  0.00  0.00    +0.000 OA
ATOM     20  H   UNL     1       9.022   4.642  17.366  0.00  0.00    +0.000 HD
ENDBRANCH  17  19
ENDBRANCH  14  17
ENDBRANCH  12  14
ENDBRANCH   1  12
TORSDOF 7
ENDMDL
MODEL 3
REMARK VINA RESULT:      -6.7      1.345      2.043
REMARK  Name = 
REMARK  10 active torsions:
REMARK  status: ('A' for Active; 'I' for Inactive)
REMARK    1  A    between atoms: C_1  and  C_2
REMARK    2  A    between atoms: C_2  and  C_3
REMARK    3  A    between atoms: C_3  and  C_4
REMARK    4  A    between atoms: C_3  and  N_7
REMARK    5  A    between atoms: C_4  and  O_6
REMARK    6  A    between atoms: N_7  and  C_8
REMARK    7  A    between atoms: N_7  and  C_9
REMARK    8  A    between atoms: C_9  and  C_10
REMARK    9  A    between atoms: C_11  and  O_12
REMARK   10  A    between atoms: O_12  and  C_13
REMARK                            x       y       z     vdW  Elec       q    Type
REMARK                         _______ _______ _______ _____ _____    ______ ____
ROOT
ATOM      1  C   UNL     1       3.729   5.418  17.364  0.00  0.00    +0.000 C 
ENDROOT
BRANCH   1   2
ATOM      2  C   UNL     1       2.869   4.825  18.462  0.00  0.00    +0.000 A 
ATOM      3  C   UNL     1       2.321   5.645  19.475  0.00  0.00    +0.000 A 
ATOM      4  C   UNL     1       1.571   5.070  20.513  0.00  0.00    +0.000 A 
ATOM      5  C   UNL     1       1.372   3.690  20.565  0.00  0.00    +0.000 A 
ATOM      6  C   UNL     1       1.927   2.884  19.584  0.00  0.00    +0.000 A 
ATOM      7  F   UNL     1       1.734   1.559  19.638  0.00  0.00    +0.000 F 
ATOM      8  C   UNL     1       2.675   3.438  18.552  0.00  0.00    +0.000 A 
ATOM      9  F   UNL     1       3.194   2.615  17.627  0.00  0.00    +0.000 F 
BRANCH   3  10
ATOM     10  O   UNL     1       2.579   6.988  19.372  0.00  0.00    +0.000 OA
ATOM     11  C   UNL     1       1.831   7.873  20.201  0.00  0.00    +0.000 C 
ENDBRANCH   3  10
ENDBRANCH   1   2
BRANCH   1  12
ATOM     12  N   UNL     1       5.129   5.715  17.739  0.00  0.00    +0.000 NA
ATOM     13  C   UNL     1       5.462   7.088  17.327  0.00  0.00    +0.000 C 
BRANCH  12  14
ATOM     14  C   UNL     1       6.118   4.714  17.224  0.00  0.00    +0.000 C 
BRANCH  14  16
ATOM     15  C   UNL     1       5.923   3.967  14.783  0.00  0.00    +0.000 C 
ATOM     16  C   UNL     1       6.586   4.920  15.773  0.00  0.00    +0.000 C 
ENDBRANCH  14  16
BRANCH  14  17
ATOM     17  C   UNL     1       7.283   4.641  18.244  0.00  0.00    +0.000 C 
ATOM     18  O   UNL     1       7.270   5.063  19.387  0.00  0.00    +0.000 OA
BRANCH  17  19
ATOM     19  O   UNL     1       8.371   4.022  17.705  0.00  0.00    +0.000 OA
ATOM     20  H   UNL     1       8.355   4.145  16.728  0.00  0.00    +0.000 HD
ENDBRANCH  17  19
ENDBRANCH  14  17
ENDBRANCH  12  14
ENDBRANCH   1  12
TORSDOF 7
ENDMDL
MODEL 4
REMARK VINA RESULT:      -6.7      2.399      5.768
REMARK  Name = 
REMARK  10 active torsions:
REMARK  status: ('A' for Active; 'I' for Inactive)
REMARK    1  A    between atoms: C_1  and  C_2
REMARK    2  A    between atoms: C_2  and  C_3
REMARK    3  A    between atoms: C_3  and  C_4
REMARK    4  A    between atoms: C_3  and  N_7
REMARK    5  A    between atoms: C_4  and  O_6
REMARK    6  A    between atoms: N_7  and  C_8
REMARK    7  A    between atoms: N_7  and  C_9
REMARK    8  A    between atoms: C_9  and  C_10
REMARK    9  A    between atoms: C_11  and  O_12
REMARK   10  A    between atoms: O_12  and  C_13
REMARK                            x       y       z     vdW  Elec       q    Type
REMARK                         _______ _______ _______ _____ _____    ______ ____
ROOT
ATOM      1  C   UNL     1       4.600   3.681  18.797  0.00  0.00    +0.000 C 
ENDROOT
BRANCH   1   2
ATOM      2  C   UNL     1       5.401   4.062  17.567  0.00  0.00    +0.000 A 
ATOM      3  C   UNL     1       6.704   4.597  17.688  0.00  0.00    +0.000 A 
ATOM      4  C   UNL     1       7.408   4.993  16.540  0.00  0.00    +0.000 A 
ATOM      5  C   UNL     1       6.829   4.877  15.277  0.00  0.00    +0.000 A 
ATOM      6  C   UNL     1       5.544   4.372  15.159  0.00  0.00    +0.000 A 
ATOM      7  F   UNL     1       4.990   4.264  13.944  0.00  0.00    +0.000 F 
ATOM      8  C   UNL     1       4.832   3.980  16.286  0.00  0.00    +0.000 A 
ATOM      9  F   UNL     1       3.589   3.499  16.121  0.00  0.00    +0.000 F 
BRANCH   3  10
ATOM     10  O   UNL     1       7.197   4.704  18.963  0.00  0.00    +0.000 OA
ATOM     11  C   UNL     1       7.858   5.915  19.319  0.00  0.00    +0.000 C 
ENDBRANCH   3  10
ENDBRANCH   1   2
BRANCH   1  12
ATOM     12  N   UNL     1       3.257   4.291  18.899  0.00  0.00    +0.000 NA
ATOM     13  C   UNL     1       3.359   5.579  19.601  0.00  0.00    +0.000 C 
BRANCH  12  14
ATOM     14  C   UNL     1       2.229   3.391  19.514  0.00  0.00    +0.000 C 
BRANCH  14  16
ATOM     15  C   UNL     1       1.531   2.694  21.876  0.00  0.00    +0.000 C 
ATOM     16  C   UNL     1       1.677   3.838  20.879  0.00  0.00    +0.000 C 
ENDBRANCH  14  16
BRANCH  14  17
ATOM     17  C   UNL     1       1.126   3.146  18.452  0.00  0.00    +0.000 C 
ATOM     18  O   UNL     1       0.327   2.226  18.438  0.00  0.00    +0.000 OA
BRANCH  17  19
ATOM     19  O   UNL     1       1.143   4.115  17.493  0.00  0.00    +0.000 OA
ATOM     20  H   UNL     1       0.215   4.349  17.261  0.00  0.00    +0.000 HD
ENDBRANCH  17  19
ENDBRANCH  14  17
ENDBRANCH  12  14
ENDBRANCH   1  12
TORSDOF 7
ENDMDL
MODEL 5
REMARK VINA RESULT:      -6.7      2.495      3.462
REMARK  Name = 
REMARK  10 active torsions:
REMARK  status: ('A' for Active; 'I' for Inactive)
REMARK    1  A    between atoms: C_1  and  C_2
REMARK    2  A    between atoms: C_2  and  C_3
REMARK    3  A    between atoms: C_3  and  C_4
REMARK    4  A    between atoms: C_3  and  N_7
REMARK    5  A    between atoms: C_4  and  O_6
REMARK    6  A    between atoms: N_7  and  C_8
REMARK    7  A    between atoms: N_7  and  C_9
REMARK    8  A    between atoms: C_9  and  C_10
REMARK    9  A    between atoms: C_11  and  O_12
REMARK   10  A    between atoms: O_12  and  C_13
REMARK                            x       y       z     vdW  Elec       q    Type
REMARK                         _______ _______ _______ _____ _____    ______ ____
ROOT
ATOM      1  C   UNL     1       3.735   5.011  17.110  0.00  0.00    +0.000 C 
ENDROOT
BRANCH   1   2
ATOM      2  C   UNL     1       2.985   4.775  18.406  0.00  0.00    +0.000 A 
ATOM      3  C   UNL     1       2.584   3.474  18.784  0.00  0.00    +0.000 A 
ATOM      4  C   UNL     1       1.844   3.282  19.962  0.00  0.00    +0.000 A 
ATOM      5  C   UNL     1       1.485   4.370  20.759  0.00  0.00    +0.000 A 
ATOM      6  C   UNL     1       1.861   5.649  20.378  0.00  0.00    +0.000 A 
ATOM      7  F   UNL     1       1.513   6.690  21.145  0.00  0.00    +0.000 F 
ATOM      8  C   UNL     1       2.589   5.854  19.213  0.00  0.00    +0.000 A 
ATOM      9  F   UNL     1       2.926   7.112  18.884  0.00  0.00    +0.000 F 
BRANCH   3  10
ATOM     10  O   UNL     1       2.951   2.458  17.939  0.00  0.00    +0.000 OA
ATOM     11  C   UNL     1       3.664   1.357  18.495  0.00  0.00    +0.000 C 
ENDBRANCH   3  10
ENDBRANCH   1   2
BRANCH   1  12
ATOM     12  N   UNL     1       5.118   5.515  17.254  0.00  0.00    +0.000 NA
ATOM     13  C   UNL     1       5.238   6.808  16.561  0.00  0.00    +0.000 C 
BRANCH  12  14
ATOM     14  C   UNL     1       6.167   4.539  16.817  0.00  0.00    +0.000 C 
BRANCH  14  16
ATOM     15  C   UNL     1       6.041   3.918  14.337  0.00  0.00    +0.000 C 
ATOM     16  C   UNL     1       6.738   4.756  15.405  0.00  0.00    +0.000 C 
ENDBRANCH  14  16
BRANCH  14  17
ATOM     17  C   UNL     1       7.253   4.494  17.923  0.00  0.00    +0.000 C 
ATOM     18  O   UNL     1       8.415   4.158  17.781  0.00  0.00    +0.000 OA
BRANCH  17  19
ATOM     19  O   UNL     1       6.748   4.893  19.125  0.00  0.00    +0.000 OA
ATOM     20  H   UNL     1       7.013   5.828  19.287  0.00  0.00    +0.000 HD
ENDBRANCH  17  19
ENDBRANCH  14  17
ENDBRANCH  12  14
ENDBRANCH   1  12
TORSDOF 7
ENDMDL
MODEL 6
REMARK VINA RESULT:      -6.7      1.897      2.389
REMARK  Name = 
REMARK  10 active torsions:
REMARK  status: ('A' for Active; 'I' for Inactive)
REMARK    1  A    between atoms: C_1  and  C_2
REMARK    2  A    between atoms: C_2  and  C_3
REMARK    3  A    between atoms: C_3  and  C_4
REMARK    4  A    between atoms: C_3  and  N_7
REMARK    5  A    between atoms: C_4  and  O_6
REMARK    6  A    between atoms: N_7  and  C_8
REMARK    7  A    between atoms: N_7  and  C_9
REMARK    8  A    between atoms: C_9  and  C_10
REMARK    9  A    between atoms: C_11  and  O_12
REMARK   10  A    between atoms: O_12  and  C_13
REMARK                            x       y       z     vdW  Elec       q    Type
REMARK                         _______ _______ _______ _____ _____    ______ ____
ROOT
ATOM      1  C   UNL     1       3.809   4.672  17.253  0.00  0.00    +0.000 C 
ENDROOT
BRANCH   1   2
ATOM      2  C   UNL     1       3.183   4.516  18.625  0.00  0.00    +0.000 A 
ATOM      3  C   UNL     1       2.320   5.508  19.144  0.00  0.00    +0.000 A 
ATOM      4  C   UNL     1       1.792   5.370  20.438  0.00  0.00    +0.000 A 
ATOM      5  C   UNL     1       2.123   4.267  21.226  0.00  0.00    +0.000 A 
ATOM      6  C   UNL     1       2.986   3.305  20.724  0.00  0.00    +0.000 A 
ATOM      7  F   UNL     1       3.303   2.248  21.484  0.00  0.00    +0.000 F 
ATOM      8  C   UNL     1       3.520   3.429  19.448  0.00  0.00    +0.000 A 
ATOM      9  F   UNL     1       4.354   2.473  19.008  0.00  0.00    +0.000 F 
BRANCH   3  10
ATOM     10  O   UNL     1       2.060   6.574  18.323  0.00  0.00    +0.000 OA
ATOM     11  C   UNL     1       2.285   7.882  18.842  0.00  0.00    +0.000 C 
ENDBRANCH   3  10
ENDBRANCH   1   2
BRANCH   1  12
ATOM     12  N   UNL     1       5.117   5.363  17.222  0.00  0.00    +0.000 NA
ATOM     13  C   UNL     1       4.996   6.598  16.433  0.00  0.00    +0.000 C 
BRANCH  12  14
ATOM     14  C   UNL     1       6.247   4.498  16.752  0.00  0.00    +0.000 C 
BRANCH  14  16
ATOM     15  C   UNL     1       6.262   3.910  14.260  0.00  0.00    +0.000 C 
ATOM     16  C   UNL     1       6.803   4.825  15.354  0.00  0.00    +0.000 C 
ENDBRANCH  14  16
BRANCH  14  17
ATOM     17  C   UNL     1       7.328   4.496  17.862  0.00  0.00    +0.000 C 
ATOM     18  O   UNL     1       8.483   4.128  17.746  0.00  0.00    +0.000 OA
BRANCH  17  19
ATOM     19  O   UNL     1       6.828   4.976  19.036  0.00  0.00    +0.000 OA
ATOM     20  H   UNL     1       7.081   5.924  19.126  0.00  0.00    +0.000 HD
ENDBRANCH  17  19
ENDBRANCH  14  17
ENDBRANCH  12  14
ENDBRANCH   1  12
TORSDOF 7
ENDMDL
MODEL 7
REMARK VINA RESULT:      -6.7      2.069      2.778
REMARK  Name = 
REMARK  10 active torsions:
REMARK  status: ('A' for Active; 'I' for Inactive)
REMARK    1  A    between atoms: C_1  and  C_2
REMARK    2  A    between atoms: C_2  and  C_3
REMARK    3  A    between atoms: C_3  and  C_4
REMARK    4  A    between atoms: C_3  and  N_7
REMARK    5  A    between atoms: C_4  and  O_6
REMARK    6  A    between atoms: N_7  and  C_8
REMARK    7  A    between atoms: N_7  and  C_9
REMARK    8  A    between atoms: C_9  and  C_10
REMARK    9  A    between atoms: C_11  and  O_12
REMARK   10  A    between atoms: O_12  and  C_13
REMARK                            x       y       z     vdW  Elec       q    Type
REMARK                         _______ _______ _______ _____ _____    ______ ____
ROOT
ATOM      1  C   UNL     1       4.002   5.352  17.441  0.00  0.00    +0.000 C 
ENDROOT
BRANCH   1   2
ATOM      2  C   UNL     1       3.016   5.002  18.538  0.00  0.00    +0.000 A 
ATOM      3  C   UNL     1       2.485   3.696  18.645  0.00  0.00    +0.000 A 
ATOM      4  C   UNL     1       1.534   3.405  19.635  0.00  0.00    +0.000 A 
ATOM      5  C   UNL     1       1.094   4.398  20.510  0.00  0.00    +0.000 A 
ATOM      6  C   UNL     1       1.599   5.683  20.393  0.00  0.00    +0.000 A 
ATOM      7  F   UNL     1       1.172   6.635  21.234  0.00  0.00    +0.000 F 
ATOM      8  C   UNL     1       2.538   5.988  19.415  0.00  0.00    +0.000 A 
ATOM      9  F   UNL     1       2.994   7.249  19.339  0.00  0.00    +0.000 F 
BRANCH   3  10
ATOM     10  O   UNL     1       2.946   2.779  17.735  0.00  0.00    +0.000 OA
ATOM     11  C   UNL     1       3.560   1.596  18.238  0.00  0.00    +0.000 C 
ENDBRANCH   3  10
ENDBRANCH   1   2
BRANCH   1  12
ATOM     12  N   UNL     1       5.410   4.984  17.704  0.00  0.00    +0.000 NA
ATOM     13  C   UNL     1       5.661   5.028  19.153  0.00  0.00    +0.000 C 
BRANCH  12  14
ATOM     14  C   UNL     1       6.403   5.798  16.932  0.00  0.00    +0.000 C 
BRANCH  14  16
ATOM     15  C   UNL     1       7.645   7.954  17.536  0.00  0.00    +0.000 C 
ATOM     16  C   UNL     1       7.523   6.450  17.762  0.00  0.00    +0.000 C 
ENDBRANCH  14  16
BRANCH  14  17
ATOM     17  C   UNL     1       6.927   4.918  15.770  0.00  0.00    +0.000 C 
ATOM     18  O   UNL     1       7.627   5.285  14.843  0.00  0.00    +0.000 OA
BRANCH  17  19
ATOM     19  O   UNL     1       6.506   3.628  15.902  0.00  0.00    +0.000 OA
ATOM     20  H   UNL     1       6.832   3.106  15.132  0.00  0.00    +0.000 HD
ENDBRANCH  17  19
ENDBRANCH  14  17
ENDBRANCH  12  14
ENDBRANCH   1  12
TORSDOF 7
ENDMDL
MODEL 8
REMARK VINA RESULT:      -6.6      1.763      2.283
REMARK  Name = 
REMARK  10 active torsions:
REMARK  status: ('A' for Active; 'I' for Inactive)
REMARK    1  A    between atoms: C_1  and  C_2
REMARK    2  A    between atoms: C_2  and  C_3
REMARK    3  A    between atoms: C_3  and  C_4
REMARK    4  A    between atoms: C_3  and  N_7
REMARK    5  A    between atoms: C_4  and  O_6
REMARK    6  A    between atoms: N_7  and  C_8
REMARK    7  A    between atoms: N_7  and  C_9
REMARK    8  A    between atoms: C_9  and  C_10
REMARK    9  A    between atoms: C_11  and  O_12
REMARK   10  A    between atoms: O_12  and  C_13
REMARK                            x       y       z     vdW  Elec       q    Type
REMARK                         _______ _______ _______ _____ _____    ______ ____
ROOT
ATOM      1  C   UNL     1       3.261   6.103  17.510  0.00  0.00    +0.000 C 
ENDROOT
BRANCH   1   2
ATOM      2  C   UNL     1       2.419   5.254  18.442  0.00  0.00    +0.000 A 
ATOM      3  C   UNL     1       2.106   5.703  19.745  0.00  0.00    +0.000 A 
ATOM      4  C   UNL     1       1.370   4.880  20.613  0.00  0.00    +0.000 A 
ATOM      5  C   UNL     1       0.955   3.612  20.206  0.00  0.00    +0.000 A 
ATOM      6  C   UNL     1       1.280   3.163  18.935  0.00  0.00    +0.000 A 
ATOM      7  F   UNL     1       0.882   1.944  18.548  0.00  0.00    +0.000 F 
ATOM      8  C   UNL     1       2.012   3.964  18.067  0.00  0.00    +0.000 A 
ATOM      9  F   UNL     1       2.304   3.484  16.848  0.00  0.00    +0.000 F 
BRANCH   3  10
ATOM     10  O   UNL     1       2.568   6.949  20.083  0.00  0.00    +0.000 OA
ATOM     11  C   UNL     1       1.615   7.914  20.521  0.00  0.00    +0.000 C 
ENDBRANCH   3  10
ENDBRANCH   1   2
BRANCH   1  12
ATOM     12  N   UNL     1       4.713   6.110  17.788  0.00  0.00    +0.000 NA
ATOM     13  C   UNL     1       5.365   7.127  16.947  0.00  0.00    +0.000 C 
BRANCH  12  14
ATOM     14  C   UNL     1       5.361   4.765  17.654  0.00  0.00    +0.000 C 
BRANCH  14  16
ATOM     15  C   UNL     1       6.024   3.783  15.384  0.00  0.00    +0.000 C 
ATOM     16  C   UNL     1       6.445   4.649  16.567  0.00  0.00    +0.000 C 
ENDBRANCH  14  16
BRANCH  14  17
ATOM     17  C   UNL     1       5.849   4.339  19.062  0.00  0.00    +0.000 C 
ATOM     18  O   UNL     1       6.542   4.998  19.817  0.00  0.00    +0.000 OA
BRANCH  17  19
ATOM     19  O   UNL     1       5.398   3.093  19.382  0.00  0.00    +0.000 OA
ATOM     20  H   UNL     1       5.828   2.804  20.220  0.00  0.00    +0.000 HD
ENDBRANCH  17  19
ENDBRANCH  14  17
ENDBRANCH  12  14
ENDBRANCH   1  12
TORSDOF 7
ENDMDL
MODEL 9
REMARK VINA RESULT:      -6.6      2.249      3.020
REMARK  Name = 
REMARK  10 active torsions:
REMARK  status: ('A' for Active; 'I' for Inactive)
REMARK    1  A    between atoms: C_1  and  C_2
REMARK    2  A    between atoms: C_2  and  C_3
REMARK    3  A    between atoms: C_3  and  C_4
REMARK    4  A    between atoms: C_3  and  N_7
REMARK    5  A    between atoms: C_4  and  O_6
REMARK    6  A    between atoms: N_7  and  C_8
REMARK    7  A    between atoms: N_7  and  C_9
REMARK    8  A    between atoms: C_9  and  C_10
REMARK    9  A    between atoms: C_11  and  O_12
REMARK   10  A    between atoms: O_12  and  C_13
REMARK                            x       y       z     vdW  Elec       q    Type
REMARK                         _______ _______ _______ _____ _____    ______ ____
ROOT
ATOM      1  C   UNL     1       5.230   4.527  18.810  0.00  0.00    +0.000 C 
ENDROOT
BRANCH   1   2
ATOM      2  C   UNL     1       3.912   4.364  19.541  0.00  0.00    +0.000 A 
ATOM      3  C   UNL     1       3.405   3.079  19.841  0.00  0.00    +0.000 A 
ATOM      4  C   UNL     1       2.157   2.948  20.472  0.00  0.00    +0.000 A 
ATOM      5  C   UNL     1       1.403   4.077  20.794  0.00  0.00    +0.000 A 
ATOM      6  C   UNL     1       1.891   5.336  20.481  0.00  0.00    +0.000 A 
ATOM      7  F   UNL     1       1.163   6.417  20.790  0.00  0.00    +0.000 F 
ATOM      8  C   UNL     1       3.122   5.481  19.853  0.00  0.00    +0.000 A 
ATOM      9  F   UNL     1       3.550   6.722  19.567  0.00  0.00    +0.000 F 
BRANCH   3  10
ATOM     10  O   UNL     1       4.190   2.017  19.473  0.00  0.00    +0.000 OA
ATOM     11  C   UNL     1       3.721   1.180  18.420  0.00  0.00    +0.000 C 
ENDBRANCH   3  10
ENDBRANCH   1   2
BRANCH   1  12
ATOM     12  N   UNL     1       5.147   5.161  17.476  0.00  0.00    +0.000 NA
ATOM     13  C   UNL     1       4.701   4.164  16.491  0.00  0.00    +0.000 C 
BRANCH  12  14
ATOM     14  C   UNL     1       6.409   5.849  17.054  0.00  0.00    +0.000 C 
BRANCH  14  16
ATOM     15  C   UNL     1       7.772   7.930  17.660  0.00  0.00    +0.000 C 
ATOM     16  C   UNL     1       7.148   6.629  18.155  0.00  0.00    +0.000 C 
ENDBRANCH  14  16
BRANCH  14  17
ATOM     17  C   UNL     1       7.297   4.800  16.338  0.00  0.00    +0.000 C 
ATOM     18  O   UNL     1       7.350   4.595  15.138  0.00  0.00    +0.000 OA
BRANCH  17  19
ATOM     19  O   UNL     1       8.050   4.100  17.233  0.00  0.00    +0.000 OA
ATOM     20  H   UNL     1       7.690   3.185  17.306  0.00  0.00    +0.000 HD
ENDBRANCH  17  19
ENDBRANCH  14  17
ENDBRANCH  12  14
ENDBRANCH   1  12
TORSDOF 7
ENDMDL
