MODEL 1
REMARK VINA RESULT:      -7.7      0.000      0.000
REMARK  Name = 
REMARK  10 active torsions:
REMARK  status: ('A' for Active; 'I' for Inactive)
REMARK    1  A    between atoms: C_1  and  C_2
REMARK    2  A    between atoms: C_2  and  C_13
REMARK    3  A    between atoms: N_3  and  N_4
REMARK    4  A    between atoms: C_5  and  C_7
REMARK    5  A    between atoms: C_7  and  C_8
REMARK    6  A    between atoms: C_8  and  C_9
REMARK    7  A    between atoms: C_9  and  C_10
REMARK    8  A    between atoms: C_10  and  O_12
REMARK    9  A    between atoms: C_14  and  O_15
REMARK   10  A    between atoms: C_24  and  C_25
REMARK                            x       y       z     vdW  Elec       q    Type
REMARK                         _______ _______ _______ _____ _____    ______ ____
ROOT
ATOM      1  C   UNL     1       2.920   6.370  18.173  0.00  0.00    +0.000 A 
ATOM      2  C   UNL     1       3.084   7.630  17.605  0.00  0.00    +0.000 A 
ATOM      3  N   UNL     1       2.563   8.766  18.092  0.00  0.00    +0.000 NA
ATOM      4  C   UNL     1       1.840   8.708  19.210  0.00  0.00    +0.000 A 
ATOM      5  C   UNL     1       1.253   9.893  19.647  0.00  0.00    +0.000 A 
ATOM      6  C   UNL     1       0.455   9.964  20.779  0.00  0.00    +0.000 A 
ATOM      7  C   UNL     1       0.274   8.823  21.532  0.00  0.00    +0.000 A 
ATOM      8 CL   UNL     1      -0.739   8.858  22.922  0.00  0.00    +0.000 Cl
ATOM      9  C   UNL     1       0.884   7.632  21.149  0.00  0.00    +0.000 A 
ATOM     10  C   UNL     1       1.632   7.511  19.933  0.00  0.00    +0.000 A 
ATOM     11  C   UNL     1       2.182   6.282  19.390  0.00  0.00    +0.000 A 
ENDROOT
BRANCH  11  12
ATOM     12  C   UNL     1       1.982   4.981  20.116  0.00  0.00    +0.000 A 
ATOM     13  C   UNL     1       0.866   4.156  19.868  0.00  0.00    +0.000 A 
ATOM     14  C   UNL     1       0.614   3.005  20.624  0.00  0.00    +0.000 A 
ATOM     15  C   UNL     1       1.541   2.575  21.562  0.00  0.00    +0.000 A 
ATOM     16  C   UNL     1       2.701   3.315  21.768  0.00  0.00    +0.000 A 
ATOM     17  C   UNL     1       2.890   4.526  21.090  0.00  0.00    +0.000 A 
ENDBRANCH  11  12
BRANCH   1  19
ATOM     18  C   UNL     1       2.545   3.995  17.166  0.00  0.00    +0.000 C 
ATOM     19  C   UNL     1       3.473   5.165  17.457  0.00  0.00    +0.000 C 
ATOM     20  N   UNL     1       4.741   5.162  17.170  0.00  0.00    +0.000 NA
BRANCH  20  21
ATOM     21  N   UNL     1       5.249   4.201  16.352  0.00  0.00    +0.000 N 
ATOM     22  C   UNL     1       5.783   4.591  15.134  0.00  0.00    +0.000 C 
ATOM     23  O   UNL     1       5.948   5.751  14.774  0.00  0.00    +0.000 OA
ATOM     24  H   UNL     1       4.901   3.251  16.444  0.00  0.00    +0.000 HD
BRANCH  22  25
ATOM     25  C   UNL     1       6.227   3.419  14.281  0.00  0.00    +0.000 C 
BRANCH  25  26
ATOM     26  C   UNL     1       6.239   3.802  12.792  0.00  0.00    +0.000 C 
BRANCH  26  27
ATOM     27  C   UNL     1       5.548   2.775  11.890  0.00  0.00    +0.000 C 
BRANCH  27  28
ATOM     28  C   UNL     1       6.506   1.726  11.380  0.00  0.00    +0.000 C 
ATOM     29  O   UNL     1       7.645   1.949  11.000  0.00  0.00    +0.000 OA
BRANCH  28  30
ATOM     30  O   UNL     1       5.981   0.480  11.382  0.00  0.00    +0.000 OA
ATOM     31  H   UNL     1       6.088   0.004  10.534  0.00  0.00    +0.000 HD
ENDBRANCH  28  30
ENDBRANCH  27  28
ENDBRANCH  26  27
ENDBRANCH  25  26
ENDBRANCH  22  25
ENDBRANCH  20  21
ENDBRANCH   1  19
BRANCH   2  32
ATOM     32  O   UNL     1       3.786   7.839  16.457  0.00  0.00    +0.000 OA
ATOM     33  H   UNL     1       4.709   7.978  16.735  0.00  0.00    +0.000 HD
ENDBRANCH   2  32
TORSDOF 9
ENDMDL
MODEL 2
REMARK VINA RESULT:      -7.6      0.563      1.097
REMARK  Name = 
REMARK  10 active torsions:
REMARK  status: ('A' for Active; 'I' for Inactive)
REMARK    1  A    between atoms: C_1  and  C_2
REMARK    2  A    between atoms: C_2  and  C_13
REMARK    3  A    between atoms: N_3  and  N_4
REMARK    4  A    between atoms: C_5  and  C_7
REMARK    5  A    between atoms: C_7  and  C_8
REMARK    6  A    between atoms: C_8  and  C_9
REMARK    7  A    between atoms: C_9  and  C_10
REMARK    8  A    between atoms: C_10  and  O_12
REMARK    9  A    between atoms: C_14  and  O_15
REMARK   10  A    between atoms: C_24  and  C_25
REMARK                            x       y       z     vdW  Elec       q    Type
REMARK                         _______ _______ _______ _____ _____    ______ ____
ROOT
ATOM      1  C   UNL     1       2.924   6.473  18.238  0.00  0.00    +0.000 A 
ATOM      2  C   UNL     1       3.057   7.743  17.682  0.00  0.00    +0.000 A 
ATOM      3  N   UNL     1       2.516   8.862  18.184  0.00  0.00    +0.000 NA
ATOM      4  C   UNL     1       1.803   8.778  19.307  0.00  0.00    +0.000 A 
ATOM      5  C   UNL     1       1.195   9.945  19.761  0.00  0.00    +0.000 A 
ATOM      6  C   UNL     1       0.404   9.987  20.899  0.00  0.00    +0.000 A 
ATOM      7  C   UNL     1       0.253   8.835  21.642  0.00  0.00    +0.000 A 
ATOM      8 CL   UNL     1      -0.751   8.834  23.039  0.00  0.00    +0.000 Cl
ATOM      9  C   UNL     1       0.884   7.661  21.241  0.00  0.00    +0.000 A 
ATOM     10  C   UNL     1       1.625   7.568  20.019  0.00  0.00    +0.000 A 
ATOM     11  C   UNL     1       2.197   6.357  19.459  0.00  0.00    +0.000 A 
ENDROOT
BRANCH  11  12
ATOM     12  C   UNL     1       2.029   5.045  20.172  0.00  0.00    +0.000 A 
ATOM     13  C   UNL     1       3.065   4.481  20.946  0.00  0.00    +0.000 A 
ATOM     14  C   UNL     1       2.955   3.207  21.513  0.00  0.00    +0.000 A 
ATOM     15  C   UNL     1       1.756   2.513  21.433  0.00  0.00    +0.000 A 
ATOM     16  C   UNL     1       0.681   3.080  20.757  0.00  0.00    +0.000 A 
ATOM     17  C   UNL     1       0.835   4.304  20.094  0.00  0.00    +0.000 A 
ENDBRANCH  11  12
BRANCH   1  19
ATOM     18  C   UNL     1       2.583   4.117  17.178  0.00  0.00    +0.000 C 
ATOM     19  C   UNL     1       3.497   5.288  17.505  0.00  0.00    +0.000 C 
ATOM     20  N   UNL     1       4.769   5.301  17.235  0.00  0.00    +0.000 NA
BRANCH  20  21
ATOM     21  N   UNL     1       5.295   4.361  16.405  0.00  0.00    +0.000 N 
ATOM     22  C   UNL     1       5.862   4.783  15.212  0.00  0.00    +0.000 C 
ATOM     23  O   UNL     1       6.039   5.952  14.888  0.00  0.00    +0.000 OA
ATOM     24  H   UNL     1       4.943   3.411  16.461  0.00  0.00    +0.000 HD
BRANCH  22  25
ATOM     25  C   UNL     1       6.326   3.633  14.339  0.00  0.00    +0.000 C 
BRANCH  25  26
ATOM     26  C   UNL     1       6.390   4.061  12.864  0.00  0.00    +0.000 C 
BRANCH  26  27
ATOM     27  C   UNL     1       6.818   2.935  11.918  0.00  0.00    +0.000 C 
BRANCH  27  28
ATOM     28  C   UNL     1       5.652   2.081  11.480  0.00  0.00    +0.000 C 
ATOM     29  O   UNL     1       4.531   2.504  11.241  0.00  0.00    +0.000 OA
BRANCH  28  30
ATOM     30  O   UNL     1       5.964   0.770  11.369  0.00  0.00    +0.000 OA
ATOM     31  H   UNL     1       6.347   0.527  10.503  0.00  0.00    +0.000 HD
ENDBRANCH  28  30
ENDBRANCH  27  28
ENDBRANCH  26  27
ENDBRANCH  25  26
ENDBRANCH  22  25
ENDBRANCH  20  21
ENDBRANCH   1  19
BRANCH   2  32
ATOM     32  O   UNL     1       3.746   7.978  16.531  0.00  0.00    +0.000 OA
ATOM     33  H   UNL     1       3.167   8.542  15.988  0.00  0.00    +0.000 HD
ENDBRANCH   2  32
TORSDOF 9
ENDMDL
MODEL 3
REMARK VINA RESULT:      -7.1      1.525      1.680
REMARK  Name = 
REMARK  10 active torsions:
REMARK  status: ('A' for Active; 'I' for Inactive)
REMARK    1  A    between atoms: C_1  and  C_2
REMARK    2  A    between atoms: C_2  and  C_13
REMARK    3  A    between atoms: N_3  and  N_4
REMARK    4  A    between atoms: C_5  and  C_7
REMARK    5  A    between atoms: C_7  and  C_8
REMARK    6  A    between atoms: C_8  and  C_9
REMARK    7  A    between atoms: C_9  and  C_10
REMARK    8  A    between atoms: C_10  and  O_12
REMARK    9  A    between atoms: C_14  and  O_15
REMARK   10  A    between atoms: C_24  and  C_25
REMARK                            x       y       z     vdW  Elec       q    Type
REMARK                         _______ _______ _______ _____ _____    ______ ____
ROOT
ATOM      1  C   UNL     1       2.916   6.472  18.261  0.00  0.00    +0.000 A 
ATOM      2  C   UNL     1       3.066   7.745  17.719  0.00  0.00    +0.000 A 
ATOM      3  N   UNL     1       2.516   8.862  18.216  0.00  0.00    +0.000 NA
ATOM      4  C   UNL     1       1.775   8.771  19.320  0.00  0.00    +0.000 A 
ATOM      5  C   UNL     1       1.160   9.938  19.769  0.00  0.00    +0.000 A 
ATOM      6  C   UNL     1       0.341   9.973  20.887  0.00  0.00    +0.000 A 
ATOM      7  C   UNL     1       0.169   8.816  21.617  0.00  0.00    +0.000 A 
ATOM      8 CL   UNL     1      -0.869   8.807  22.989  0.00  0.00    +0.000 Cl
ATOM      9  C   UNL     1       0.806   7.643  21.223  0.00  0.00    +0.000 A 
ATOM     10  C   UNL     1       1.577   7.558  20.018  0.00  0.00    +0.000 A 
ATOM     11  C   UNL     1       2.159   6.349  19.463  0.00  0.00    +0.000 A 
ENDROOT
BRANCH  11  12
ATOM     12  C   UNL     1       1.970   5.032  20.162  0.00  0.00    +0.000 A 
ATOM     13  C   UNL     1       0.862   4.201  19.896  0.00  0.00    +0.000 A 
ATOM     14  C   UNL     1       0.620   3.033  20.629  0.00  0.00    +0.000 A 
ATOM     15  C   UNL     1       1.551   2.593  21.559  0.00  0.00    +0.000 A 
ATOM     16  C   UNL     1       2.703   3.339  21.781  0.00  0.00    +0.000 A 
ATOM     17  C   UNL     1       2.882   4.565  21.128  0.00  0.00    +0.000 A 
ENDBRANCH  11  12
BRANCH   1  19
ATOM     18  C   UNL     1       2.595   4.123  17.180  0.00  0.00    +0.000 C 
ATOM     19  C   UNL     1       3.503   5.291  17.533  0.00  0.00    +0.000 C 
ATOM     20  N   UNL     1       4.780   5.304  17.291  0.00  0.00    +0.000 NA
BRANCH  20  21
ATOM     21  N   UNL     1       5.324   4.369  16.466  0.00  0.00    +0.000 N 
ATOM     22  C   UNL     1       5.638   4.742  15.168  0.00  0.00    +0.000 C 
ATOM     23  O   UNL     1       5.580   5.883  14.727  0.00  0.00    +0.000 OA
ATOM     24  H   UNL     1       5.138   3.389  16.654  0.00  0.00    +0.000 HD
BRANCH  22  25
ATOM     25  C   UNL     1       6.147   3.586  14.329  0.00  0.00    +0.000 C 
BRANCH  25  26
ATOM     26  C   UNL     1       6.075   3.927  12.832  0.00  0.00    +0.000 C 
BRANCH  26  27
ATOM     27  C   UNL     1       7.447   4.144  12.186  0.00  0.00    +0.000 C 
BRANCH  27  28
ATOM     28  C   UNL     1       8.041   5.487  12.541  0.00  0.00    +0.000 C 
ATOM     29  O   UNL     1       8.702   5.713  13.543  0.00  0.00    +0.000 OA
BRANCH  28  30
ATOM     30  O   UNL     1       7.772   6.445  11.626  0.00  0.00    +0.000 OA
ATOM     31  H   UNL     1       8.080   6.228  10.724  0.00  0.00    +0.000 HD
ENDBRANCH  28  30
ENDBRANCH  27  28
ENDBRANCH  26  27
ENDBRANCH  25  26
ENDBRANCH  22  25
ENDBRANCH  20  21
ENDBRANCH   1  19
BRANCH   2  32
ATOM     32  O   UNL     1       3.784   7.988  16.587  0.00  0.00    +0.000 OA
ATOM     33  H   UNL     1       4.135   8.890  16.686  0.00  0.00    +0.000 HD
ENDBRANCH   2  32
TORSDOF 9
ENDMDL
MODEL 4
REMARK VINA RESULT:      -7.0      4.177      7.013
REMARK  Name = 
REMARK  10 active torsions:
REMARK  status: ('A' for Active; 'I' for Inactive)
REMARK    1  A    between atoms: C_1  and  C_2
REMARK    2  A    between atoms: C_2  and  C_13
REMARK    3  A    between atoms: N_3  and  N_4
REMARK    4  A    between atoms: C_5  and  C_7
REMARK    5  A    between atoms: C_7  and  C_8
REMARK    6  A    between atoms: C_8  and  C_9
REMARK    7  A    between atoms: C_9  and  C_10
REMARK    8  A    between atoms: C_10  and  O_12
REMARK    9  A    between atoms: C_14  and  O_15
REMARK   10  A    between atoms: C_24  and  C_25
REMARK                            x       y       z     vdW  Elec       q    Type
REMARK                         _______ _______ _______ _____ _____    ______ ____
ROOT
ATOM      1  C   UNL     1       0.041  10.398  20.511  0.00  0.00    +0.000 A 
ATOM      2  C   UNL     1       0.420  10.585  21.837  0.00  0.00    +0.000 A 
ATOM      3  N   UNL     1      -0.219  11.370  22.716  0.00  0.00    +0.000 NA
ATOM      4  C   UNL     1      -1.311  12.020  22.314  0.00  0.00    +0.000 A 
ATOM      5  C   UNL     1      -1.908  12.883  23.230  0.00  0.00    +0.000 A 
ATOM      6  C   UNL     1      -3.031  13.639  22.928  0.00  0.00    +0.000 A 
ATOM      7  C   UNL     1      -3.611  13.494  21.686  0.00  0.00    +0.000 A 
ATOM      8 CL   UNL     1      -4.982  14.440  21.257  0.00  0.00    +0.000 Cl
ATOM      9  C   UNL     1      -3.067  12.606  20.763  0.00  0.00    +0.000 A 
ATOM     10  C   UNL     1      -1.853  11.888  21.014  0.00  0.00    +0.000 A 
ATOM     11  C   UNL     1      -1.144  11.051  20.063  0.00  0.00    +0.000 A 
ENDROOT
BRANCH  11  12
ATOM     12  C   UNL     1      -1.674  10.884  18.666  0.00  0.00    +0.000 A 
ATOM     13  C   UNL     1      -1.579  11.913  17.707  0.00  0.00    +0.000 A 
ATOM     14  C   UNL     1      -2.175  11.806  16.445  0.00  0.00    +0.000 A 
ATOM     15  C   UNL     1      -2.770  10.614  16.058  0.00  0.00    +0.000 A 
ATOM     16  C   UNL     1      -2.800   9.544  16.946  0.00  0.00    +0.000 A 
ATOM     17  C   UNL     1      -2.304   9.697  18.247  0.00  0.00    +0.000 A 
ENDBRANCH  11  12
BRANCH   1  19
ATOM     18  C   UNL     1       1.377  10.167  18.286  0.00  0.00    +0.000 C 
ATOM     19  C   UNL     1       0.917   9.570  19.608  0.00  0.00    +0.000 C 
ATOM     20  N   UNL     1       1.193   8.356  19.980  0.00  0.00    +0.000 NA
BRANCH  20  21
ATOM     21  N   UNL     1       2.136   7.639  19.311  0.00  0.00    +0.000 N 
ATOM     22  C   UNL     1       2.448   6.370  19.775  0.00  0.00    +0.000 C 
ATOM     23  O   UNL     1       1.859   5.782  20.674  0.00  0.00    +0.000 OA
ATOM     24  H   UNL     1       2.836   8.140  18.771  0.00  0.00    +0.000 HD
BRANCH  22  25
ATOM     25  C   UNL     1       3.577   5.719  18.999  0.00  0.00    +0.000 C 
BRANCH  25  26
ATOM     26  C   UNL     1       3.026   4.902  17.819  0.00  0.00    +0.000 C 
BRANCH  26  27
ATOM     27  C   UNL     1       3.785   3.595  17.572  0.00  0.00    +0.000 C 
BRANCH  27  28
ATOM     28  C   UNL     1       3.851   2.729  18.808  0.00  0.00    +0.000 C 
ATOM     29  O   UNL     1       2.907   2.114  19.278  0.00  0.00    +0.000 OA
BRANCH  28  30
ATOM     30  O   UNL     1       5.083   2.689  19.364  0.00  0.00    +0.000 OA
ATOM     31  H   UNL     1       5.575   3.531  19.296  0.00  0.00    +0.000 HD
ENDBRANCH  28  30
ENDBRANCH  27  28
ENDBRANCH  26  27
ENDBRANCH  25  26
ENDBRANCH  22  25
ENDBRANCH  20  21
ENDBRANCH   1  19
BRANCH   2  32
ATOM     32  O   UNL     1       1.520   9.995  22.383  0.00  0.00    +0.000 OA
ATOM     33  H   UNL     1       2.049   9.677  21.630  0.00  0.00    +0.000 HD
ENDBRANCH   2  32
TORSDOF 9
ENDMDL
MODEL 5
REMARK VINA RESULT:      -7.0      4.440      7.177
REMARK  Name = 
REMARK  10 active torsions:
REMARK  status: ('A' for Active; 'I' for Inactive)
REMARK    1  A    between atoms: C_1  and  C_2
REMARK    2  A    between atoms: C_2  and  C_13
REMARK    3  A    between atoms: N_3  and  N_4
REMARK    4  A    between atoms: C_5  and  C_7
REMARK    5  A    between atoms: C_7  and  C_8
REMARK    6  A    between atoms: C_8  and  C_9
REMARK    7  A    between atoms: C_9  and  C_10
REMARK    8  A    between atoms: C_10  and  O_12
REMARK    9  A    between atoms: C_14  and  O_15
REMARK   10  A    between atoms: C_24  and  C_25
REMARK                            x       y       z     vdW  Elec       q    Type
REMARK                         _______ _______ _______ _____ _____    ______ ____
ROOT
ATOM      1  C   UNL     1       4.705   5.319  17.062  0.00  0.00    +0.000 A 
ATOM      2  C   UNL     1       5.170   4.065  16.676  0.00  0.00    +0.000 A 
ATOM      3  N   UNL     1       4.624   2.896  17.045  0.00  0.00    +0.000 NA
ATOM      4  C   UNL     1       3.547   2.915  17.829  0.00  0.00    +0.000 A 
ATOM      5  C   UNL     1       3.050   1.684  18.252  0.00  0.00    +0.000 A 
ATOM      6  C   UNL     1       1.953   1.565  19.092  0.00  0.00    +0.000 A 
ATOM      7  C   UNL     1       1.296   2.711  19.487  0.00  0.00    +0.000 A 
ATOM      8 CL   UNL     1      -0.046   2.611  20.559  0.00  0.00    +0.000 Cl
ATOM      9  C   UNL     1       1.739   3.954  19.046  0.00  0.00    +0.000 A 
ATOM     10  C   UNL     1       2.925   4.110  18.258  0.00  0.00    +0.000 A 
ATOM     11  C   UNL     1       3.533   5.371  17.872  0.00  0.00    +0.000 A 
ENDROOT
BRANCH  11  12
ATOM     12  C   UNL     1       2.915   6.670  18.309  0.00  0.00    +0.000 A 
ATOM     13  C   UNL     1       2.563   6.910  19.653  0.00  0.00    +0.000 A 
ATOM     14  C   UNL     1       1.881   8.069  20.043  0.00  0.00    +0.000 A 
ATOM     15  C   UNL     1       1.649   9.080  19.122  0.00  0.00    +0.000 A 
ATOM     16  C   UNL     1       2.068   8.917  17.806  0.00  0.00    +0.000 A 
ATOM     17  C   UNL     1       2.645   7.708  17.398  0.00  0.00    +0.000 A 
ENDBRANCH  11  12
BRANCH   1  19
ATOM     18  C   UNL     1       5.126   7.244  15.357  0.00  0.00    +0.000 C 
ATOM     19  C   UNL     1       5.483   6.544  16.660  0.00  0.00    +0.000 C 
ATOM     20  N   UNL     1       6.467   6.915  17.425  0.00  0.00    +0.000 NA
BRANCH  20  21
ATOM     21  N   UNL     1       7.068   8.118  17.222  0.00  0.00    +0.000 N 
ATOM     22  C   UNL     1       8.101   8.487  18.070  0.00  0.00    +0.000 C 
ATOM     23  O   UNL     1       8.607   7.766  18.923  0.00  0.00    +0.000 OA
ATOM     24  H   UNL     1       6.543   8.851  16.756  0.00  0.00    +0.000 HD
BRANCH  22  25
ATOM     25  C   UNL     1       8.620   9.885  17.796  0.00  0.00    +0.000 C 
BRANCH  25  26
ATOM     26  C   UNL     1       9.516  10.369  18.948  0.00  0.00    +0.000 C 
BRANCH  26  27
ATOM     27  C   UNL     1      10.068  11.783  18.742  0.00  0.00    +0.000 C 
BRANCH  27  28
ATOM     28  C   UNL     1      11.574  11.799  18.637  0.00  0.00    +0.000 C 
ATOM     29  O   UNL     1      12.333  12.052  19.560  0.00  0.00    +0.000 OA
BRANCH  28  30
ATOM     30  O   UNL     1      12.024  11.499  17.398  0.00  0.00    +0.000 OA
ATOM     31  H   UNL     1      12.749  10.843  17.389  0.00  0.00    +0.000 HD
ENDBRANCH  28  30
ENDBRANCH  27  28
ENDBRANCH  26  27
ENDBRANCH  25  26
ENDBRANCH  22  25
ENDBRANCH  20  21
ENDBRANCH   1  19
BRANCH   2  32
ATOM     32  O   UNL     1       6.266   3.892  15.887  0.00  0.00    +0.000 OA
ATOM     33  H   UNL     1       5.923   3.760  14.985  0.00  0.00    +0.000 HD
ENDBRANCH   2  32
TORSDOF 9
ENDMDL
MODEL 6
REMARK VINA RESULT:      -6.9      8.274     10.622
REMARK  Name = 
REMARK  10 active torsions:
REMARK  status: ('A' for Active; 'I' for Inactive)
REMARK    1  A    between atoms: C_1  and  C_2
REMARK    2  A    between atoms: C_2  and  C_13
REMARK    3  A    between atoms: N_3  and  N_4
REMARK    4  A    between atoms: C_5  and  C_7
REMARK    5  A    between atoms: C_7  and  C_8
REMARK    6  A    between atoms: C_8  and  C_9
REMARK    7  A    between atoms: C_9  and  C_10
REMARK    8  A    between atoms: C_10  and  O_12
REMARK    9  A    between atoms: C_14  and  O_15
REMARK   10  A    between atoms: C_24  and  C_25
REMARK                            x       y       z     vdW  Elec       q    Type
REMARK                         _______ _______ _______ _____ _____    ______ ____
ROOT
ATOM      1  C   UNL     1      -2.280  11.919  18.554  0.00  0.00    +0.000 A 
ATOM      2  C   UNL     1      -2.939  11.503  17.400  0.00  0.00    +0.000 A 
ATOM      3  N   UNL     1      -4.266  11.353  17.285  0.00  0.00    +0.000 NA
ATOM      4  C   UNL     1      -5.033  11.631  18.339  0.00  0.00    +0.000 A 
ATOM      5  C   UNL     1      -6.400  11.395  18.208  0.00  0.00    +0.000 A 
ATOM      6  C   UNL     1      -7.302  11.615  19.237  0.00  0.00    +0.000 A 
ATOM      7  C   UNL     1      -6.836  12.136  20.425  0.00  0.00    +0.000 A 
ATOM      8 CL   UNL     1      -7.915  12.388  21.741  0.00  0.00    +0.000 Cl
ATOM      9  C   UNL     1      -5.483  12.426  20.574  0.00  0.00    +0.000 A 
ATOM     10  C   UNL     1      -4.517  12.117  19.562  0.00  0.00    +0.000 A 
ATOM     11  C   UNL     1      -3.077  12.258  19.686  0.00  0.00    +0.000 A 
ENDROOT
BRANCH  11  12
ATOM     12  C   UNL     1      -2.477  12.764  20.969  0.00  0.00    +0.000 A 
ATOM     13  C   UNL     1      -2.229  14.135  21.184  0.00  0.00    +0.000 A 
ATOM     14  C   UNL     1      -1.563  14.596  22.325  0.00  0.00    +0.000 A 
ATOM     15  C   UNL     1      -1.244  13.712  23.346  0.00  0.00    +0.000 A 
ATOM     16  C   UNL     1      -1.559  12.364  23.209  0.00  0.00    +0.000 A 
ATOM     17  C   UNL     1      -2.120  11.893  22.015  0.00  0.00    +0.000 A 
ENDBRANCH  11  12
BRANCH   1  19
ATOM     18  C   UNL     1      -0.032  10.733  19.129  0.00  0.00    +0.000 C 
ATOM     19  C   UNL     1      -0.774  11.939  18.571  0.00  0.00    +0.000 C 
ATOM     20  N   UNL     1      -0.178  13.017  18.158  0.00  0.00    +0.000 NA
BRANCH  20  21
ATOM     21  N   UNL     1       1.168  13.016  17.962  0.00  0.00    +0.000 N 
ATOM     22  C   UNL     1       1.944  13.872  18.729  0.00  0.00    +0.000 C 
ATOM     23  O   UNL     1       1.534  14.553  19.661  0.00  0.00    +0.000 OA
ATOM     24  H   UNL     1       1.528  12.717  17.061  0.00  0.00    +0.000 HD
BRANCH  22  25
ATOM     25  C   UNL     1       3.411  13.841  18.347  0.00  0.00    +0.000 C 
BRANCH  25  26
ATOM     26  C   UNL     1       3.999  15.261  18.327  0.00  0.00    +0.000 C 
BRANCH  26  27
ATOM     27  C   UNL     1       3.498  16.114  17.157  0.00  0.00    +0.000 C 
BRANCH  27  28
ATOM     28  C   UNL     1       2.603  17.241  17.612  0.00  0.00    +0.000 C 
ATOM     29  O   UNL     1       1.892  17.906  16.875  0.00  0.00    +0.000 OA
BRANCH  28  30
ATOM     30  O   UNL     1       2.654  17.455  18.947  0.00  0.00    +0.000 OA
ATOM     31  H   UNL     1       3.115  16.751  19.442  0.00  0.00    +0.000 HD
ENDBRANCH  28  30
ENDBRANCH  27  28
ENDBRANCH  26  27
ENDBRANCH  25  26
ENDBRANCH  22  25
ENDBRANCH  20  21
ENDBRANCH   1  19
BRANCH   2  32
ATOM     32  O   UNL     1      -2.285  11.175  16.252  0.00  0.00    +0.000 OA
ATOM     33  H   UNL     1      -1.784  11.970  15.997  0.00  0.00    +0.000 HD
ENDBRANCH   2  32
TORSDOF 9
ENDMDL
MODEL 7
REMARK VINA RESULT:      -6.9      4.673      7.401
REMARK  Name = 
REMARK  10 active torsions:
REMARK  status: ('A' for Active; 'I' for Inactive)
REMARK    1  A    between atoms: C_1  and  C_2
REMARK    2  A    between atoms: C_2  and  C_13
REMARK    3  A    between atoms: N_3  and  N_4
REMARK    4  A    between atoms: C_5  and  C_7
REMARK    5  A    between atoms: C_7  and  C_8
REMARK    6  A    between atoms: C_8  and  C_9
REMARK    7  A    between atoms: C_9  and  C_10
REMARK    8  A    between atoms: C_10  and  O_12
REMARK    9  A    between atoms: C_14  and  O_15
REMARK   10  A    between atoms: C_24  and  C_25
REMARK                            x       y       z     vdW  Elec       q    Type
REMARK                         _______ _______ _______ _____ _____    ______ ____
ROOT
ATOM      1  C   UNL     1      -0.057  10.659  20.243  0.00  0.00    +0.000 A 
ATOM      2  C   UNL     1       0.408  11.016  21.506  0.00  0.00    +0.000 A 
ATOM      3  N   UNL     1      -0.178  11.908  22.317  0.00  0.00    +0.000 NA
ATOM      4  C   UNL     1      -1.300  12.501  21.908  0.00  0.00    +0.000 A 
ATOM      5  C   UNL     1      -1.843  13.475  22.743  0.00  0.00    +0.000 A 
ATOM      6  C   UNL     1      -2.989  14.185  22.422  0.00  0.00    +0.000 A 
ATOM      7  C   UNL     1      -3.649  13.881  21.250  0.00  0.00    +0.000 A 
ATOM      8 CL   UNL     1      -5.054  14.765  20.796  0.00  0.00    +0.000 Cl
ATOM      9  C   UNL     1      -3.159  12.882  20.415  0.00  0.00    +0.000 A 
ATOM     10  C   UNL     1      -1.925  12.202  20.675  0.00  0.00    +0.000 A 
ATOM     11  C   UNL     1      -1.274  11.250  19.794  0.00  0.00    +0.000 A 
ENDROOT
BRANCH  11  12
ATOM     12  C   UNL     1      -1.894  10.904  18.468  0.00  0.00    +0.000 A 
ATOM     13  C   UNL     1      -1.751  11.738  17.341  0.00  0.00    +0.000 A 
ATOM     14  C   UNL     1      -2.423  11.481  16.140  0.00  0.00    +0.000 A 
ATOM     15  C   UNL     1      -3.153  10.310  15.991  0.00  0.00    +0.000 A 
ATOM     16  C   UNL     1      -3.239   9.417  17.054  0.00  0.00    +0.000 A 
ATOM     17  C   UNL     1      -2.660   9.737  18.288  0.00  0.00    +0.000 A 
ENDBRANCH  11  12
BRANCH   1  19
ATOM     18  C   UNL     1       1.328  10.229  18.077  0.00  0.00    +0.000 C 
ATOM     19  C   UNL     1       0.765   9.722  19.397  0.00  0.00    +0.000 C 
ATOM     20  N   UNL     1       0.907   8.499  19.813  0.00  0.00    +0.000 NA
BRANCH  20  21
ATOM     21  N   UNL     1       1.798   7.673  19.201  0.00  0.00    +0.000 N 
ATOM     22  C   UNL     1       2.156   6.499  19.847  0.00  0.00    +0.000 C 
ATOM     23  O   UNL     1       1.647   6.077  20.878  0.00  0.00    +0.000 OA
ATOM     24  H   UNL     1       2.447   8.070  18.529  0.00  0.00    +0.000 HD
BRANCH  22  25
ATOM     25  C   UNL     1       3.223   5.718  19.104  0.00  0.00    +0.000 C 
BRANCH  25  26
ATOM     26  C   UNL     1       2.586   4.640  18.213  0.00  0.00    +0.000 C 
BRANCH  26  27
ATOM     27  C   UNL     1       2.472   3.273  18.894  0.00  0.00    +0.000 C 
BRANCH  27  28
ATOM     28  C   UNL     1       1.036   2.880  19.152  0.00  0.00    +0.000 C 
ATOM     29  O   UNL     1       0.357   2.194  18.404  0.00  0.00    +0.000 OA
BRANCH  28  30
ATOM     30  O   UNL     1       0.553   3.366  20.318  0.00  0.00    +0.000 OA
ATOM     31  H   UNL     1       0.444   2.688  21.013  0.00  0.00    +0.000 HD
ENDBRANCH  28  30
ENDBRANCH  27  28
ENDBRANCH  26  27
ENDBRANCH  25  26
ENDBRANCH  22  25
ENDBRANCH  20  21
ENDBRANCH   1  19
BRANCH   2  32
ATOM     32  O   UNL     1       1.546  10.501  22.048  0.00  0.00    +0.000 OA
ATOM     33  H   UNL     1       2.047  11.265  22.384  0.00  0.00    +0.000 HD
ENDBRANCH   2  32
TORSDOF 9
ENDMDL
MODEL 8
REMARK VINA RESULT:      -6.9      3.702      6.615
REMARK  Name = 
REMARK  10 active torsions:
REMARK  status: ('A' for Active; 'I' for Inactive)
REMARK    1  A    between atoms: C_1  and  C_2
REMARK    2  A    between atoms: C_2  and  C_13
REMARK    3  A    between atoms: N_3  and  N_4
REMARK    4  A    between atoms: C_5  and  C_7
REMARK    5  A    between atoms: C_7  and  C_8
REMARK    6  A    between atoms: C_8  and  C_9
REMARK    7  A    between atoms: C_9  and  C_10
REMARK    8  A    between atoms: C_10  and  O_12
REMARK    9  A    between atoms: C_14  and  O_15
REMARK   10  A    between atoms: C_24  and  C_25
REMARK                            x       y       z     vdW  Elec       q    Type
REMARK                         _______ _______ _______ _____ _____    ______ ____
ROOT
ATOM      1  C   UNL     1       0.258  10.182  20.446  0.00  0.00    +0.000 A 
ATOM      2  C   UNL     1       0.668  10.273  21.774  0.00  0.00    +0.000 A 
ATOM      3  N   UNL     1       0.045  10.987  22.722  0.00  0.00    +0.000 NA
ATOM      4  C   UNL     1      -1.060  11.657  22.394  0.00  0.00    +0.000 A 
ATOM      5  C   UNL     1      -1.640  12.446  23.384  0.00  0.00    +0.000 A 
ATOM      6  C   UNL     1      -2.773  13.214  23.165  0.00  0.00    +0.000 A 
ATOM      7  C   UNL     1      -3.382  13.158  21.929  0.00  0.00    +0.000 A 
ATOM      8 CL   UNL     1      -4.767  14.124  21.603  0.00  0.00    +0.000 Cl
ATOM      9  C   UNL     1      -2.854  12.344  20.931  0.00  0.00    +0.000 A 
ATOM     10  C   UNL     1      -1.631  11.617  21.101  0.00  0.00    +0.000 A 
ATOM     11  C   UNL     1      -0.940  10.858  20.074  0.00  0.00    +0.000 A 
ENDROOT
BRANCH  11  12
ATOM     12  C   UNL     1      -1.501  10.791  18.681  0.00  0.00    +0.000 A 
ATOM     13  C   UNL     1      -1.425  11.885  17.795  0.00  0.00    +0.000 A 
ATOM     14  C   UNL     1      -2.049  11.868  16.542  0.00  0.00    +0.000 A 
ATOM     15  C   UNL     1      -2.656  10.707  16.086  0.00  0.00    +0.000 A 
ATOM     16  C   UNL     1      -2.669   9.577  16.897  0.00  0.00    +0.000 A 
ATOM     17  C   UNL     1      -2.144   9.637  18.194  0.00  0.00    +0.000 A 
ENDBRANCH  11  12
BRANCH   1  19
ATOM     18  C   UNL     1       1.609  10.150  18.218  0.00  0.00    +0.000 C 
ATOM     19  C   UNL     1       1.118   9.429  19.464  0.00  0.00    +0.000 C 
ATOM     20  N   UNL     1       1.352   8.173  19.704  0.00  0.00    +0.000 NA
BRANCH  20  21
ATOM     21  N   UNL     1       2.279   7.503  18.968  0.00  0.00    +0.000 N 
ATOM     22  C   UNL     1       2.712   6.267  19.425  0.00  0.00    +0.000 C 
ATOM     23  O   UNL     1       2.242   5.663  20.381  0.00  0.00    +0.000 OA
ATOM     24  H   UNL     1       2.895   8.035  18.362  0.00  0.00    +0.000 HD
BRANCH  22  25
ATOM     25  C   UNL     1       3.811   5.672  18.565  0.00  0.00    +0.000 C 
BRANCH  25  26
ATOM     26  C   UNL     1       4.420   6.741  17.644  0.00  0.00    +0.000 C 
BRANCH  26  27
ATOM     27  C   UNL     1       5.097   6.162  16.398  0.00  0.00    +0.000 C 
BRANCH  27  28
ATOM     28  C   UNL     1       6.554   5.843  16.633  0.00  0.00    +0.000 C 
ATOM     29  O   UNL     1       7.481   6.595  16.374  0.00  0.00    +0.000 OA
BRANCH  28  30
ATOM     30  O   UNL     1       6.751   4.620  17.174  0.00  0.00    +0.000 OA
ATOM     31  H   UNL     1       7.686   4.336  17.180  0.00  0.00    +0.000 HD
ENDBRANCH  28  30
ENDBRANCH  27  28
ENDBRANCH  26  27
ENDBRANCH  25  26
ENDBRANCH  22  25
ENDBRANCH  20  21
ENDBRANCH   1  19
BRANCH   2  32
ATOM     32  O   UNL     1       1.782   9.652  22.249  0.00  0.00    +0.000 OA
ATOM     33  H   UNL     1       1.464   8.859  22.715  0.00  0.00    +0.000 HD
ENDBRANCH   2  32
TORSDOF 9
ENDMDL
MODEL 9
REMARK VINA RESULT:      -6.7      3.639      6.628
REMARK  Name = 
REMARK  10 active torsions:
REMARK  status: ('A' for Active; 'I' for Inactive)
REMARK    1  A    between atoms: C_1  and  C_2
REMARK    2  A    between atoms: C_2  and  C_13
REMARK    3  A    between atoms: N_3  and  N_4
REMARK    4  A    between atoms: C_5  and  C_7
REMARK    5  A    between atoms: C_7  and  C_8
REMARK    6  A    between atoms: C_8  and  C_9
REMARK    7  A    between atoms: C_9  and  C_10
REMARK    8  A    between atoms: C_10  and  O_12
REMARK    9  A    between atoms: C_14  and  O_15
REMARK   10  A    between atoms: C_24  and  C_25
REMARK                            x       y       z     vdW  Elec       q    Type
REMARK                         _______ _______ _______ _____ _____    ______ ____
ROOT
ATOM      1  C   UNL     1       0.204  10.284  20.436  0.00  0.00    +0.000 A 
ATOM      2  C   UNL     1       0.632  10.394  21.756  0.00  0.00    +0.000 A 
ATOM      3  N   UNL     1       0.009  11.103  22.709  0.00  0.00    +0.000 NA
ATOM      4  C   UNL     1      -1.113  11.749  22.393  0.00  0.00    +0.000 A 
ATOM      5  C   UNL     1      -1.694  12.534  23.386  0.00  0.00    +0.000 A 
ATOM      6  C   UNL     1      -2.846  13.278  23.178  0.00  0.00    +0.000 A 
ATOM      7  C   UNL     1      -3.471  13.199  21.951  0.00  0.00    +0.000 A 
ATOM      8 CL   UNL     1      -4.880  14.135  21.639  0.00  0.00    +0.000 Cl
ATOM      9  C   UNL     1      -2.943  12.388  20.951  0.00  0.00    +0.000 A 
ATOM     10  C   UNL     1      -1.703  11.687  21.109  0.00  0.00    +0.000 A 
ATOM     11  C   UNL     1      -1.013  10.934  20.077  0.00  0.00    +0.000 A 
ENDROOT
BRANCH  11  12
ATOM     12  C   UNL     1      -1.594  10.845  18.693  0.00  0.00    +0.000 A 
ATOM     13  C   UNL     1      -2.216   9.670  18.223  0.00  0.00    +0.000 A 
ATOM     14  C   UNL     1      -2.651   9.543  16.898  0.00  0.00    +0.000 A 
ATOM     15  C   UNL     1      -2.595  10.634  16.043  0.00  0.00    +0.000 A 
ATOM     16  C   UNL     1      -2.073  11.839  16.501  0.00  0.00    +0.000 A 
ATOM     17  C   UNL     1      -1.534  11.924  17.792  0.00  0.00    +0.000 A 
ENDBRANCH  11  12
BRANCH   1  19
ATOM     18  C   UNL     1       1.490  10.249  18.170  0.00  0.00    +0.000 C 
ATOM     19  C   UNL     1       1.063   9.540  19.447  0.00  0.00    +0.000 C 
ATOM     20  N   UNL     1       1.354   8.301  19.710  0.00  0.00    +0.000 NA
BRANCH  20  21
ATOM     21  N   UNL     1       2.284   7.649  18.962  0.00  0.00    +0.000 N 
ATOM     22  C   UNL     1       2.639   6.361  19.332  0.00  0.00    +0.000 C 
ATOM     23  O   UNL     1       2.096   5.704  20.213  0.00  0.00    +0.000 OA
ATOM     24  H   UNL     1       2.953   8.198  18.431  0.00  0.00    +0.000 HD
BRANCH  22  25
ATOM     25  C   UNL     1       3.750   5.784  18.476  0.00  0.00    +0.000 C 
BRANCH  25  26
ATOM     26  C   UNL     1       4.223   6.812  17.435  0.00  0.00    +0.000 C 
BRANCH  26  27
ATOM     27  C   UNL     1       5.747   6.930  17.340  0.00  0.00    +0.000 C 
BRANCH  27  28
ATOM     28  C   UNL     1       6.331   5.994  16.309  0.00  0.00    +0.000 C 
ATOM     29  O   UNL     1       7.343   5.329  16.466  0.00  0.00    +0.000 OA
BRANCH  28  30
ATOM     30  O   UNL     1       5.614   5.953  15.163  0.00  0.00    +0.000 OA
ATOM     31  H   UNL     1       4.753   6.412  15.218  0.00  0.00    +0.000 HD
ENDBRANCH  28  30
ENDBRANCH  27  28
ENDBRANCH  26  27
ENDBRANCH  25  26
ENDBRANCH  22  25
ENDBRANCH  20  21
ENDBRANCH   1  19
BRANCH   2  32
ATOM     32  O   UNL     1       1.765   9.799  22.220  0.00  0.00    +0.000 OA
ATOM     33  H   UNL     1       2.182  10.450  22.811  0.00  0.00    +0.000 HD
ENDBRANCH   2  32
TORSDOF 9
ENDMDL
