MODEL 1
REMARK VINA RESULT:      -8.0      0.000      0.000
REMARK  Name = 
REMARK  8 active torsions:
REMARK  status: ('A' for Active; 'I' for Inactive)
REMARK    1  A    between atoms: C_1  and  C_2
REMARK    2  A    between atoms: C_2  and  C_3
REMARK    3  A    between atoms: C_5  and  N_6
REMARK    4  A    between atoms: N_6  and  C_7
REMARK    5  A    between atoms: C_7  and  C_8
REMARK    6  A    between atoms: C_13  and  O_14
REMARK    7  A    between atoms: C_15  and  O_16
REMARK    8  A    between atoms: C_18  and  C_19
REMARK                            x       y       z     vdW  Elec       q    Type
REMARK                         _______ _______ _______ _____ _____    ______ ____
ROOT
ATOM      1  C   UNL     1       5.906   4.110  13.862  0.00  0.00    +0.000 A 
ATOM      2  C   UNL     1       5.289   3.776  15.079  0.00  0.00    +0.000 A 
ATOM      3  C   UNL     1       5.832   4.134  16.326  0.00  0.00    +0.000 A 
ATOM      4  C   UNL     1       6.998   4.907  16.245  0.00  0.00    +0.000 A 
ATOM      5  N   UNL     1       7.610   5.260  15.094  0.00  0.00    +0.000 NA
ATOM      6  C   UNL     1       7.075   4.864  13.923  0.00  0.00    +0.000 A 
ATOM      7  C   UNL     1       7.819   5.308  12.698  0.00  0.00    +0.000 C 
ENDROOT
BRANCH   1   9
ATOM      8  C   UNL     1       6.002   2.519  11.928  0.00  0.00    +0.000 C 
ATOM      9  C   UNL     1       5.269   3.690  12.564  0.00  0.00    +0.000 C 
ENDBRANCH   1   9
BRANCH   3  10
ATOM     10  N   UNL     1       5.070   3.796  17.450  0.00  0.00    +0.000 N 
ATOM     11  H   UNL     1       4.933   4.596  18.065  0.00  0.00    +0.000 HD
BRANCH  10  12
ATOM     12  C   UNL     1       3.866   2.967  17.433  0.00  0.00    +0.000 C 
BRANCH  12  13
ATOM     13  C   UNL     1       3.069   3.066  18.712  0.00  0.00    +0.000 A 
ATOM     14  C   UNL     1       1.755   3.559  18.721  0.00  0.00    +0.000 A 
ATOM     15  C   UNL     1       1.049   3.688  19.918  0.00  0.00    +0.000 A 
ATOM     16  C   UNL     1       1.640   3.313  21.122  0.00  0.00    +0.000 A 
ATOM     17  C   UNL     1       2.934   2.794  21.131  0.00  0.00    +0.000 A 
ATOM     18  C   UNL     1       3.631   2.667  19.931  0.00  0.00    +0.000 A 
BRANCH  18  19
ATOM     19  O   UNL     1       4.911   2.182  19.933  0.00  0.00    +0.000 OA
ATOM     20  H   UNL     1       5.349   2.453  19.108  0.00  0.00    +0.000 HD
ENDBRANCH  18  19
ENDBRANCH  12  13
ENDBRANCH  10  12
ENDBRANCH   3  10
BRANCH   4  21
ATOM     21  O   UNL     1       7.662   5.419  17.313  0.00  0.00    +0.000 OA
ATOM     22  H   UNL     1       8.285   4.750  17.607  0.00  0.00    +0.000 HD
ENDBRANCH   4  21
TORSDOF 6
ENDMDL
MODEL 2
REMARK VINA RESULT:      -7.8      1.470      1.659
REMARK  Name = 
REMARK  8 active torsions:
REMARK  status: ('A' for Active; 'I' for Inactive)
REMARK    1  A    between atoms: C_1  and  C_2
REMARK    2  A    between atoms: C_2  and  C_3
REMARK    3  A    between atoms: C_5  and  N_6
REMARK    4  A    between atoms: N_6  and  C_7
REMARK    5  A    between atoms: C_7  and  C_8
REMARK    6  A    between atoms: C_13  and  O_14
REMARK    7  A    between atoms: C_15  and  O_16
REMARK    8  A    between atoms: C_18  and  C_19
REMARK                            x       y       z     vdW  Elec       q    Type
REMARK                         _______ _______ _______ _____ _____    ______ ____
ROOT
ATOM      1  C   UNL     1       6.236   4.038  13.747  0.00  0.00    +0.000 A 
ATOM      2  C   UNL     1       5.386   3.826  14.846  0.00  0.00    +0.000 A 
ATOM      3  C   UNL     1       5.568   4.474  16.080  0.00  0.00    +0.000 A 
ATOM      4  C   UNL     1       6.623   5.397  16.094  0.00  0.00    +0.000 A 
ATOM      5  N   UNL     1       7.450   5.640  15.054  0.00  0.00    +0.000 NA
ATOM      6  C   UNL     1       7.261   4.968  13.902  0.00  0.00    +0.000 A 
ATOM      7  C   UNL     1       8.221   5.307  12.800  0.00  0.00    +0.000 C 
ENDROOT
BRANCH   1   9
ATOM      8  C   UNL     1       4.568   3.537  11.945  0.00  0.00    +0.000 C 
ATOM      9  C   UNL     1       5.982   3.306  12.456  0.00  0.00    +0.000 C 
ENDBRANCH   1   9
BRANCH   3  10
ATOM     10  N   UNL     1       4.602   4.219  17.059  0.00  0.00    +0.000 N 
ATOM     11  H   UNL     1       4.989   3.695  17.841  0.00  0.00    +0.000 HD
BRANCH  10  12
ATOM     12  C   UNL     1       3.618   5.185  17.542  0.00  0.00    +0.000 C 
BRANCH  12  13
ATOM     13  C   UNL     1       2.652   4.588  18.540  0.00  0.00    +0.000 A 
ATOM     14  C   UNL     1       2.461   5.159  19.807  0.00  0.00    +0.000 A 
ATOM     15  C   UNL     1       1.600   4.568  20.734  0.00  0.00    +0.000 A 
ATOM     16  C   UNL     1       0.907   3.407  20.402  0.00  0.00    +0.000 A 
ATOM     17  C   UNL     1       1.061   2.841  19.137  0.00  0.00    +0.000 A 
ATOM     18  C   UNL     1       1.921   3.438  18.217  0.00  0.00    +0.000 A 
BRANCH  18  19
ATOM     19  O   UNL     1       2.098   2.876  16.983  0.00  0.00    +0.000 OA
ATOM     20  H   UNL     1       1.514   2.101  16.905  0.00  0.00    +0.000 HD
ENDBRANCH  18  19
ENDBRANCH  12  13
ENDBRANCH  10  12
ENDBRANCH   3  10
BRANCH   4  21
ATOM     21  O   UNL     1       6.947   6.184  17.152  0.00  0.00    +0.000 OA
ATOM     22  H   UNL     1       6.134   6.367  17.629  0.00  0.00    +0.000 HD
ENDBRANCH   4  21
TORSDOF 6
ENDMDL
MODEL 3
REMARK VINA RESULT:      -7.8      1.335      1.435
REMARK  Name = 
REMARK  8 active torsions:
REMARK  status: ('A' for Active; 'I' for Inactive)
REMARK    1  A    between atoms: C_1  and  C_2
REMARK    2  A    between atoms: C_2  and  C_3
REMARK    3  A    between atoms: C_5  and  N_6
REMARK    4  A    between atoms: N_6  and  C_7
REMARK    5  A    between atoms: C_7  and  C_8
REMARK    6  A    between atoms: C_13  and  O_14
REMARK    7  A    between atoms: C_15  and  O_16
REMARK    8  A    between atoms: C_18  and  C_19
REMARK                            x       y       z     vdW  Elec       q    Type
REMARK                         _______ _______ _______ _____ _____    ______ ____
ROOT
ATOM      1  C   UNL     1       6.328   3.954  13.724  0.00  0.00    +0.000 A 
ATOM      2  C   UNL     1       5.562   3.565  14.835  0.00  0.00    +0.000 A 
ATOM      3  C   UNL     1       5.755   4.111  16.116  0.00  0.00    +0.000 A 
ATOM      4  C   UNL     1       6.725   5.122  16.170  0.00  0.00    +0.000 A 
ATOM      5  N   UNL     1       7.469   5.533  15.121  0.00  0.00    +0.000 NA
ATOM      6  C   UNL     1       7.277   4.955  13.919  0.00  0.00    +0.000 A 
ATOM      7  C   UNL     1       8.142   5.480  12.812  0.00  0.00    +0.000 C 
ENDROOT
BRANCH   1   9
ATOM      8  C   UNL     1       4.622   3.500  11.945  0.00  0.00    +0.000 C 
ATOM      9  C   UNL     1       6.069   3.323  12.381  0.00  0.00    +0.000 C 
ENDBRANCH   1   9
BRANCH   3  10
ATOM     10  N   UNL     1       4.870   3.680  17.110  0.00  0.00    +0.000 N 
ATOM     11  H   UNL     1       5.080   4.105  18.010  0.00  0.00    +0.000 HD
BRANCH  10  12
ATOM     12  C   UNL     1       3.424   3.543  16.947  0.00  0.00    +0.000 C 
BRANCH  12  13
ATOM     13  C   UNL     1       2.666   3.758  18.237  0.00  0.00    +0.000 A 
ATOM     14  C   UNL     1       1.730   2.823  18.702  0.00  0.00    +0.000 A 
ATOM     15  C   UNL     1       1.005   3.059  19.871  0.00  0.00    +0.000 A 
ATOM     16  C   UNL     1       1.215   4.228  20.599  0.00  0.00    +0.000 A 
ATOM     17  C   UNL     1       2.161   5.156  20.169  0.00  0.00    +0.000 A 
ATOM     18  C   UNL     1       2.882   4.911  19.002  0.00  0.00    +0.000 A 
BRANCH  18  19
ATOM     19  O   UNL     1       3.795   5.829  18.558  0.00  0.00    +0.000 OA
ATOM     20  H   UNL     1       3.372   6.705  18.535  0.00  0.00    +0.000 HD
ENDBRANCH  18  19
ENDBRANCH  12  13
ENDBRANCH  10  12
ENDBRANCH   3  10
BRANCH   4  21
ATOM     21  O   UNL     1       7.038   5.834  17.283  0.00  0.00    +0.000 OA
ATOM     22  H   UNL     1       6.948   5.242  18.033  0.00  0.00    +0.000 HD
ENDBRANCH   4  21
TORSDOF 6
ENDMDL
MODEL 4
REMARK VINA RESULT:      -7.7      1.286      1.719
REMARK  Name = 
REMARK  8 active torsions:
REMARK  status: ('A' for Active; 'I' for Inactive)
REMARK    1  A    between atoms: C_1  and  C_2
REMARK    2  A    between atoms: C_2  and  C_3
REMARK    3  A    between atoms: C_5  and  N_6
REMARK    4  A    between atoms: N_6  and  C_7
REMARK    5  A    between atoms: C_7  and  C_8
REMARK    6  A    between atoms: C_13  and  O_14
REMARK    7  A    between atoms: C_15  and  O_16
REMARK    8  A    between atoms: C_18  and  C_19
REMARK                            x       y       z     vdW  Elec       q    Type
REMARK                         _______ _______ _______ _____ _____    ______ ____
ROOT
ATOM      1  C   UNL     1       6.449   4.008  13.567  0.00  0.00    +0.000 A 
ATOM      2  C   UNL     1       5.738   3.588  14.704  0.00  0.00    +0.000 A 
ATOM      3  C   UNL     1       5.992   4.103  15.987  0.00  0.00    +0.000 A 
ATOM      4  C   UNL     1       6.962   5.116  16.019  0.00  0.00    +0.000 A 
ATOM      5  N   UNL     1       7.653   5.555  14.945  0.00  0.00    +0.000 NA
ATOM      6  C   UNL     1       7.403   5.007  13.740  0.00  0.00    +0.000 A 
ATOM      7  C   UNL     1       8.212   5.562  12.606  0.00  0.00    +0.000 C 
ENDROOT
BRANCH   1   9
ATOM      8  C   UNL     1       4.629   3.415  11.948  0.00  0.00    +0.000 C 
ATOM      9  C   UNL     1       6.125   3.409  12.223  0.00  0.00    +0.000 C 
ENDBRANCH   1   9
BRANCH   3  10
ATOM     10  N   UNL     1       5.158   3.645  17.012  0.00  0.00    +0.000 N 
ATOM     11  H   UNL     1       5.452   3.995  17.921  0.00  0.00    +0.000 HD
BRANCH  10  12
ATOM     12  C   UNL     1       3.699   3.587  16.946  0.00  0.00    +0.000 C 
BRANCH  12  13
ATOM     13  C   UNL     1       3.059   3.397  18.302  0.00  0.00    +0.000 A 
ATOM     14  C   UNL     1       3.800   2.950  19.406  0.00  0.00    +0.000 A 
ATOM     15  C   UNL     1       3.184   2.734  20.640  0.00  0.00    +0.000 A 
ATOM     16  C   UNL     1       1.821   2.976  20.792  0.00  0.00    +0.000 A 
ATOM     17  C   UNL     1       1.073   3.448  19.715  0.00  0.00    +0.000 A 
ATOM     18  C   UNL     1       1.696   3.662  18.487  0.00  0.00    +0.000 A 
BRANCH  18  19
ATOM     19  O   UNL     1       0.965   4.101  17.417  0.00  0.00    +0.000 OA
ATOM     20  H   UNL     1       0.033   4.177  17.686  0.00  0.00    +0.000 HD
ENDBRANCH  18  19
ENDBRANCH  12  13
ENDBRANCH  10  12
ENDBRANCH   3  10
BRANCH   4  21
ATOM     21  O   UNL     1       7.327   5.801  17.133  0.00  0.00    +0.000 OA
ATOM     22  H   UNL     1       8.109   5.371  17.487  0.00  0.00    +0.000 HD
ENDBRANCH   4  21
TORSDOF 6
ENDMDL
MODEL 5
REMARK VINA RESULT:      -7.7      1.110      1.285
REMARK  Name = 
REMARK  8 active torsions:
REMARK  status: ('A' for Active; 'I' for Inactive)
REMARK    1  A    between atoms: C_1  and  C_2
REMARK    2  A    between atoms: C_2  and  C_3
REMARK    3  A    between atoms: C_5  and  N_6
REMARK    4  A    between atoms: N_6  and  C_7
REMARK    5  A    between atoms: C_7  and  C_8
REMARK    6  A    between atoms: C_13  and  O_14
REMARK    7  A    between atoms: C_15  and  O_16
REMARK    8  A    between atoms: C_18  and  C_19
REMARK                            x       y       z     vdW  Elec       q    Type
REMARK                         _______ _______ _______ _____ _____    ______ ____
ROOT
ATOM      1  C   UNL     1       5.993   4.128  13.777  0.00  0.00    +0.000 A 
ATOM      2  C   UNL     1       5.333   3.745  14.956  0.00  0.00    +0.000 A 
ATOM      3  C   UNL     1       5.829   4.052  16.235  0.00  0.00    +0.000 A 
ATOM      4  C   UNL     1       6.996   4.830  16.227  0.00  0.00    +0.000 A 
ATOM      5  N   UNL     1       7.649   5.230  15.114  0.00  0.00    +0.000 NA
ATOM      6  C   UNL     1       7.157   4.880  13.910  0.00  0.00    +0.000 A 
ATOM      7  C   UNL     1       7.944   5.374  12.732  0.00  0.00    +0.000 C 
ENDROOT
BRANCH   1   9
ATOM      8  C   UNL     1       5.972   2.450  11.915  0.00  0.00    +0.000 C 
ATOM      9  C   UNL     1       5.405   3.760  12.440  0.00  0.00    +0.000 C 
ENDBRANCH   1   9
BRANCH   3  10
ATOM     10  N   UNL     1       5.028   3.670  17.316  0.00  0.00    +0.000 N 
ATOM     11  H   UNL     1       5.154   4.288  18.114  0.00  0.00    +0.000 HD
BRANCH  10  12
ATOM     12  C   UNL     1       3.630   3.253  17.221  0.00  0.00    +0.000 C 
BRANCH  12  13
ATOM     13  C   UNL     1       2.794   3.739  18.382  0.00  0.00    +0.000 A 
ATOM     14  C   UNL     1       2.896   5.055  18.858  0.00  0.00    +0.000 A 
ATOM     15  C   UNL     1       2.151   5.476  19.961  0.00  0.00    +0.000 A 
ATOM     16  C   UNL     1       1.283   4.591  20.596  0.00  0.00    +0.000 A 
ATOM     17  C   UNL     1       1.146   3.288  20.120  0.00  0.00    +0.000 A 
ATOM     18  C   UNL     1       1.892   2.877  19.017  0.00  0.00    +0.000 A 
BRANCH  18  19
ATOM     19  O   UNL     1       1.783   1.592  18.559  0.00  0.00    +0.000 OA
ATOM     20  H   UNL     1       2.659   1.291  18.261  0.00  0.00    +0.000 HD
ENDBRANCH  18  19
ENDBRANCH  12  13
ENDBRANCH  10  12
ENDBRANCH   3  10
BRANCH   4  21
ATOM     21  O   UNL     1       7.619   5.299  17.339  0.00  0.00    +0.000 OA
ATOM     22  H   UNL     1       8.549   5.399  17.121  0.00  0.00    +0.000 HD
ENDBRANCH   4  21
TORSDOF 6
ENDMDL
MODEL 6
REMARK VINA RESULT:      -7.5      2.279      6.388
REMARK  Name = 
REMARK  8 active torsions:
REMARK  status: ('A' for Active; 'I' for Inactive)
REMARK    1  A    between atoms: C_1  and  C_2
REMARK    2  A    between atoms: C_2  and  C_3
REMARK    3  A    between atoms: C_5  and  N_6
REMARK    4  A    between atoms: N_6  and  C_7
REMARK    5  A    between atoms: C_7  and  C_8
REMARK    6  A    between atoms: C_13  and  O_14
REMARK    7  A    between atoms: C_15  and  O_16
REMARK    8  A    between atoms: C_18  and  C_19
REMARK                            x       y       z     vdW  Elec       q    Type
REMARK                         _______ _______ _______ _____ _____    ______ ____
ROOT
ATOM      1  C   UNL     1       2.791   5.091  19.199  0.00  0.00    +0.000 A 
ATOM      2  C   UNL     1       3.491   5.010  17.983  0.00  0.00    +0.000 A 
ATOM      3  C   UNL     1       3.996   3.799  17.480  0.00  0.00    +0.000 A 
ATOM      4  C   UNL     1       3.681   2.676  18.259  0.00  0.00    +0.000 A 
ATOM      5  N   UNL     1       2.997   2.714  19.423  0.00  0.00    +0.000 NA
ATOM      6  C   UNL     1       2.564   3.902  19.887  0.00  0.00    +0.000 A 
ATOM      7  C   UNL     1       1.808   3.845  21.182  0.00  0.00    +0.000 C 
ENDROOT
BRANCH   1   9
ATOM      8  C   UNL     1       2.431   7.501  18.614  0.00  0.00    +0.000 C 
ATOM      9  C   UNL     1       2.281   6.425  19.678  0.00  0.00    +0.000 C 
ENDBRANCH   1   9
BRANCH   3  10
ATOM     10  N   UNL     1       4.608   3.860  16.224  0.00  0.00    +0.000 N 
ATOM     11  H   UNL     1       4.120   4.498  15.599  0.00  0.00    +0.000 HD
BRANCH  10  12
ATOM     12  C   UNL     1       6.049   3.939  15.993  0.00  0.00    +0.000 C 
BRANCH  12  13
ATOM     13  C   UNL     1       6.724   4.981  16.855  0.00  0.00    +0.000 A 
ATOM     14  C   UNL     1       7.537   4.621  17.940  0.00  0.00    +0.000 A 
ATOM     15  C   UNL     1       8.115   5.596  18.754  0.00  0.00    +0.000 A 
ATOM     16  C   UNL     1       7.900   6.946  18.487  0.00  0.00    +0.000 A 
ATOM     17  C   UNL     1       7.120   7.325  17.396  0.00  0.00    +0.000 A 
ATOM     18  C   UNL     1       6.548   6.345  16.587  0.00  0.00    +0.000 A 
BRANCH  18  19
ATOM     19  O   UNL     1       5.760   6.707  15.530  0.00  0.00    +0.000 OA
ATOM     20  H   UNL     1       5.886   6.064  14.810  0.00  0.00    +0.000 HD
ENDBRANCH  18  19
ENDBRANCH  12  13
ENDBRANCH  10  12
ENDBRANCH   3  10
BRANCH   4  21
ATOM     21  O   UNL     1       4.008   1.398  17.940  0.00  0.00    +0.000 OA
ATOM     22  H   UNL     1       4.310   0.973  18.747  0.00  0.00    +0.000 HD
ENDBRANCH   4  21
TORSDOF 6
ENDMDL
MODEL 7
REMARK VINA RESULT:      -7.3      1.725      7.062
REMARK  Name = 
REMARK  8 active torsions:
REMARK  status: ('A' for Active; 'I' for Inactive)
REMARK    1  A    between atoms: C_1  and  C_2
REMARK    2  A    between atoms: C_2  and  C_3
REMARK    3  A    between atoms: C_5  and  N_6
REMARK    4  A    between atoms: N_6  and  C_7
REMARK    5  A    between atoms: C_7  and  C_8
REMARK    6  A    between atoms: C_13  and  O_14
REMARK    7  A    between atoms: C_15  and  O_16
REMARK    8  A    between atoms: C_18  and  C_19
REMARK                            x       y       z     vdW  Elec       q    Type
REMARK                         _______ _______ _______ _____ _____    ______ ____
ROOT
ATOM      1  C   UNL     1       2.737   4.479  19.549  0.00  0.00    +0.000 A 
ATOM      2  C   UNL     1       3.647   4.501  18.479  0.00  0.00    +0.000 A 
ATOM      3  C   UNL     1       4.147   3.327  17.887  0.00  0.00    +0.000 A 
ATOM      4  C   UNL     1       3.605   2.144  18.410  0.00  0.00    +0.000 A 
ATOM      5  N   UNL     1       2.717   2.086  19.425  0.00  0.00    +0.000 NA
ATOM      6  C   UNL     1       2.294   3.234  19.988  0.00  0.00    +0.000 A 
ATOM      7  C   UNL     1       1.304   3.072  21.103  0.00  0.00    +0.000 C 
ENDROOT
BRANCH   1   9
ATOM      8  C   UNL     1       2.502   6.951  19.203  0.00  0.00    +0.000 C 
ATOM      9  C   UNL     1       2.246   5.777  20.136  0.00  0.00    +0.000 C 
ENDBRANCH   1   9
BRANCH   3  10
ATOM     10  N   UNL     1       4.990   3.503  16.785  0.00  0.00    +0.000 N 
ATOM     11  H   UNL     1       5.005   2.679  16.188  0.00  0.00    +0.000 HD
BRANCH  10  12
ATOM     12  C   UNL     1       5.066   4.714  15.969  0.00  0.00    +0.000 C 
BRANCH  12  13
ATOM     13  C   UNL     1       5.730   4.477  14.632  0.00  0.00    +0.000 A 
ATOM     14  C   UNL     1       5.110   3.715  13.630  0.00  0.00    +0.000 A 
ATOM     15  C   UNL     1       5.756   3.467  12.418  0.00  0.00    +0.000 A 
ATOM     16  C   UNL     1       7.026   3.989  12.184  0.00  0.00    +0.000 A 
ATOM     17  C   UNL     1       7.647   4.772  13.156  0.00  0.00    +0.000 A 
ATOM     18  C   UNL     1       6.993   5.017  14.362  0.00  0.00    +0.000 A 
BRANCH  18  19
ATOM     19  O   UNL     1       7.605   5.764  15.331  0.00  0.00    +0.000 OA
ATOM     20  H   UNL     1       7.557   5.282  16.175  0.00  0.00    +0.000 HD
ENDBRANCH  18  19
ENDBRANCH  12  13
ENDBRANCH  10  12
ENDBRANCH   3  10
BRANCH   4  21
ATOM     21  O   UNL     1       3.890   0.897  17.954  0.00  0.00    +0.000 OA
ATOM     22  H   UNL     1       4.691   0.610  18.398  0.00  0.00    +0.000 HD
ENDBRANCH   4  21
TORSDOF 6
ENDMDL
MODEL 8
REMARK VINA RESULT:      -7.2      1.877      2.578
REMARK  Name = 
REMARK  8 active torsions:
REMARK  status: ('A' for Active; 'I' for Inactive)
REMARK    1  A    between atoms: C_1  and  C_2
REMARK    2  A    between atoms: C_2  and  C_3
REMARK    3  A    between atoms: C_5  and  N_6
REMARK    4  A    between atoms: N_6  and  C_7
REMARK    5  A    between atoms: C_7  and  C_8
REMARK    6  A    between atoms: C_13  and  O_14
REMARK    7  A    between atoms: C_15  and  O_16
REMARK    8  A    between atoms: C_18  and  C_19
REMARK                            x       y       z     vdW  Elec       q    Type
REMARK                         _______ _______ _______ _____ _____    ______ ____
ROOT
ATOM      1  C   UNL     1       6.172   5.130  16.115  0.00  0.00    +0.000 A 
ATOM      2  C   UNL     1       5.041   4.297  16.107  0.00  0.00    +0.000 A 
ATOM      3  C   UNL     1       4.019   4.400  17.066  0.00  0.00    +0.000 A 
ATOM      4  C   UNL     1       4.194   5.447  17.983  0.00  0.00    +0.000 A 
ATOM      5  N   UNL     1       5.259   6.277  18.010  0.00  0.00    +0.000 NA
ATOM      6  C   UNL     1       6.234   6.117  17.094  0.00  0.00    +0.000 A 
ATOM      7  C   UNL     1       7.373   7.088  17.198  0.00  0.00    +0.000 C 
ENDROOT
BRANCH   1   9
ATOM      8  C   UNL     1       6.673   4.305  13.801  0.00  0.00    +0.000 C 
ATOM      9  C   UNL     1       7.231   4.959  15.056  0.00  0.00    +0.000 C 
ENDBRANCH   1   9
BRANCH   3  10
ATOM     10  N   UNL     1       2.920   3.553  16.890  0.00  0.00    +0.000 N 
ATOM     11  H   UNL     1       2.680   3.448  15.907  0.00  0.00    +0.000 HD
BRANCH  10  12
ATOM     12  C   UNL     1       2.711   2.288  17.593  0.00  0.00    +0.000 C 
BRANCH  12  13
ATOM     13  C   UNL     1       2.418   2.477  19.064  0.00  0.00    +0.000 A 
ATOM     14  C   UNL     1       1.126   2.779  19.520  0.00  0.00    +0.000 A 
ATOM     15  C   UNL     1       0.880   2.997  20.877  0.00  0.00    +0.000 A 
ATOM     16  C   UNL     1       1.920   2.903  21.799  0.00  0.00    +0.000 A 
ATOM     17  C   UNL     1       3.205   2.575  21.368  0.00  0.00    +0.000 A 
ATOM     18  C   UNL     1       3.441   2.357  20.012  0.00  0.00    +0.000 A 
BRANCH  18  19
ATOM     19  O   UNL     1       4.703   2.060  19.578  0.00  0.00    +0.000 OA
ATOM     20  H   UNL     1       4.722   2.119  18.607  0.00  0.00    +0.000 HD
ENDBRANCH  18  19
ENDBRANCH  12  13
ENDBRANCH  10  12
ENDBRANCH   3  10
BRANCH   4  21
ATOM     21  O   UNL     1       3.308   5.778  18.957  0.00  0.00    +0.000 OA
ATOM     22  H   UNL     1       3.487   6.687  19.207  0.00  0.00    +0.000 HD
ENDBRANCH   4  21
TORSDOF 6
ENDMDL
MODEL 9
REMARK VINA RESULT:      -7.2      2.169      6.478
REMARK  Name = 
REMARK  8 active torsions:
REMARK  status: ('A' for Active; 'I' for Inactive)
REMARK    1  A    between atoms: C_1  and  C_2
REMARK    2  A    between atoms: C_2  and  C_3
REMARK    3  A    between atoms: C_5  and  N_6
REMARK    4  A    between atoms: N_6  and  C_7
REMARK    5  A    between atoms: C_7  and  C_8
REMARK    6  A    between atoms: C_13  and  O_14
REMARK    7  A    between atoms: C_15  and  O_16
REMARK    8  A    between atoms: C_18  and  C_19
REMARK                            x       y       z     vdW  Elec       q    Type
REMARK                         _______ _______ _______ _____ _____    ______ ____
ROOT
ATOM      1  C   UNL     1       2.820   5.352  19.881  0.00  0.00    +0.000 A 
ATOM      2  C   UNL     1       4.205   5.520  19.723  0.00  0.00    +0.000 A 
ATOM      3  C   UNL     1       5.099   4.435  19.686  0.00  0.00    +0.000 A 
ATOM      4  C   UNL     1       4.482   3.178  19.751  0.00  0.00    +0.000 A 
ATOM      5  N   UNL     1       3.153   2.978  19.887  0.00  0.00    +0.000 NA
ATOM      6  C   UNL     1       2.337   4.048  19.955  0.00  0.00    +0.000 A 
ATOM      7  C   UNL     1       0.878   3.729  20.099  0.00  0.00    +0.000 C 
ENDROOT
BRANCH   1   9
ATOM      8  C   UNL     1       2.293   7.569  18.839  0.00  0.00    +0.000 C 
ATOM      9  C   UNL     1       1.922   6.561  19.915  0.00  0.00    +0.000 C 
ENDBRANCH   1   9
BRANCH   3  10
ATOM     10  N   UNL     1       6.442   4.750  19.451  0.00  0.00    +0.000 N 
ATOM     11  H   UNL     1       6.999   3.916  19.280  0.00  0.00    +0.000 HD
BRANCH  10  12
ATOM     12  C   UNL     1       6.913   5.848  18.609  0.00  0.00    +0.000 C 
BRANCH  12  13
ATOM     13  C   UNL     1       6.549   5.668  17.153  0.00  0.00    +0.000 A 
ATOM     14  C   UNL     1       5.552   6.447  16.545  0.00  0.00    +0.000 A 
ATOM     15  C   UNL     1       5.195   6.236  15.213  0.00  0.00    +0.000 A 
ATOM     16  C   UNL     1       5.838   5.253  14.464  0.00  0.00    +0.000 A 
ATOM     17  C   UNL     1       6.851   4.489  15.042  0.00  0.00    +0.000 A 
ATOM     18  C   UNL     1       7.203   4.708  16.372  0.00  0.00    +0.000 A 
BRANCH  18  19
ATOM     19  O   UNL     1       8.178   3.945  16.955  0.00  0.00    +0.000 OA
ATOM     20  H   UNL     1       9.009   4.453  16.964  0.00  0.00    +0.000 HD
ENDBRANCH  18  19
ENDBRANCH  12  13
ENDBRANCH  10  12
ENDBRANCH   3  10
BRANCH   4  21
ATOM     21  O   UNL     1       5.136   1.991  19.670  0.00  0.00    +0.000 OA
ATOM     22  H   UNL     1       5.357   1.727  20.567  0.00  0.00    +0.000 HD
ENDBRANCH   4  21
TORSDOF 6
ENDMDL
