MODEL 1
REMARK VINA RESULT:      -8.0      0.000      0.000
REMARK  Name = 
REMARK  8 active torsions:
REMARK  status: ('A' for Active; 'I' for Inactive)
REMARK    1  A    between atoms: C_1  and  O_2
REMARK    2  A    between atoms: O_2  and  C_3
REMARK    3  A    between atoms: C_8  and  N_9
REMARK    4  A    between atoms: C_10  and  C_12
REMARK    5  A    between atoms: C_15  and  S_16
REMARK    6  A    between atoms: S_16  and  C_17
REMARK    7  A    between atoms: C_17  and  C_18
REMARK    8  A    between atoms: N_26  and  C_27
REMARK                            x       y       z     vdW  Elec       q    Type
REMARK                         _______ _______ _______ _____ _____    ______ ____
ROOT
ATOM      1  C   UNL     1       2.364   7.606  18.393  0.00  0.00    +0.000 A 
ATOM      2  C   UNL     1       2.124   8.728  17.703  0.00  0.00    +0.000 A 
ATOM      3  N   UNL     1       1.552   9.870  18.213  0.00  0.00    +0.000 NA
ATOM      4  C   UNL     1       1.166   9.847  19.445  0.00  0.00    +0.000 A 
ATOM      5  N   UNL     1       1.272   8.730  20.263  0.00  0.00    +0.000 N 
ATOM      6  C   UNL     1       0.819   8.645  21.645  0.00  0.00    +0.000 C 
ATOM      7  C   UNL     1       1.855   7.572  19.778  0.00  0.00    +0.000 A 
ATOM      8  O   UNL     1       1.958   6.540  20.446  0.00  0.00    +0.000 OA
ENDROOT
BRANCH   1  10
ATOM      9  N   UNL     1       4.367   6.850  17.266  0.00  0.00    +0.000 N 
ATOM     10  C   UNL     1       3.127   6.491  17.752  0.00  0.00    +0.000 C 
ATOM     11  O   UNL     1       2.665   5.352  17.719  0.00  0.00    +0.000 OA
ATOM     12  H   UNL     1       4.734   7.770  17.509  0.00  0.00    +0.000 HD
BRANCH   9  18
ATOM     13  C   UNL     1       6.337   5.406  17.414  0.00  0.00    +0.000 A 
ATOM     14  C   UNL     1       7.269   4.588  16.761  0.00  0.00    +0.000 A 
ATOM     15  C   UNL     1       7.181   4.355  15.388  0.00  0.00    +0.000 A 
ATOM     16  C   UNL     1       6.157   4.941  14.650  0.00  0.00    +0.000 A 
ATOM     17  C   UNL     1       5.196   5.720  15.296  0.00  0.00    +0.000 A 
ATOM     18  C   UNL     1       5.277   5.958  16.676  0.00  0.00    +0.000 A 
BRANCH  13  20
ATOM     19  C   UNL     1       7.848   6.279  19.035  0.00  0.00    +0.000 C 
ATOM     20  O   UNL     1       6.610   5.641  18.736  0.00  0.00    +0.000 OA
ENDBRANCH  13  20
ENDBRANCH   9  18
ENDBRANCH   1  10
BRANCH   4  21
ATOM     21  S   UNL     1       0.588  11.325  20.185  0.00  0.00    +0.000 S 
BRANCH  21  22
ATOM     22  C   UNL     1      -0.351  12.092  18.845  0.00  0.00    +0.000 C 
BRANCH  22  23
ATOM     23  C   UNL     1      -1.857  12.106  19.084  0.00  0.00    +0.000 C 
ATOM     24  O   UNL     1      -2.372  12.704  20.030  0.00  0.00    +0.000 OA
ATOM     25  N   UNL     1      -2.635  11.432  18.144  0.00  0.00    +0.000 N 
ATOM     26  C   UNL     1      -2.143  10.581  17.051  0.00  0.00    +0.000 C 
ATOM     27  C   UNL     1      -2.881  10.901  15.745  0.00  0.00    +0.000 C 
ATOM     28  O   UNL     1      -4.305  10.818  15.915  0.00  0.00    +0.000 OA
ATOM     29  C   UNL     1      -4.752  11.734  16.930  0.00  0.00    +0.000 C 
ATOM     30  C   UNL     1      -4.095  11.422  18.278  0.00  0.00    +0.000 C 
ENDBRANCH  22  23
ENDBRANCH  21  22
ENDBRANCH   4  21
TORSDOF 6
ENDMDL
MODEL 2
REMARK VINA RESULT:      -7.8      1.947      2.238
REMARK  Name = 
REMARK  8 active torsions:
REMARK  status: ('A' for Active; 'I' for Inactive)
REMARK    1  A    between atoms: C_1  and  O_2
REMARK    2  A    between atoms: O_2  and  C_3
REMARK    3  A    between atoms: C_8  and  N_9
REMARK    4  A    between atoms: C_10  and  C_12
REMARK    5  A    between atoms: C_15  and  S_16
REMARK    6  A    between atoms: S_16  and  C_17
REMARK    7  A    between atoms: C_17  and  C_18
REMARK    8  A    between atoms: N_26  and  C_27
REMARK                            x       y       z     vdW  Elec       q    Type
REMARK                         _______ _______ _______ _____ _____    ______ ____
ROOT
ATOM      1  C   UNL     1       1.887   8.489  18.979  0.00  0.00    +0.000 A 
ATOM      2  C   UNL     1       1.743   9.540  18.163  0.00  0.00    +0.000 A 
ATOM      3  N   UNL     1       1.234  10.765  18.524  0.00  0.00    +0.000 NA
ATOM      4  C   UNL     1       0.813  10.904  19.737  0.00  0.00    +0.000 A 
ATOM      5  N   UNL     1       0.820   9.880  20.675  0.00  0.00    +0.000 N 
ATOM      6  C   UNL     1       0.323   9.978  22.041  0.00  0.00    +0.000 C 
ATOM      7  C   UNL     1       1.337   8.641  20.340  0.00  0.00    +0.000 A 
ATOM      8  O   UNL     1       1.352   7.684  21.119  0.00  0.00    +0.000 OA
ENDROOT
BRANCH   1  10
ATOM      9  N   UNL     1       2.197   6.092  19.104  0.00  0.00    +0.000 N 
ATOM     10  C   UNL     1       2.591   7.263  18.490  0.00  0.00    +0.000 C 
ATOM     11  O   UNL     1       3.418   7.334  17.584  0.00  0.00    +0.000 OA
ATOM     12  H   UNL     1       1.375   6.115  19.707  0.00  0.00    +0.000 HD
BRANCH   9  18
ATOM     13  C   UNL     1       3.979   4.416  19.122  0.00  0.00    +0.000 A 
ATOM     14  C   UNL     1       4.448   3.168  18.692  0.00  0.00    +0.000 A 
ATOM     15  C   UNL     1       3.661   2.346  17.883  0.00  0.00    +0.000 A 
ATOM     16  C   UNL     1       2.393   2.766  17.495  0.00  0.00    +0.000 A 
ATOM     17  C   UNL     1       1.897   3.987  17.955  0.00  0.00    +0.000 A 
ATOM     18  C   UNL     1       2.681   4.817  18.768  0.00  0.00    +0.000 A 
BRANCH  13  20
ATOM     19  C   UNL     1       6.177   5.331  19.206  0.00  0.00    +0.000 C 
ATOM     20  O   UNL     1       4.898   5.165  19.811  0.00  0.00    +0.000 OA
ENDBRANCH  13  20
ENDBRANCH   9  18
ENDBRANCH   1  10
BRANCH   4  21
ATOM     21  S   UNL     1       0.314  12.489  20.290  0.00  0.00    +0.000 S 
BRANCH  21  22
ATOM     22  C   UNL     1      -0.820  13.020  18.987  0.00  0.00    +0.000 C 
BRANCH  22  23
ATOM     23  C   UNL     1      -2.260  12.568  19.209  0.00  0.00    +0.000 C 
ATOM     24  O   UNL     1      -2.939  12.964  20.157  0.00  0.00    +0.000 OA
ATOM     25  N   UNL     1      -2.787  11.703  18.251  0.00  0.00    +0.000 N 
ATOM     26  C   UNL     1      -2.051  11.062  17.153  0.00  0.00    +0.000 C 
ATOM     27  C   UNL     1      -2.842  11.162  15.842  0.00  0.00    +0.000 C 
ATOM     28  O   UNL     1      -4.173  10.645  15.994  0.00  0.00    +0.000 OA
ATOM     29  C   UNL     1      -4.886  11.363  17.016  0.00  0.00    +0.000 C 
ATOM     30  C   UNL     1      -4.174  11.245  18.367  0.00  0.00    +0.000 C 
ENDBRANCH  22  23
ENDBRANCH  21  22
ENDBRANCH   4  21
TORSDOF 6
ENDMDL
MODEL 3
REMARK VINA RESULT:      -7.5      3.872      9.757
REMARK  Name = 
REMARK  8 active torsions:
REMARK  status: ('A' for Active; 'I' for Inactive)
REMARK    1  A    between atoms: C_1  and  O_2
REMARK    2  A    between atoms: O_2  and  C_3
REMARK    3  A    between atoms: C_8  and  N_9
REMARK    4  A    between atoms: C_10  and  C_12
REMARK    5  A    between atoms: C_15  and  S_16
REMARK    6  A    between atoms: S_16  and  C_17
REMARK    7  A    between atoms: C_17  and  C_18
REMARK    8  A    between atoms: N_26  and  C_27
REMARK                            x       y       z     vdW  Elec       q    Type
REMARK                         _______ _______ _______ _____ _____    ______ ____
ROOT
ATOM      1  C   UNL     1       0.524   9.560  21.285  0.00  0.00    +0.000 A 
ATOM      2  C   UNL     1       0.977   8.343  21.607  0.00  0.00    +0.000 A 
ATOM      3  N   UNL     1       1.697   7.515  20.778  0.00  0.00    +0.000 NA
ATOM      4  C   UNL     1       1.913   7.919  19.571  0.00  0.00    +0.000 A 
ATOM      5  N   UNL     1       1.436   9.122  19.065  0.00  0.00    +0.000 N 
ATOM      6  C   UNL     1       1.624   9.602  17.704  0.00  0.00    +0.000 C 
ATOM      7  C   UNL     1       0.720   9.977  19.883  0.00  0.00    +0.000 A 
ATOM      8  O   UNL     1       0.249  11.048  19.489  0.00  0.00    +0.000 OA
ENDROOT
BRANCH   1  10
ATOM      9  N   UNL     1      -0.835  11.484  21.841  0.00  0.00    +0.000 N 
ATOM     10  C   UNL     1      -0.117  10.413  22.333  0.00  0.00    +0.000 C 
ATOM     11  O   UNL     1      -0.022  10.122  23.524  0.00  0.00    +0.000 OA
ATOM     12  H   UNL     1      -1.009  11.529  20.837  0.00  0.00    +0.000 HD
BRANCH   9  18
ATOM     13  C   UNL     1      -1.002  13.597  23.062  0.00  0.00    +0.000 A 
ATOM     14  C   UNL     1      -1.736  14.424  23.923  0.00  0.00    +0.000 A 
ATOM     15  C   UNL     1      -2.992  14.034  24.393  0.00  0.00    +0.000 A 
ATOM     16  C   UNL     1      -3.526  12.809  24.006  0.00  0.00    +0.000 A 
ATOM     17  C   UNL     1      -2.825  11.998  23.113  0.00  0.00    +0.000 A 
ATOM     18  C   UNL     1      -1.564  12.383  22.636  0.00  0.00    +0.000 A 
BRANCH  13  20
ATOM     19  C   UNL     1       0.398  14.886  21.629  0.00  0.00    +0.000 C 
ATOM     20  O   UNL     1       0.259  14.051  22.774  0.00  0.00    +0.000 OA
ENDBRANCH  13  20
ENDBRANCH   9  18
ENDBRANCH   1  10
BRANCH   4  21
ATOM     21  S   UNL     1       2.965   6.979  18.532  0.00  0.00    +0.000 S 
BRANCH  21  22
ATOM     22  C   UNL     1       1.900   5.607  18.036  0.00  0.00    +0.000 C 
BRANCH  22  23
ATOM     23  C   UNL     1       2.591   4.248  18.087  0.00  0.00    +0.000 C 
ATOM     24  O   UNL     1       3.270   3.815  17.155  0.00  0.00    +0.000 OA
ATOM     25  N   UNL     1       2.444   3.528  19.272  0.00  0.00    +0.000 N 
ATOM     26  C   UNL     1       1.566   3.870  20.399  0.00  0.00    +0.000 C 
ATOM     27  C   UNL     1       2.310   3.707  21.732  0.00  0.00    +0.000 C 
ATOM     28  O   UNL     1       2.884   2.396  21.853  0.00  0.00    +0.000 OA
ATOM     29  C   UNL     1       3.805   2.141  20.778  0.00  0.00    +0.000 C 
ATOM     30  C   UNL     1       3.102   2.227  19.420  0.00  0.00    +0.000 C 
ENDBRANCH  22  23
ENDBRANCH  21  22
ENDBRANCH   4  21
TORSDOF 6
ENDMDL
MODEL 4
REMARK VINA RESULT:      -7.5      2.699      3.562
REMARK  Name = 
REMARK  8 active torsions:
REMARK  status: ('A' for Active; 'I' for Inactive)
REMARK    1  A    between atoms: C_1  and  O_2
REMARK    2  A    between atoms: O_2  and  C_3
REMARK    3  A    between atoms: C_8  and  N_9
REMARK    4  A    between atoms: C_10  and  C_12
REMARK    5  A    between atoms: C_15  and  S_16
REMARK    6  A    between atoms: S_16  and  C_17
REMARK    7  A    between atoms: C_17  and  C_18
REMARK    8  A    between atoms: N_26  and  C_27
REMARK                            x       y       z     vdW  Elec       q    Type
REMARK                         _______ _______ _______ _____ _____    ______ ____
ROOT
ATOM      1  C   UNL     1       2.309   7.725  18.495  0.00  0.00    +0.000 A 
ATOM      2  C   UNL     1       2.040   8.811  17.760  0.00  0.00    +0.000 A 
ATOM      3  N   UNL     1       1.460   9.967  18.229  0.00  0.00    +0.000 NA
ATOM      4  C   UNL     1       1.096   9.994  19.467  0.00  0.00    +0.000 A 
ATOM      5  N   UNL     1       1.233   8.917  20.333  0.00  0.00    +0.000 N 
ATOM      6  C   UNL     1       0.805   8.887  21.724  0.00  0.00    +0.000 C 
ATOM      7  C   UNL     1       1.824   7.747  19.889  0.00  0.00    +0.000 A 
ATOM      8  O   UNL     1       1.954   6.746  20.600  0.00  0.00    +0.000 OA
ENDROOT
BRANCH   1  10
ATOM      9  N   UNL     1       4.318   6.942  17.397  0.00  0.00    +0.000 N 
ATOM     10  C   UNL     1       3.077   6.594  17.890  0.00  0.00    +0.000 C 
ATOM     11  O   UNL     1       2.619   5.453  17.891  0.00  0.00    +0.000 OA
ATOM     12  H   UNL     1       4.681   7.870  17.613  0.00  0.00    +0.000 HD
BRANCH   9  18
ATOM     13  C   UNL     1       6.211   5.410  17.625  0.00  0.00    +0.000 A 
ATOM     14  C   UNL     1       7.155   4.578  17.008  0.00  0.00    +0.000 A 
ATOM     15  C   UNL     1       7.160   4.402  15.623  0.00  0.00    +0.000 A 
ATOM     16  C   UNL     1       6.217   5.060  14.839  0.00  0.00    +0.000 A 
ATOM     17  C   UNL     1       5.244   5.855  15.446  0.00  0.00    +0.000 A 
ATOM     18  C   UNL     1       5.232   6.035  16.837  0.00  0.00    +0.000 A 
BRANCH  13  20
ATOM     19  C   UNL     1       7.736   5.761  19.423  0.00  0.00    +0.000 C 
ATOM     20  O   UNL     1       6.396   5.581  18.973  0.00  0.00    +0.000 OA
ENDBRANCH  13  20
ENDBRANCH   9  18
ENDBRANCH   1  10
BRANCH   4  21
ATOM     21  S   UNL     1       0.508  11.496  20.151  0.00  0.00    +0.000 S 
BRANCH  21  22
ATOM     22  C   UNL     1       0.497  12.599  18.720  0.00  0.00    +0.000 C 
BRANCH  22  23
ATOM     23  C   UNL     1       1.643  13.605  18.715  0.00  0.00    +0.000 C 
ATOM     24  O   UNL     1       2.815  13.272  18.532  0.00  0.00    +0.000 OA
ATOM     25  N   UNL     1       1.289  14.941  18.891  0.00  0.00    +0.000 N 
ATOM     26  C   UNL     1      -0.043  15.454  19.241  0.00  0.00    +0.000 C 
ATOM     27  C   UNL     1      -0.405  16.661  18.365  0.00  0.00    +0.000 C 
ATOM     28  O   UNL     1       0.613  17.673  18.424  0.00  0.00    +0.000 OA
ATOM     29  C   UNL     1       1.879  17.150  17.985  0.00  0.00    +0.000 C 
ATOM     30  C   UNL     1       2.324  15.979  18.867  0.00  0.00    +0.000 C 
ENDBRANCH  22  23
ENDBRANCH  21  22
ENDBRANCH   4  21
TORSDOF 6
ENDMDL
MODEL 5
REMARK VINA RESULT:      -7.4      3.027      4.261
REMARK  Name = 
REMARK  8 active torsions:
REMARK  status: ('A' for Active; 'I' for Inactive)
REMARK    1  A    between atoms: C_1  and  O_2
REMARK    2  A    between atoms: O_2  and  C_3
REMARK    3  A    between atoms: C_8  and  N_9
REMARK    4  A    between atoms: C_10  and  C_12
REMARK    5  A    between atoms: C_15  and  S_16
REMARK    6  A    between atoms: S_16  and  C_17
REMARK    7  A    between atoms: C_17  and  C_18
REMARK    8  A    between atoms: N_26  and  C_27
REMARK                            x       y       z     vdW  Elec       q    Type
REMARK                         _______ _______ _______ _____ _____    ______ ____
ROOT
ATOM      1  C   UNL     1       2.352   7.750  18.528  0.00  0.00    +0.000 A 
ATOM      2  C   UNL     1       2.122   8.858  17.813  0.00  0.00    +0.000 A 
ATOM      3  N   UNL     1       1.565  10.018  18.298  0.00  0.00    +0.000 NA
ATOM      4  C   UNL     1       1.184  10.029  19.531  0.00  0.00    +0.000 A 
ATOM      5  N   UNL     1       1.281   8.930  20.375  0.00  0.00    +0.000 N 
ATOM      6  C   UNL     1       0.832   8.883  21.760  0.00  0.00    +0.000 C 
ATOM      7  C   UNL     1       1.848   7.755  19.915  0.00  0.00    +0.000 A 
ATOM      8  O   UNL     1       1.942   6.737  20.606  0.00  0.00    +0.000 OA
ENDROOT
BRANCH   1  10
ATOM      9  N   UNL     1       4.326   6.953  17.377  0.00  0.00    +0.000 N 
ATOM     10  C   UNL     1       3.100   6.612  17.910  0.00  0.00    +0.000 C 
ATOM     11  O   UNL     1       2.639   5.473  17.933  0.00  0.00    +0.000 OA
ATOM     12  H   UNL     1       4.698   7.882  17.576  0.00  0.00    +0.000 HD
BRANCH   9  18
ATOM     13  C   UNL     1       6.195   5.386  17.571  0.00  0.00    +0.000 A 
ATOM     14  C   UNL     1       7.121   4.548  16.936  0.00  0.00    +0.000 A 
ATOM     15  C   UNL     1       7.115   4.394  15.548  0.00  0.00    +0.000 A 
ATOM     16  C   UNL     1       6.179   5.080  14.780  0.00  0.00    +0.000 A 
ATOM     17  C   UNL     1       5.223   5.881  15.405  0.00  0.00    +0.000 A 
ATOM     18  C   UNL     1       5.222   6.040  16.798  0.00  0.00    +0.000 A 
BRANCH  13  20
ATOM     19  C   UNL     1       7.718   5.809  19.353  0.00  0.00    +0.000 C 
ATOM     20  O   UNL     1       6.390   5.533  18.920  0.00  0.00    +0.000 OA
ENDBRANCH  13  20
ENDBRANCH   9  18
ENDBRANCH   1  10
BRANCH   4  21
ATOM     21  S   UNL     1       0.625  11.530  20.239  0.00  0.00    +0.000 S 
BRANCH  21  22
ATOM     22  C   UNL     1       1.729  12.750  19.492  0.00  0.00    +0.000 C 
BRANCH  22  23
ATOM     23  C   UNL     1       2.073  13.911  20.419  0.00  0.00    +0.000 C 
ATOM     24  O   UNL     1       2.019  13.817  21.646  0.00  0.00    +0.000 OA
ATOM     25  N   UNL     1       2.494  15.087  19.800  0.00  0.00    +0.000 N 
ATOM     26  C   UNL     1       2.482  15.369  18.358  0.00  0.00    +0.000 C 
ATOM     27  C   UNL     1       3.803  16.017  17.923  0.00  0.00    +0.000 C 
ATOM     28  O   UNL     1       4.100  17.179  18.713  0.00  0.00    +0.000 OA
ATOM     29  C   UNL     1       4.193  16.838  20.107  0.00  0.00    +0.000 C 
ATOM     30  C   UNL     1       2.876  16.244  20.616  0.00  0.00    +0.000 C 
ENDBRANCH  22  23
ENDBRANCH  21  22
ENDBRANCH   4  21
TORSDOF 6
ENDMDL
MODEL 6
REMARK VINA RESULT:      -7.4      2.017      2.678
REMARK  Name = 
REMARK  8 active torsions:
REMARK  status: ('A' for Active; 'I' for Inactive)
REMARK    1  A    between atoms: C_1  and  O_2
REMARK    2  A    between atoms: O_2  and  C_3
REMARK    3  A    between atoms: C_8  and  N_9
REMARK    4  A    between atoms: C_10  and  C_12
REMARK    5  A    between atoms: C_15  and  S_16
REMARK    6  A    between atoms: S_16  and  C_17
REMARK    7  A    between atoms: C_17  and  C_18
REMARK    8  A    between atoms: N_26  and  C_27
REMARK                            x       y       z     vdW  Elec       q    Type
REMARK                         _______ _______ _______ _____ _____    ______ ____
ROOT
ATOM      1  C   UNL     1       1.810   8.344  19.054  0.00  0.00    +0.000 A 
ATOM      2  C   UNL     1       1.979   9.245  18.079  0.00  0.00    +0.000 A 
ATOM      3  N   UNL     1       1.700  10.588  18.178  0.00  0.00    +0.000 NA
ATOM      4  C   UNL     1       1.184  11.012  19.283  0.00  0.00    +0.000 A 
ATOM      5  N   UNL     1       0.874  10.185  20.354  0.00  0.00    +0.000 N 
ATOM      6  C   UNL     1       0.259  10.610  21.604  0.00  0.00    +0.000 C 
ATOM      7  C   UNL     1       1.156   8.832  20.284  0.00  0.00    +0.000 A 
ATOM      8  O   UNL     1       0.884   8.040  21.191  0.00  0.00    +0.000 OA
ENDROOT
BRANCH   1  10
ATOM      9  N   UNL     1       2.814   6.352  19.993  0.00  0.00    +0.000 N 
ATOM     10  C   UNL     1       2.293   6.942  18.859  0.00  0.00    +0.000 C 
ATOM     11  O   UNL     1       2.178   6.384  17.770  0.00  0.00    +0.000 OA
ATOM     12  H   UNL     1       2.692   6.830  20.886  0.00  0.00    +0.000 HD
BRANCH   9  18
ATOM     13  C   UNL     1       4.470   4.642  19.431  0.00  0.00    +0.000 A 
ATOM     14  C   UNL     1       4.847   3.293  19.451  0.00  0.00    +0.000 A 
ATOM     15  C   UNL     1       4.030   2.329  20.045  0.00  0.00    +0.000 A 
ATOM     16  C   UNL     1       2.823   2.707  20.625  0.00  0.00    +0.000 A 
ATOM     17  C   UNL     1       2.459   4.054  20.651  0.00  0.00    +0.000 A 
ATOM     18  C   UNL     1       3.275   5.028  20.058  0.00  0.00    +0.000 A 
BRANCH  13  20
ATOM     19  C   UNL     1       6.414   4.836  18.067  0.00  0.00    +0.000 C 
ATOM     20  O   UNL     1       5.309   5.458  18.716  0.00  0.00    +0.000 OA
ENDBRANCH  13  20
ENDBRANCH   9  18
ENDBRANCH   1  10
BRANCH   4  21
ATOM     21  S   UNL     1       0.968  12.734  19.517  0.00  0.00    +0.000 S 
BRANCH  21  22
ATOM     22  C   UNL     1      -0.387  13.116  18.385  0.00  0.00    +0.000 C 
BRANCH  22  23
ATOM     23  C   UNL     1      -1.756  12.686  18.904  0.00  0.00    +0.000 C 
ATOM     24  O   UNL     1      -2.232  13.119  19.955  0.00  0.00    +0.000 OA
ATOM     25  N   UNL     1      -2.467  11.797  18.100  0.00  0.00    +0.000 N 
ATOM     26  C   UNL     1      -1.967  11.114  16.899  0.00  0.00    +0.000 C 
ATOM     27  C   UNL     1      -3.003  11.180  15.769  0.00  0.00    +0.000 C 
ATOM     28  O   UNL     1      -4.279  10.682  16.200  0.00  0.00    +0.000 OA
ATOM     29  C   UNL     1      -4.771  11.439  17.319  0.00  0.00    +0.000 C 
ATOM     30  C   UNL     1      -3.805  11.357  18.505  0.00  0.00    +0.000 C 
ENDBRANCH  22  23
ENDBRANCH  21  22
ENDBRANCH   4  21
TORSDOF 6
ENDMDL
MODEL 7
REMARK VINA RESULT:      -7.3      2.371      3.349
REMARK  Name = 
REMARK  8 active torsions:
REMARK  status: ('A' for Active; 'I' for Inactive)
REMARK    1  A    between atoms: C_1  and  O_2
REMARK    2  A    between atoms: O_2  and  C_3
REMARK    3  A    between atoms: C_8  and  N_9
REMARK    4  A    between atoms: C_10  and  C_12
REMARK    5  A    between atoms: C_15  and  S_16
REMARK    6  A    between atoms: S_16  and  C_17
REMARK    7  A    between atoms: C_17  and  C_18
REMARK    8  A    between atoms: N_26  and  C_27
REMARK                            x       y       z     vdW  Elec       q    Type
REMARK                         _______ _______ _______ _____ _____    ______ ____
ROOT
ATOM      1  C   UNL     1       0.842   9.517  19.262  0.00  0.00    +0.000 A 
ATOM      2  C   UNL     1       0.031  10.450  18.749  0.00  0.00    +0.000 A 
ATOM      3  N   UNL     1      -0.783  11.286  19.476  0.00  0.00    +0.000 NA
ATOM      4  C   UNL     1      -0.809  11.129  20.757  0.00  0.00    +0.000 A 
ATOM      5  N   UNL     1      -0.087  10.151  21.427  0.00  0.00    +0.000 N 
ATOM      6  C   UNL     1      -0.112   9.913  22.864  0.00  0.00    +0.000 C 
ATOM      7  C   UNL     1       0.749   9.305  20.720  0.00  0.00    +0.000 A 
ATOM      8  O   UNL     1       1.399   8.401  21.252  0.00  0.00    +0.000 OA
ENDROOT
BRANCH   1  10
ATOM      9  N   UNL     1       2.117   7.513  18.801  0.00  0.00    +0.000 N 
ATOM     10  C   UNL     1       1.783   8.779  18.365  0.00  0.00    +0.000 C 
ATOM     11  O   UNL     1       2.170   9.281  17.312  0.00  0.00    +0.000 OA
ATOM     12  H   UNL     1       1.598   7.119  19.586  0.00  0.00    +0.000 HD
BRANCH   9  18
ATOM     13  C   UNL     1       2.666   5.243  18.072  0.00  0.00    +0.000 A 
ATOM     14  C   UNL     1       3.560   4.381  17.423  0.00  0.00    +0.000 A 
ATOM     15  C   UNL     1       4.732   4.868  16.842  0.00  0.00    +0.000 A 
ATOM     16  C   UNL     1       5.023   6.227  16.905  0.00  0.00    +0.000 A 
ATOM     17  C   UNL     1       4.118   7.102  17.508  0.00  0.00    +0.000 A 
ATOM     18  C   UNL     1       2.938   6.620  18.093  0.00  0.00    +0.000 A 
BRANCH  13  20
ATOM     19  C   UNL     1       1.380   3.256  18.343  0.00  0.00    +0.000 C 
ATOM     20  O   UNL     1       1.619   4.615  18.696  0.00  0.00    +0.000 OA
ENDBRANCH  13  20
ENDBRANCH   9  18
ENDBRANCH   1  10
BRANCH   4  21
ATOM     21  S   UNL     1      -1.699  12.275  21.739  0.00  0.00    +0.000 S 
BRANCH  21  22
ATOM     22  C   UNL     1      -2.953  12.884  20.590  0.00  0.00    +0.000 C 
BRANCH  22  23
ATOM     23  C   UNL     1      -4.371  12.448  20.945  0.00  0.00    +0.000 C 
ATOM     24  O   UNL     1      -4.815  12.510  22.092  0.00  0.00    +0.000 OA
ATOM     25  N   UNL     1      -5.161  12.005  19.886  0.00  0.00    +0.000 N 
ATOM     26  C   UNL     1      -4.718  11.765  18.505  0.00  0.00    +0.000 C 
ATOM     27  C   UNL     1      -5.719  12.359  17.506  0.00  0.00    +0.000 C 
ATOM     28  O   UNL     1      -7.051  11.882  17.752  0.00  0.00    +0.000 OA
ATOM     29  C   UNL     1      -7.476  12.220  19.084  0.00  0.00    +0.000 C 
ATOM     30  C   UNL     1      -6.548  11.597  20.131  0.00  0.00    +0.000 C 
ENDBRANCH  22  23
ENDBRANCH  21  22
ENDBRANCH   4  21
TORSDOF 6
ENDMDL
MODEL 8
REMARK VINA RESULT:      -7.3      3.311      9.623
REMARK  Name = 
REMARK  8 active torsions:
REMARK  status: ('A' for Active; 'I' for Inactive)
REMARK    1  A    between atoms: C_1  and  O_2
REMARK    2  A    between atoms: O_2  and  C_3
REMARK    3  A    between atoms: C_8  and  N_9
REMARK    4  A    between atoms: C_10  and  C_12
REMARK    5  A    between atoms: C_15  and  S_16
REMARK    6  A    between atoms: S_16  and  C_17
REMARK    7  A    between atoms: C_17  and  C_18
REMARK    8  A    between atoms: N_26  and  C_27
REMARK                            x       y       z     vdW  Elec       q    Type
REMARK                         _______ _______ _______ _____ _____    ______ ____
ROOT
ATOM      1  C   UNL     1       0.816   9.051  21.100  0.00  0.00    +0.000 A 
ATOM      2  C   UNL     1       0.900   7.767  21.468  0.00  0.00    +0.000 A 
ATOM      3  N   UNL     1       1.473   6.761  20.725  0.00  0.00    +0.000 NA
ATOM      4  C   UNL     1       1.922   7.065  19.554  0.00  0.00    +0.000 A 
ATOM      5  N   UNL     1       1.832   8.335  19.001  0.00  0.00    +0.000 N 
ATOM      6  C   UNL     1       2.292   8.716  17.672  0.00  0.00    +0.000 C 
ATOM      7  C   UNL     1       1.272   9.367  19.732  0.00  0.00    +0.000 A 
ATOM      8  O   UNL     1       1.141  10.512  19.291  0.00  0.00    +0.000 OA
ENDROOT
BRANCH   1  10
ATOM      9  N   UNL     1      -0.442  11.080  21.498  0.00  0.00    +0.000 N 
ATOM     10  C   UNL     1       0.301  10.067  22.069  0.00  0.00    +0.000 C 
ATOM     11  O   UNL     1       0.511   9.948  23.275  0.00  0.00    +0.000 OA
ATOM     12  H   UNL     1      -0.716  10.985  20.520  0.00  0.00    +0.000 HD
BRANCH   9  18
ATOM     13  C   UNL     1      -0.412  13.321  22.477  0.00  0.00    +0.000 A 
ATOM     14  C   UNL     1      -1.046  14.285  23.273  0.00  0.00    +0.000 A 
ATOM     15  C   UNL     1      -2.295  14.034  23.844  0.00  0.00    +0.000 A 
ATOM     16  C   UNL     1      -2.924  12.813  23.625  0.00  0.00    +0.000 A 
ATOM     17  C   UNL     1      -2.324  11.863  22.797  0.00  0.00    +0.000 A 
ATOM     18  C   UNL     1      -1.070  12.108  22.219  0.00  0.00    +0.000 A 
BRANCH  13  20
ATOM     19  C   UNL     1       1.078  15.009  21.698  0.00  0.00    +0.000 C 
ATOM     20  O   UNL     1       0.857  13.654  22.079  0.00  0.00    +0.000 OA
ENDBRANCH  13  20
ENDBRANCH   9  18
ENDBRANCH   1  10
BRANCH   4  21
ATOM     21  S   UNL     1       2.808   5.860  18.641  0.00  0.00    +0.000 S 
BRANCH  21  22
ATOM     22  C   UNL     1       4.394   5.804  19.504  0.00  0.00    +0.000 C 
BRANCH  22  23
ATOM     23  C   UNL     1       5.418   4.887  18.841  0.00  0.00    +0.000 C 
ATOM     24  O   UNL     1       5.770   3.817  19.341  0.00  0.00    +0.000 OA
ATOM     25  N   UNL     1       5.911   5.307  17.607  0.00  0.00    +0.000 N 
ATOM     26  C   UNL     1       5.671   6.607  16.966  0.00  0.00    +0.000 C 
ATOM     27  C   UNL     1       5.330   6.423  15.482  0.00  0.00    +0.000 C 
ATOM     28  O   UNL     1       6.334   5.649  14.807  0.00  0.00    +0.000 OA
ATOM     29  C   UNL     1       6.469   4.350  15.411  0.00  0.00    +0.000 C 
ATOM     30  C   UNL     1       6.874   4.470  16.884  0.00  0.00    +0.000 C 
ENDBRANCH  22  23
ENDBRANCH  21  22
ENDBRANCH   4  21
TORSDOF 6
ENDMDL
MODEL 9
REMARK VINA RESULT:      -7.2      3.517      4.652
REMARK  Name = 
REMARK  8 active torsions:
REMARK  status: ('A' for Active; 'I' for Inactive)
REMARK    1  A    between atoms: C_1  and  O_2
REMARK    2  A    between atoms: O_2  and  C_3
REMARK    3  A    between atoms: C_8  and  N_9
REMARK    4  A    between atoms: C_10  and  C_12
REMARK    5  A    between atoms: C_15  and  S_16
REMARK    6  A    between atoms: S_16  and  C_17
REMARK    7  A    between atoms: C_17  and  C_18
REMARK    8  A    between atoms: N_26  and  C_27
REMARK                            x       y       z     vdW  Elec       q    Type
REMARK                         _______ _______ _______ _____ _____    ______ ____
ROOT
ATOM      1  C   UNL     1       1.932   8.328  18.847  0.00  0.00    +0.000 A 
ATOM      2  C   UNL     1       1.743   9.314  17.962  0.00  0.00    +0.000 A 
ATOM      3  N   UNL     1       1.220  10.553  18.250  0.00  0.00    +0.000 NA
ATOM      4  C   UNL     1       0.830  10.771  19.461  0.00  0.00    +0.000 A 
ATOM      5  N   UNL     1       0.885   9.819  20.470  0.00  0.00    +0.000 N 
ATOM      6  C   UNL     1       0.424  10.006  21.839  0.00  0.00    +0.000 C 
ATOM      7  C   UNL     1       1.418   8.569  20.209  0.00  0.00    +0.000 A 
ATOM      8  O   UNL     1       1.474   7.671  21.055  0.00  0.00    +0.000 OA
ENDROOT
BRANCH   1  10
ATOM      9  N   UNL     1       2.191   5.929  19.030  0.00  0.00    +0.000 N 
ATOM     10  C   UNL     1       2.647   7.084  18.427  0.00  0.00    +0.000 C 
ATOM     11  O   UNL     1       3.537   7.126  17.580  0.00  0.00    +0.000 OA
ATOM     12  H   UNL     1       1.329   5.975  19.573  0.00  0.00    +0.000 HD
BRANCH   9  18
ATOM     13  C   UNL     1       3.954   4.238  19.164  0.00  0.00    +0.000 A 
ATOM     14  C   UNL     1       4.427   2.974  18.786  0.00  0.00    +0.000 A 
ATOM     15  C   UNL     1       3.665   2.138  17.969  0.00  0.00    +0.000 A 
ATOM     16  C   UNL     1       2.417   2.559  17.519  0.00  0.00    +0.000 A 
ATOM     17  C   UNL     1       1.916   3.796  17.926  0.00  0.00    +0.000 A 
ATOM     18  C   UNL     1       2.675   4.641  18.747  0.00  0.00    +0.000 A 
BRANCH  13  20
ATOM     19  C   UNL     1       6.093   5.285  19.231  0.00  0.00    +0.000 C 
ATOM     20  O   UNL     1       4.852   4.997  19.869  0.00  0.00    +0.000 OA
ENDBRANCH  13  20
ENDBRANCH   9  18
ENDBRANCH   1  10
BRANCH   4  21
ATOM     21  S   UNL     1       0.314  12.383  19.914  0.00  0.00    +0.000 S 
BRANCH  21  22
ATOM     22  C   UNL     1       1.873  13.183  20.356  0.00  0.00    +0.000 C 
BRANCH  22  23
ATOM     23  C   UNL     1       1.693  14.508  21.090  0.00  0.00    +0.000 C 
ATOM     24  O   UNL     1       1.645  14.583  22.318  0.00  0.00    +0.000 OA
ATOM     25  N   UNL     1       1.623  15.648  20.291  0.00  0.00    +0.000 N 
ATOM     26  C   UNL     1       1.542  15.685  18.824  0.00  0.00    +0.000 C 
ATOM     27  C   UNL     1       2.503  16.737  18.256  0.00  0.00    +0.000 C 
ATOM     28  O   UNL     1       2.284  18.023  18.856  0.00  0.00    +0.000 OA
ATOM     29  C   UNL     1       2.465  17.959  20.281  0.00  0.00    +0.000 C 
ATOM     30  C   UNL     1       1.484  16.967  20.914  0.00  0.00    +0.000 C 
ENDBRANCH  22  23
ENDBRANCH  21  22
ENDBRANCH   4  21
TORSDOF 6
ENDMDL
