MODEL 1
REMARK VINA RESULT:      -7.5      0.000      0.000
REMARK  Name = 
REMARK  6 active torsions:
REMARK  status: ('A' for Active; 'I' for Inactive)
REMARK    1  A    between atoms: C_2  and  C_3
REMARK    2  A    between atoms: C_3  and  S_4
REMARK    3  A    between atoms: S_4  and  C_5
REMARK    4  A    between atoms: C_10  and  C_11
REMARK    5  A    between atoms: C_11  and  N_12
REMARK    6  A    between atoms: C_17  and  C_18
REMARK                            x       y       z     vdW  Elec       q    Type
REMARK                         _______ _______ _______ _____ _____    ______ ____
ROOT
ATOM      1  C   UNL     1       6.921   6.700  17.283  0.00  0.00    +0.000 A 
ATOM      2  N   UNL     1       7.563   5.574  17.057  0.00  0.00    +0.000 NA
ATOM      3  N   UNL     1       6.672   4.544  17.230  0.00  0.00    +0.000 NA
ATOM      4  C   UNL     1       5.514   5.075  17.550  0.00  0.00    +0.000 A 
ATOM      5  C   UNL     1       4.272   4.500  17.827  0.00  0.00    +0.000 A 
ATOM      6  C   UNL     1       3.168   5.235  18.050  0.00  0.00    +0.000 A 
ATOM      7  C   UNL     1       3.408   6.753  18.164  0.00  0.00    +0.000 A 
ATOM      8  N   UNL     1       4.580   7.298  17.908  0.00  0.00    +0.000 NA
ATOM      9  N   UNL     1       5.597   6.441  17.585  0.00  0.00    +0.000 N 
ENDROOT
BRANCH   7  10
ATOM     10  C   UNL     1       2.356   7.755  18.681  0.00  0.00    +0.000 A 
ATOM     11  C   UNL     1       1.891   7.919  19.990  0.00  0.00    +0.000 A 
ATOM     12  C   UNL     1       0.994   8.958  20.330  0.00  0.00    +0.000 A 
ATOM     13  C   UNL     1       0.495   9.814  19.355  0.00  0.00    +0.000 A 
ATOM     14 CL   UNL     1      -0.610  11.063  19.771  0.00  0.00    +0.000 Cl
ATOM     15  C   UNL     1       0.884   9.643  18.038  0.00  0.00    +0.000 A 
ATOM     16  C   UNL     1       1.805   8.636  17.714  0.00  0.00    +0.000 A 
ENDBRANCH   7  10
BRANCH   1  17
ATOM     17  S   UNL     1       7.628   8.280  17.243  0.00  0.00    +0.000 S 
BRANCH  17  18
ATOM     18  C   UNL     1       8.552   8.254  18.815  0.00  0.00    +0.000 C 
BRANCH  18  20
ATOM     19  C   UNL     1       9.065  10.650  18.233  0.00  0.00    +0.000 C 
ATOM     20  C   UNL     1       9.103   9.623  19.094  0.00  0.00    +0.000 C 
ENDBRANCH  18  20
ENDBRANCH  17  18
ENDBRANCH   1  17
BRANCH   6  21
ATOM     21  C   UNL     1       1.889   4.450  18.263  0.00  0.00    +0.000 C 
BRANCH  21  22
ATOM     22  N   UNL     1       1.383   4.434  19.647  0.00  0.00    +0.000 NA
ATOM     23  C   UNL     1       2.463   4.541  20.639  0.00  0.00    +0.000 C 
ATOM     24  C   UNL     1       2.622   3.206  21.347  0.00  0.00    +0.000 C 
ATOM     25  C   UNL     1       1.392   2.401  21.009  0.00  0.00    +0.000 C 
ATOM     26  C   UNL     1       0.600   3.239  20.018  0.00  0.00    +0.000 C 
ENDBRANCH  21  22
ENDBRANCH   6  21
TORSDOF 6
ENDMDL
MODEL 2
REMARK VINA RESULT:      -7.5      1.098      1.725
REMARK  Name = 
REMARK  6 active torsions:
REMARK  status: ('A' for Active; 'I' for Inactive)
REMARK    1  A    between atoms: C_2  and  C_3
REMARK    2  A    between atoms: C_3  and  S_4
REMARK    3  A    between atoms: S_4  and  C_5
REMARK    4  A    between atoms: C_10  and  C_11
REMARK    5  A    between atoms: C_11  and  N_12
REMARK    6  A    between atoms: C_17  and  C_18
REMARK                            x       y       z     vdW  Elec       q    Type
REMARK                         _______ _______ _______ _____ _____    ______ ____
ROOT
ATOM      1  C   UNL     1       6.629   6.008  17.988  0.00  0.00    +0.000 A 
ATOM      2  N   UNL     1       7.235   4.899  18.354  0.00  0.00    +0.000 NA
ATOM      3  N   UNL     1       6.353   4.174  19.115  0.00  0.00    +0.000 NA
ATOM      4  C   UNL     1       5.236   4.859  19.184  0.00  0.00    +0.000 A 
ATOM      5  C   UNL     1       4.018   4.592  19.815  0.00  0.00    +0.000 A 
ATOM      6  C   UNL     1       2.947   5.396  19.689  0.00  0.00    +0.000 A 
ATOM      7  C   UNL     1       3.212   6.725  18.955  0.00  0.00    +0.000 A 
ATOM      8  N   UNL     1       4.361   6.981  18.363  0.00  0.00    +0.000 NA
ATOM      9  N   UNL     1       5.335   6.027  18.476  0.00  0.00    +0.000 N 
ENDROOT
BRANCH   7  10
ATOM     10  C   UNL     1       2.222   7.907  18.930  0.00  0.00    +0.000 A 
ATOM     11  C   UNL     1       1.766   8.626  17.819  0.00  0.00    +0.000 A 
ATOM     12  C   UNL     1       0.771   9.623  17.944  0.00  0.00    +0.000 A 
ATOM     13  C   UNL     1       0.258   9.965  19.190  0.00  0.00    +0.000 A 
ATOM     14 CL   UNL     1      -0.937  11.190  19.338  0.00  0.00    +0.000 Cl
ATOM     15  C   UNL     1       0.730   9.317  20.319  0.00  0.00    +0.000 A 
ATOM     16  C   UNL     1       1.688   8.301  20.184  0.00  0.00    +0.000 A 
ENDBRANCH   7  10
BRANCH   1  17
ATOM     17  S   UNL     1       7.345   7.281  17.057  0.00  0.00    +0.000 S 
BRANCH  17  18
ATOM     18  C   UNL     1       8.339   8.097  18.350  0.00  0.00    +0.000 C 
BRANCH  18  20
ATOM     19  C   UNL     1       9.215  10.435  18.683  0.00  0.00    +0.000 C 
ATOM     20  C   UNL     1       8.367   9.577  18.098  0.00  0.00    +0.000 C 
ENDBRANCH  18  20
ENDBRANCH  17  18
ENDBRANCH   1  17
BRANCH   6  21
ATOM     21  C   UNL     1       1.685   4.920  20.381  0.00  0.00    +0.000 C 
BRANCH  21  22
ATOM     22  N   UNL     1       0.915   3.897  19.652  0.00  0.00    +0.000 NA
ATOM     23  C   UNL     1       1.096   2.552  20.218  0.00  0.00    +0.000 C 
ATOM     24  C   UNL     1       1.923   1.714  19.258  0.00  0.00    +0.000 C 
ATOM     25  C   UNL     1       1.941   2.467  17.951  0.00  0.00    +0.000 C 
ATOM     26  C   UNL     1       1.224   3.782  18.213  0.00  0.00    +0.000 C 
ENDBRANCH  21  22
ENDBRANCH   6  21
TORSDOF 6
ENDMDL
MODEL 3
REMARK VINA RESULT:      -7.5      1.224      1.719
REMARK  Name = 
REMARK  6 active torsions:
REMARK  status: ('A' for Active; 'I' for Inactive)
REMARK    1  A    between atoms: C_2  and  C_3
REMARK    2  A    between atoms: C_3  and  S_4
REMARK    3  A    between atoms: S_4  and  C_5
REMARK    4  A    between atoms: C_10  and  C_11
REMARK    5  A    between atoms: C_11  and  N_12
REMARK    6  A    between atoms: C_17  and  C_18
REMARK                            x       y       z     vdW  Elec       q    Type
REMARK                         _______ _______ _______ _____ _____    ______ ____
ROOT
ATOM      1  C   UNL     1       6.478   5.562  16.477  0.00  0.00    +0.000 A 
ATOM      2  N   UNL     1       6.853   4.400  15.986  0.00  0.00    +0.000 NA
ATOM      3  N   UNL     1       5.816   3.518  16.164  0.00  0.00    +0.000 NA
ATOM      4  C   UNL     1       4.840   4.172  16.752  0.00  0.00    +0.000 A 
ATOM      5  C   UNL     1       3.564   3.772  17.157  0.00  0.00    +0.000 A 
ATOM      6  C   UNL     1       2.666   4.631  17.670  0.00  0.00    +0.000 A 
ATOM      7  C   UNL     1       3.206   6.046  17.954  0.00  0.00    +0.000 A 
ATOM      8  N   UNL     1       4.411   6.424  17.578  0.00  0.00    +0.000 NA
ATOM      9  N   UNL     1       5.187   5.479  16.965  0.00  0.00    +0.000 N 
ENDROOT
BRANCH   7  10
ATOM     10  C   UNL     1       2.452   7.106  18.782  0.00  0.00    +0.000 A 
ATOM     11  C   UNL     1       2.000   8.363  18.367  0.00  0.00    +0.000 A 
ATOM     12  C   UNL     1       1.225   9.186  19.217  0.00  0.00    +0.000 A 
ATOM     13  C   UNL     1       0.942   8.796  20.521  0.00  0.00    +0.000 A 
ATOM     14 CL   UNL     1       0.017   9.809  21.556  0.00  0.00    +0.000 Cl
ATOM     15  C   UNL     1       1.425   7.585  20.987  0.00  0.00    +0.000 A 
ATOM     16  C   UNL     1       2.159   6.756  20.126  0.00  0.00    +0.000 A 
ENDBRANCH   7  10
BRANCH   1  17
ATOM     17  S   UNL     1       7.461   6.986  16.539  0.00  0.00    +0.000 S 
BRANCH  17  18
ATOM     18  C   UNL     1       7.945   6.961  18.297  0.00  0.00    +0.000 C 
BRANCH  18  20
ATOM     19  C   UNL     1       8.306   9.431  17.963  0.00  0.00    +0.000 C 
ATOM     20  C   UNL     1       8.453   8.317  18.694  0.00  0.00    +0.000 C 
ENDBRANCH  18  20
ENDBRANCH  17  18
ENDBRANCH   1  17
BRANCH   6  21
ATOM     21  C   UNL     1       1.305   4.045  17.989  0.00  0.00    +0.000 C 
BRANCH  21  22
ATOM     22  N   UNL     1       1.311   2.926  18.948  0.00  0.00    +0.000 NA
ATOM     23  C   UNL     1       0.575   3.243  20.181  0.00  0.00    +0.000 C 
ATOM     24  C   UNL     1       1.564   3.404  21.323  0.00  0.00    +0.000 C 
ATOM     25  C   UNL     1       2.872   2.837  20.830  0.00  0.00    +0.000 C 
ATOM     26  C   UNL     1       2.648   2.467  19.373  0.00  0.00    +0.000 C 
ENDBRANCH  21  22
ENDBRANCH   6  21
TORSDOF 6
ENDMDL
MODEL 4
REMARK VINA RESULT:      -7.4      1.219      1.372
REMARK  Name = 
REMARK  6 active torsions:
REMARK  status: ('A' for Active; 'I' for Inactive)
REMARK    1  A    between atoms: C_2  and  C_3
REMARK    2  A    between atoms: C_3  and  S_4
REMARK    3  A    between atoms: S_4  and  C_5
REMARK    4  A    between atoms: C_10  and  C_11
REMARK    5  A    between atoms: C_11  and  N_12
REMARK    6  A    between atoms: C_17  and  C_18
REMARK                            x       y       z     vdW  Elec       q    Type
REMARK                         _______ _______ _______ _____ _____    ______ ____
ROOT
ATOM      1  C   UNL     1       7.033   5.639  17.912  0.00  0.00    +0.000 A 
ATOM      2  N   UNL     1       7.511   4.584  17.289  0.00  0.00    +0.000 NA
ATOM      3  N   UNL     1       6.447   3.798  16.922  0.00  0.00    +0.000 NA
ATOM      4  C   UNL     1       5.354   4.402  17.329  0.00  0.00    +0.000 A 
ATOM      5  C   UNL     1       4.005   4.057  17.216  0.00  0.00    +0.000 A 
ATOM      6  C   UNL     1       3.015   4.869  17.628  0.00  0.00    +0.000 A 
ATOM      7  C   UNL     1       3.475   6.120  18.400  0.00  0.00    +0.000 A 
ATOM      8  N   UNL     1       4.748   6.445  18.511  0.00  0.00    +0.000 NA
ATOM      9  N   UNL     1       5.651   5.585  17.950  0.00  0.00    +0.000 N 
ENDROOT
BRANCH   7  10
ATOM     10  C   UNL     1       2.527   7.040  19.194  0.00  0.00    +0.000 A 
ATOM     11  C   UNL     1       2.042   6.864  20.495  0.00  0.00    +0.000 A 
ATOM     12  C   UNL     1       1.258   7.854  21.130  0.00  0.00    +0.000 A 
ATOM     13  C   UNL     1       0.888   9.012  20.455  0.00  0.00    +0.000 A 
ATOM     14 CL   UNL     1      -0.082  10.202  21.225  0.00  0.00    +0.000 Cl
ATOM     15  C   UNL     1       1.298   9.193  19.145  0.00  0.00    +0.000 A 
ATOM     16  C   UNL     1       2.109   8.225  18.534  0.00  0.00    +0.000 A 
ENDBRANCH   7  10
BRANCH   1  17
ATOM     17  S   UNL     1       7.985   6.903  18.616  0.00  0.00    +0.000 S 
BRANCH  17  18
ATOM     18  C   UNL     1       7.745   8.212  17.369  0.00  0.00    +0.000 C 
BRANCH  18  20
ATOM     19  C   UNL     1       9.097   9.763  18.822  0.00  0.00    +0.000 C 
ATOM     20  C   UNL     1       8.082   9.545  17.973  0.00  0.00    +0.000 C 
ENDBRANCH  18  20
ENDBRANCH  17  18
ENDBRANCH   1  17
BRANCH   6  21
ATOM     21  C   UNL     1       1.607   4.371  17.365  0.00  0.00    +0.000 C 
BRANCH  21  22
ATOM     22  N   UNL     1       1.171   3.242  18.206  0.00  0.00    +0.000 NA
ATOM     23  C   UNL     1       0.784   3.669  19.559  0.00  0.00    +0.000 C 
ATOM     24  C   UNL     1       1.830   3.189  20.551  0.00  0.00    +0.000 C 
ATOM     25  C   UNL     1       2.668   2.171  19.819  0.00  0.00    +0.000 C 
ATOM     26  C   UNL     1       2.167   2.167  18.383  0.00  0.00    +0.000 C 
ENDBRANCH  21  22
ENDBRANCH   6  21
TORSDOF 6
ENDMDL
MODEL 5
REMARK VINA RESULT:      -7.4      1.486      1.931
REMARK  Name = 
REMARK  6 active torsions:
REMARK  status: ('A' for Active; 'I' for Inactive)
REMARK    1  A    between atoms: C_2  and  C_3
REMARK    2  A    between atoms: C_3  and  S_4
REMARK    3  A    between atoms: S_4  and  C_5
REMARK    4  A    between atoms: C_10  and  C_11
REMARK    5  A    between atoms: C_11  and  N_12
REMARK    6  A    between atoms: C_17  and  C_18
REMARK                            x       y       z     vdW  Elec       q    Type
REMARK                         _______ _______ _______ _____ _____    ______ ____
ROOT
ATOM      1  C   UNL     1       6.405   5.493  16.328  0.00  0.00    +0.000 A 
ATOM      2  N   UNL     1       6.784   4.327  15.851  0.00  0.00    +0.000 NA
ATOM      3  N   UNL     1       5.765   3.434  16.076  0.00  0.00    +0.000 NA
ATOM      4  C   UNL     1       4.797   4.085  16.678  0.00  0.00    +0.000 A 
ATOM      5  C   UNL     1       3.539   3.675  17.126  0.00  0.00    +0.000 A 
ATOM      6  C   UNL     1       2.642   4.532  17.646  0.00  0.00    +0.000 A 
ATOM      7  C   UNL     1       3.168   5.960  17.886  0.00  0.00    +0.000 A 
ATOM      8  N   UNL     1       4.356   6.348  17.469  0.00  0.00    +0.000 NA
ATOM      9  N   UNL     1       5.129   5.402  16.854  0.00  0.00    +0.000 N 
ENDROOT
BRANCH   7  10
ATOM     10  C   UNL     1       2.421   7.025  18.713  0.00  0.00    +0.000 A 
ATOM     11  C   UNL     1       2.096   6.990  20.074  0.00  0.00    +0.000 A 
ATOM     12  C   UNL     1       1.497   8.097  20.718  0.00  0.00    +0.000 A 
ATOM     13  C   UNL     1       1.151   9.236  20.002  0.00  0.00    +0.000 A 
ATOM     14 CL   UNL     1       0.405  10.571  20.786  0.00  0.00    +0.000 Cl
ATOM     15  C   UNL     1       1.401   9.284  18.641  0.00  0.00    +0.000 A 
ATOM     16  C   UNL     1       2.032   8.198  18.015  0.00  0.00    +0.000 A 
ENDBRANCH   7  10
BRANCH   1  17
ATOM     17  S   UNL     1       7.367   6.933  16.333  0.00  0.00    +0.000 S 
BRANCH  17  18
ATOM     18  C   UNL     1       7.565   7.175  18.130  0.00  0.00    +0.000 C 
BRANCH  18  20
ATOM     19  C   UNL     1       7.259   5.333  19.820  0.00  0.00    +0.000 C 
ATOM     20  C   UNL     1       7.911   5.865  18.776  0.00  0.00    +0.000 C 
ENDBRANCH  18  20
ENDBRANCH  17  18
ENDBRANCH   1  17
BRANCH   6  21
ATOM     21  C   UNL     1       1.300   3.932  18.015  0.00  0.00    +0.000 C 
BRANCH  21  22
ATOM     22  N   UNL     1       1.332   2.934  19.100  0.00  0.00    +0.000 NA
ATOM     23  C   UNL     1       0.821   3.472  20.369  0.00  0.00    +0.000 C 
ATOM     24  C   UNL     1       1.978   3.642  21.339  0.00  0.00    +0.000 C 
ATOM     25  C   UNL     1       3.135   2.873  20.753  0.00  0.00    +0.000 C 
ATOM     26  C   UNL     1       2.663   2.371  19.397  0.00  0.00    +0.000 C 
ENDBRANCH  21  22
ENDBRANCH   6  21
TORSDOF 6
ENDMDL
MODEL 6
REMARK VINA RESULT:      -7.3      2.318      5.645
REMARK  Name = 
REMARK  6 active torsions:
REMARK  status: ('A' for Active; 'I' for Inactive)
REMARK    1  A    between atoms: C_2  and  C_3
REMARK    2  A    between atoms: C_3  and  S_4
REMARK    3  A    between atoms: S_4  and  C_5
REMARK    4  A    between atoms: C_10  and  C_11
REMARK    5  A    between atoms: C_11  and  N_12
REMARK    6  A    between atoms: C_17  and  C_18
REMARK                            x       y       z     vdW  Elec       q    Type
REMARK                         _______ _______ _______ _____ _____    ______ ____
ROOT
ATOM      1  C   UNL     1       2.191   2.775  18.199  0.00  0.00    +0.000 A 
ATOM      2  N   UNL     1       2.956   1.883  17.606  0.00  0.00    +0.000 NA
ATOM      3  N   UNL     1       4.006   2.553  17.028  0.00  0.00    +0.000 NA
ATOM      4  C   UNL     1       3.851   3.830  17.291  0.00  0.00    +0.000 A 
ATOM      5  C   UNL     1       4.620   4.948  16.959  0.00  0.00    +0.000 A 
ATOM      6  C   UNL     1       4.333   6.182  17.408  0.00  0.00    +0.000 A 
ATOM      7  C   UNL     1       2.994   6.308  18.160  0.00  0.00    +0.000 A 
ATOM      8  N   UNL     1       2.264   5.255  18.471  0.00  0.00    +0.000 NA
ATOM      9  N   UNL     1       2.728   4.040  18.046  0.00  0.00    +0.000 N 
ENDROOT
BRANCH   7  10
ATOM     10  C   UNL     1       2.332   7.652  18.524  0.00  0.00    +0.000 A 
ATOM     11  C   UNL     1       2.062   8.736  17.681  0.00  0.00    +0.000 A 
ATOM     12  C   UNL     1       1.350   9.868  18.140  0.00  0.00    +0.000 A 
ATOM     13  C   UNL     1       0.951   9.967  19.468  0.00  0.00    +0.000 A 
ATOM     14 CL   UNL     1       0.104  11.354  20.026  0.00  0.00    +0.000 Cl
ATOM     15  C   UNL     1       1.256   8.941  20.346  0.00  0.00    +0.000 A 
ATOM     16  C   UNL     1       1.927   7.803  19.875  0.00  0.00    +0.000 A 
ENDBRANCH   7  10
BRANCH   1  17
ATOM     17  S   UNL     1       0.709   2.431  19.025  0.00  0.00    +0.000 S 
BRANCH  17  18
ATOM     18  C   UNL     1       0.860   3.578  20.435  0.00  0.00    +0.000 C 
BRANCH  18  20
ATOM     19  C   UNL     1       2.820   2.484  21.577  0.00  0.00    +0.000 C 
ATOM     20  C   UNL     1       1.538   2.879  21.578  0.00  0.00    +0.000 C 
ENDBRANCH  18  20
ENDBRANCH  17  18
ENDBRANCH   1  17
BRANCH   6  21
ATOM     21  C   UNL     1       5.312   7.269  17.011  0.00  0.00    +0.000 C 
BRANCH  21  22
ATOM     22  N   UNL     1       6.726   6.855  16.960  0.00  0.00    +0.000 NA
ATOM     23  C   UNL     1       6.998   5.687  17.810  0.00  0.00    +0.000 C 
ATOM     24  C   UNL     1       7.821   6.125  19.009  0.00  0.00    +0.000 C 
ATOM     25  C   UNL     1       8.333   7.507  18.685  0.00  0.00    +0.000 C 
ATOM     26  C   UNL     1       7.700   7.890  17.357  0.00  0.00    +0.000 C 
ENDBRANCH  21  22
ENDBRANCH   6  21
TORSDOF 6
ENDMDL
MODEL 7
REMARK VINA RESULT:      -7.2      1.401      2.111
REMARK  Name = 
REMARK  6 active torsions:
REMARK  status: ('A' for Active; 'I' for Inactive)
REMARK    1  A    between atoms: C_2  and  C_3
REMARK    2  A    between atoms: C_3  and  S_4
REMARK    3  A    between atoms: S_4  and  C_5
REMARK    4  A    between atoms: C_10  and  C_11
REMARK    5  A    between atoms: C_11  and  N_12
REMARK    6  A    between atoms: C_17  and  C_18
REMARK                            x       y       z     vdW  Elec       q    Type
REMARK                         _______ _______ _______ _____ _____    ______ ____
ROOT
ATOM      1  C   UNL     1       6.710   5.812  16.569  0.00  0.00    +0.000 A 
ATOM      2  N   UNL     1       7.143   4.682  16.051  0.00  0.00    +0.000 NA
ATOM      3  N   UNL     1       6.129   3.762  16.153  0.00  0.00    +0.000 NA
ATOM      4  C   UNL     1       5.110   4.360  16.725  0.00  0.00    +0.000 A 
ATOM      5  C   UNL     1       3.833   3.904  17.061  0.00  0.00    +0.000 A 
ATOM      6  C   UNL     1       2.887   4.714  17.570  0.00  0.00    +0.000 A 
ATOM      7  C   UNL     1       3.367   6.133  17.929  0.00  0.00    +0.000 A 
ATOM      8  N   UNL     1       4.573   6.564  17.617  0.00  0.00    +0.000 NA
ATOM      9  N   UNL     1       5.404   5.669  17.001  0.00  0.00    +0.000 N 
ENDROOT
BRANCH   7  10
ATOM     10  C   UNL     1       2.546   7.135  18.765  0.00  0.00    +0.000 A 
ATOM     11  C   UNL     1       2.084   8.400  18.385  0.00  0.00    +0.000 A 
ATOM     12  C   UNL     1       1.246   9.163  19.231  0.00  0.00    +0.000 A 
ATOM     13  C   UNL     1       0.908   8.706  20.499  0.00  0.00    +0.000 A 
ATOM     14 CL   UNL     1      -0.094   9.647  21.530  0.00  0.00    +0.000 Cl
ATOM     15  C   UNL     1       1.397   7.486  20.933  0.00  0.00    +0.000 A 
ATOM     16  C   UNL     1       2.194   6.715  20.074  0.00  0.00    +0.000 A 
ENDBRANCH   7  10
BRANCH   1  17
ATOM     17  S   UNL     1       7.641   7.263  16.725  0.00  0.00    +0.000 S 
BRANCH  17  18
ATOM     18  C   UNL     1       7.986   7.228  18.516  0.00  0.00    +0.000 C 
BRANCH  18  20
ATOM     19  C   UNL     1       8.387   5.410  20.212  0.00  0.00    +0.000 C 
ATOM     20  C   UNL     1       7.981   5.805  18.997  0.00  0.00    +0.000 C 
ENDBRANCH  18  20
ENDBRANCH  17  18
ENDBRANCH   1  17
BRANCH   6  21
ATOM     21  C   UNL     1       1.535   4.072  17.810  0.00  0.00    +0.000 C 
BRANCH  21  22
ATOM     22  N   UNL     1       1.535   2.936  18.749  0.00  0.00    +0.000 NA
ATOM     23  C   UNL     1       0.562   3.110  19.837  0.00  0.00    +0.000 C 
ATOM     24  C   UNL     1       1.307   3.372  21.135  0.00  0.00    +0.000 C 
ATOM     25  C   UNL     1       2.747   3.008  20.874  0.00  0.00    +0.000 C 
ATOM     26  C   UNL     1       2.831   2.655  19.397  0.00  0.00    +0.000 C 
ENDBRANCH  21  22
ENDBRANCH   6  21
TORSDOF 6
ENDMDL
MODEL 8
REMARK VINA RESULT:      -7.1      3.788      5.756
REMARK  Name = 
REMARK  6 active torsions:
REMARK  status: ('A' for Active; 'I' for Inactive)
REMARK    1  A    between atoms: C_2  and  C_3
REMARK    2  A    between atoms: C_3  and  S_4
REMARK    3  A    between atoms: S_4  and  C_5
REMARK    4  A    between atoms: C_10  and  C_11
REMARK    5  A    between atoms: C_11  and  N_12
REMARK    6  A    between atoms: C_17  and  C_18
REMARK                            x       y       z     vdW  Elec       q    Type
REMARK                         _______ _______ _______ _____ _____    ______ ____
ROOT
ATOM      1  C   UNL     1       1.053   9.751  19.536  0.00  0.00    +0.000 A 
ATOM      2  N   UNL     1       0.254   9.948  20.563  0.00  0.00    +0.000 NA
ATOM      3  N   UNL     1       0.255   8.801  21.317  0.00  0.00    +0.000 NA
ATOM      4  C   UNL     1       1.058   7.944  20.730  0.00  0.00    +0.000 A 
ATOM      5  C   UNL     1       1.433   6.641  21.065  0.00  0.00    +0.000 A 
ATOM      6  C   UNL     1       2.354   5.952  20.367  0.00  0.00    +0.000 A 
ATOM      7  C   UNL     1       2.828   6.628  19.066  0.00  0.00    +0.000 A 
ATOM      8  N   UNL     1       2.471   7.856  18.746  0.00  0.00    +0.000 NA
ATOM      9  N   UNL     1       1.612   8.488  19.602  0.00  0.00    +0.000 N 
ENDROOT
BRANCH   7  10
ATOM     10  C   UNL     1       3.660   5.918  17.980  0.00  0.00    +0.000 A 
ATOM     11  C   UNL     1       3.723   4.549  17.699  0.00  0.00    +0.000 A 
ATOM     12  C   UNL     1       4.456   4.056  16.596  0.00  0.00    +0.000 A 
ATOM     13  C   UNL     1       5.194   4.915  15.790  0.00  0.00    +0.000 A 
ATOM     14 CL   UNL     1       6.100   4.307  14.462  0.00  0.00    +0.000 Cl
ATOM     15  C   UNL     1       5.206   6.269  16.074  0.00  0.00    +0.000 A 
ATOM     16  C   UNL     1       4.444   6.757  17.146  0.00  0.00    +0.000 A 
ENDBRANCH   7  10
BRANCH   1  17
ATOM     17  S   UNL     1       1.345  10.888  18.263  0.00  0.00    +0.000 S 
BRANCH  17  18
ATOM     18  C   UNL     1       1.046  12.449  19.158  0.00  0.00    +0.000 C 
BRANCH  18  20
ATOM     19  C   UNL     1       3.015  13.784  18.330  0.00  0.00    +0.000 C 
ATOM     20  C   UNL     1       2.344  13.185  19.325  0.00  0.00    +0.000 C 
ENDBRANCH  18  20
ENDBRANCH  17  18
ENDBRANCH   1  17
BRANCH   6  21
ATOM     21  C   UNL     1       2.695   4.579  20.911  0.00  0.00    +0.000 C 
BRANCH  21  22
ATOM     22  N   UNL     1       1.615   3.580  20.822  0.00  0.00    +0.000 NA
ATOM     23  C   UNL     1       2.130   2.213  20.648  0.00  0.00    +0.000 C 
ATOM     24  C   UNL     1       1.828   1.744  19.235  0.00  0.00    +0.000 C 
ATOM     25  C   UNL     1       0.820   2.716  18.675  0.00  0.00    +0.000 C 
ATOM     26  C   UNL     1       0.646   3.796  19.730  0.00  0.00    +0.000 C 
ENDBRANCH  21  22
ENDBRANCH   6  21
TORSDOF 6
ENDMDL
MODEL 9
REMARK VINA RESULT:      -7.0      3.767      6.068
REMARK  Name = 
REMARK  6 active torsions:
REMARK  status: ('A' for Active; 'I' for Inactive)
REMARK    1  A    between atoms: C_2  and  C_3
REMARK    2  A    between atoms: C_3  and  S_4
REMARK    3  A    between atoms: S_4  and  C_5
REMARK    4  A    between atoms: C_10  and  C_11
REMARK    5  A    between atoms: C_11  and  N_12
REMARK    6  A    between atoms: C_17  and  C_18
REMARK                            x       y       z     vdW  Elec       q    Type
REMARK                         _______ _______ _______ _____ _____    ______ ____
ROOT
ATOM      1  C   UNL     1       1.816   8.547  19.212  0.00  0.00    +0.000 A 
ATOM      2  N   UNL     1       1.125   8.576  20.332  0.00  0.00    +0.000 NA
ATOM      3  N   UNL     1       1.328   7.382  20.977  0.00  0.00    +0.000 NA
ATOM      4  C   UNL     1       2.140   6.665  20.234  0.00  0.00    +0.000 A 
ATOM      5  C   UNL     1       2.680   5.389  20.411  0.00  0.00    +0.000 A 
ATOM      6  C   UNL     1       3.579   4.861  19.561  0.00  0.00    +0.000 A 
ATOM      7  C   UNL     1       3.829   5.683  18.282  0.00  0.00    +0.000 A 
ATOM      8  N   UNL     1       3.316   6.885  18.112  0.00  0.00    +0.000 NA
ATOM      9  N   UNL     1       2.503   7.352  19.107  0.00  0.00    +0.000 N 
ENDROOT
BRANCH   7  10
ATOM     10  C   UNL     1       4.597   5.154  17.055  0.00  0.00    +0.000 A 
ATOM     11  C   UNL     1       4.943   3.830  16.759  0.00  0.00    +0.000 A 
ATOM     12  C   UNL     1       5.561   3.486  15.534  0.00  0.00    +0.000 A 
ATOM     13  C   UNL     1       5.904   4.466  14.610  0.00  0.00    +0.000 A 
ATOM     14 CL   UNL     1       6.673   4.044  13.132  0.00  0.00    +0.000 Cl
ATOM     15  C   UNL     1       5.633   5.793  14.896  0.00  0.00    +0.000 A 
ATOM     16  C   UNL     1       4.984   6.124  16.094  0.00  0.00    +0.000 A 
ENDBRANCH   7  10
BRANCH   1  17
ATOM     17  S   UNL     1       1.844   9.804  18.021  0.00  0.00    +0.000 S 
BRANCH  17  18
ATOM     18  C   UNL     1       1.091  11.163  18.976  0.00  0.00    +0.000 C 
BRANCH  18  20
ATOM     19  C   UNL     1      -1.407  10.945  19.217  0.00  0.00    +0.000 C 
ATOM     20  C   UNL     1      -0.330  11.358  18.533  0.00  0.00    +0.000 C 
ENDBRANCH  18  20
ENDBRANCH  17  18
ENDBRANCH   1  17
BRANCH   6  21
ATOM     21  C   UNL     1       4.116   3.496  19.942  0.00  0.00    +0.000 C 
BRANCH  21  22
ATOM     22  N   UNL     1       3.130   2.400  19.914  0.00  0.00    +0.000 NA
ATOM     23  C   UNL     1       2.626   2.137  18.558  0.00  0.00    +0.000 C 
ATOM     24  C   UNL     1       1.181   2.599  18.466  0.00  0.00    +0.000 C 
ATOM     25  C   UNL     1       0.720   2.824  19.885  0.00  0.00    +0.000 C 
ATOM     26  C   UNL     1       1.941   2.602  20.764  0.00  0.00    +0.000 C 
ENDBRANCH  21  22
ENDBRANCH   6  21
TORSDOF 6
ENDMDL
