MODEL 1
REMARK VINA RESULT:      -8.2      0.000      0.000
REMARK  Name = 
REMARK  9 active torsions:
REMARK  status: ('A' for Active; 'I' for Inactive)
REMARK    1  A    between atoms: C_1  and  O_2
REMARK    2  A    between atoms: O_2  and  C_3
REMARK    3  A    between atoms: N_11  and  C_12
REMARK    4  A    between atoms: C_12  and  C_13
REMARK    5  A    between atoms: C_13  and  N_14
REMARK    6  A    between atoms: C_17  and  N_18
REMARK    7  A    between atoms: N_18  and  C_19
REMARK    8  A    between atoms: C_19  and  C_20
REMARK    9  A    between atoms: C_30  and  O_31
REMARK                            x       y       z     vdW  Elec       q    Type
REMARK                         _______ _______ _______ _____ _____    ______ ____
ROOT
ATOM      1  N   UNL     1       1.615   3.985  20.188  0.00  0.00    +0.000 NA
ATOM      2  C   UNL     1       0.681   3.134  19.441  0.00  0.00    +0.000 C 
ATOM      3  C   UNL     1       1.342   1.839  18.938  0.00  0.00    +0.000 C 
ATOM      4  C   UNL     1       2.873   2.004  18.849  0.00  0.00    +0.000 C 
ATOM      5  C   UNL     1       3.338   2.216  20.330  0.00  0.00    +0.000 C 
ATOM      6  C   UNL     1       2.462   3.237  21.107  0.00  0.00    +0.000 C 
ENDROOT
BRANCH   4   7
ATOM      7  N   UNL     1       3.134   3.065  17.851  0.00  0.00    +0.000 NA
ATOM      8  H   UNL     1       2.287   3.214  17.300  0.00  0.00    +0.000 HD
BRANCH   7   9
ATOM      9  C   UNL     1       4.222   2.812  16.915  0.00  0.00    +0.000 C 
BRANCH   9  10
ATOM     10  C   UNL     1       5.187   3.984  16.872  0.00  0.00    +0.000 A 
ATOM     11  C   UNL     1       5.951   4.336  17.988  0.00  0.00    +0.000 A 
ATOM     12  C   UNL     1       6.816   5.422  17.885  0.00  0.00    +0.000 A 
ATOM     13  C   UNL     1       6.930   6.085  16.670  0.00  0.00    +0.000 A 
ATOM     14  C   UNL     1       6.116   5.693  15.627  0.00  0.00    +0.000 A 
ATOM     15  N   UNL     1       5.231   4.678  15.705  0.00  0.00    +0.000 NA
ATOM     16  O   UNL     1       7.803   7.115  16.472  0.00  0.00    +0.000 OA
ATOM     17  C   UNL     1       7.859   7.883  17.669  0.00  0.00    +0.000 C 
ATOM     18  C   UNL     1       8.223   7.032  18.882  0.00  0.00    +0.000 C 
ATOM     19  O   UNL     1       7.495   5.801  19.009  0.00  0.00    +0.000 OA
ENDBRANCH   9  10
ENDBRANCH   7   9
ENDBRANCH   4   7
BRANCH   5  20
ATOM     20  O   UNL     1       4.719   2.561  20.415  0.00  0.00    +0.000 OA
ATOM     21  H   UNL     1       4.981   2.784  19.505  0.00  0.00    +0.000 HD
ENDBRANCH   5  20
BRANCH   1  22
ATOM     22  C   UNL     1       1.080   5.248  20.689  0.00  0.00    +0.000 C 
BRANCH  22  23
ATOM     23  C   UNL     1       2.113   6.373  20.726  0.00  0.00    +0.000 C 
BRANCH  23  32
ATOM     24  C   UNL     1       0.462  10.154  21.658  0.00  0.00    +0.000 A 
ATOM     25  C   UNL     1       0.277  11.101  20.656  0.00  0.00    +0.000 A 
ATOM     26  C   UNL     1       0.754  10.850  19.362  0.00  0.00    +0.000 A 
ATOM     27  C   UNL     1       1.391   9.645  19.050  0.00  0.00    +0.000 A 
ATOM     28  N   UNL     1       1.844   9.471  17.727  0.00  0.00    +0.000 NA
ATOM     29  C   UNL     1       2.383   8.333  17.437  0.00  0.00    +0.000 A 
ATOM     30  C   UNL     1       2.540   7.183  18.395  0.00  0.00    +0.000 A 
ATOM     31  O   UNL     1       3.027   6.157  17.943  0.00  0.00    +0.000 OA
ATOM     32  N   UNL     1       2.104   7.406  19.694  0.00  0.00    +0.000 N 
ATOM     33  C   UNL     1       1.538   8.673  20.040  0.00  0.00    +0.000 A 
ATOM     34  C   UNL     1       1.099   8.956  21.344  0.00  0.00    +0.000 A 
BRANCH  24  36
ATOM     35  C   UNL     1      -1.196  10.819  23.228  0.00  0.00    +0.000 C 
ATOM     36  O   UNL     1       0.082  10.255  22.965  0.00  0.00    +0.000 OA
ENDBRANCH  24  36
ENDBRANCH  23  32
ENDBRANCH  22  23
ENDBRANCH   1  22
TORSDOF 8
ENDMDL
MODEL 2
REMARK VINA RESULT:      -7.9      2.385      7.597
REMARK  Name = 
REMARK  9 active torsions:
REMARK  status: ('A' for Active; 'I' for Inactive)
REMARK    1  A    between atoms: C_1  and  O_2
REMARK    2  A    between atoms: O_2  and  C_3
REMARK    3  A    between atoms: N_11  and  C_12
REMARK    4  A    between atoms: C_12  and  C_13
REMARK    5  A    between atoms: C_13  and  N_14
REMARK    6  A    between atoms: C_17  and  N_18
REMARK    7  A    between atoms: N_18  and  C_19
REMARK    8  A    between atoms: C_19  and  C_20
REMARK    9  A    between atoms: C_30  and  O_31
REMARK                            x       y       z     vdW  Elec       q    Type
REMARK                         _______ _______ _______ _____ _____    ______ ____
ROOT
ATOM      1  N   UNL     1       3.261   2.692  18.663  0.00  0.00    +0.000 NA
ATOM      2  C   UNL     1       3.969   2.927  19.927  0.00  0.00    +0.000 C 
ATOM      3  C   UNL     1       3.006   3.101  21.114  0.00  0.00    +0.000 C 
ATOM      4  C   UNL     1       1.607   3.533  20.627  0.00  0.00    +0.000 C 
ATOM      5  C   UNL     1       1.087   2.320  19.782  0.00  0.00    +0.000 C 
ATOM      6  C   UNL     1       2.147   1.762  18.793  0.00  0.00    +0.000 C 
ENDROOT
BRANCH   4   7
ATOM      7  N   UNL     1       1.768   4.851  19.974  0.00  0.00    +0.000 NA
ATOM      8  H   UNL     1       2.438   4.760  19.207  0.00  0.00    +0.000 HD
BRANCH   7   9
ATOM      9  C   UNL     1       2.234   5.938  20.828  0.00  0.00    +0.000 C 
BRANCH   9  10
ATOM     10  C   UNL     1       1.825   7.287  20.264  0.00  0.00    +0.000 A 
ATOM     11  C   UNL     1       1.046   8.178  21.006  0.00  0.00    +0.000 A 
ATOM     12  C   UNL     1       0.703   9.399  20.431  0.00  0.00    +0.000 A 
ATOM     13  C   UNL     1       1.186   9.712  19.168  0.00  0.00    +0.000 A 
ATOM     14  C   UNL     1       1.924   8.763  18.490  0.00  0.00    +0.000 A 
ATOM     15  N   UNL     1       2.233   7.551  18.995  0.00  0.00    +0.000 NA
ATOM     16  O   UNL     1       0.949  10.914  18.566  0.00  0.00    +0.000 OA
ATOM     17  C   UNL     1      -0.371  11.326  18.906  0.00  0.00    +0.000 C 
ATOM     18  C   UNL     1      -0.585  11.376  20.416  0.00  0.00    +0.000 C 
ATOM     19  O   UNL     1      -0.125  10.224  21.139  0.00  0.00    +0.000 OA
ENDBRANCH   9  10
ENDBRANCH   7   9
ENDBRANCH   4   7
BRANCH   5  20
ATOM     20  O   UNL     1      -0.132   2.621  19.106  0.00  0.00    +0.000 OA
ATOM     21  H   UNL     1      -0.081   2.135  18.264  0.00  0.00    +0.000 HD
ENDBRANCH   5  20
BRANCH   1  22
ATOM     22  C   UNL     1       4.095   2.533  17.474  0.00  0.00    +0.000 C 
BRANCH  22  23
ATOM     23  C   UNL     1       4.015   3.719  16.513  0.00  0.00    +0.000 C 
BRANCH  23  32
ATOM     24  C   UNL     1       6.008   3.592  12.785  0.00  0.00    +0.000 A 
ATOM     25  C   UNL     1       7.217   4.259  12.617  0.00  0.00    +0.000 A 
ATOM     26  C   UNL     1       7.712   5.076  13.643  0.00  0.00    +0.000 A 
ATOM     27  C   UNL     1       7.022   5.212  14.852  0.00  0.00    +0.000 A 
ATOM     28  N   UNL     1       7.584   6.054  15.832  0.00  0.00    +0.000 NA
ATOM     29  C   UNL     1       6.967   6.130  16.963  0.00  0.00    +0.000 A 
ATOM     30  C   UNL     1       5.714   5.373  17.316  0.00  0.00    +0.000 A 
ATOM     31  O   UNL     1       5.286   5.522  18.452  0.00  0.00    +0.000 OA
ATOM     32  N   UNL     1       5.180   4.575  16.313  0.00  0.00    +0.000 N 
ATOM     33  C   UNL     1       5.832   4.509  15.042  0.00  0.00    +0.000 A 
ATOM     34  C   UNL     1       5.323   3.731  13.990  0.00  0.00    +0.000 A 
BRANCH  24  36
ATOM     35  C   UNL     1       4.106   3.201  11.412  0.00  0.00    +0.000 C 
ATOM     36  O   UNL     1       5.382   2.784  11.880  0.00  0.00    +0.000 OA
ENDBRANCH  24  36
ENDBRANCH  23  32
ENDBRANCH  22  23
ENDBRANCH   1  22
TORSDOF 8
ENDMDL
MODEL 3
REMARK VINA RESULT:      -7.8      1.809      2.572
REMARK  Name = 
REMARK  9 active torsions:
REMARK  status: ('A' for Active; 'I' for Inactive)
REMARK    1  A    between atoms: C_1  and  O_2
REMARK    2  A    between atoms: O_2  and  C_3
REMARK    3  A    between atoms: N_11  and  C_12
REMARK    4  A    between atoms: C_12  and  C_13
REMARK    5  A    between atoms: C_13  and  N_14
REMARK    6  A    between atoms: C_17  and  N_18
REMARK    7  A    between atoms: N_18  and  C_19
REMARK    8  A    between atoms: C_19  and  C_20
REMARK    9  A    between atoms: C_30  and  O_31
REMARK                            x       y       z     vdW  Elec       q    Type
REMARK                         _______ _______ _______ _____ _____    ______ ____
ROOT
ATOM      1  N   UNL     1       1.951   4.013  19.824  0.00  0.00    +0.000 NA
ATOM      2  C   UNL     1       1.426   3.541  18.538  0.00  0.00    +0.000 C 
ATOM      3  C   UNL     1       2.299   2.435  17.920  0.00  0.00    +0.000 C 
ATOM      4  C   UNL     1       3.734   2.489  18.483  0.00  0.00    +0.000 C 
ATOM      5  C   UNL     1       3.576   2.158  20.007  0.00  0.00    +0.000 C 
ATOM      6  C   UNL     1       2.415   2.934  20.686  0.00  0.00    +0.000 C 
ENDROOT
BRANCH   4   7
ATOM      7  N   UNL     1       4.303   3.795  18.084  0.00  0.00    +0.000 NA
ATOM      8  H   UNL     1       3.941   4.044  17.162  0.00  0.00    +0.000 HD
BRANCH   7   9
ATOM      9  C   UNL     1       5.758   3.865  18.011  0.00  0.00    +0.000 C 
BRANCH   9  10
ATOM     10  C   UNL     1       6.217   4.203  16.604  0.00  0.00    +0.000 A 
ATOM     11  C   UNL     1       5.610   3.628  15.485  0.00  0.00    +0.000 A 
ATOM     12  C   UNL     1       6.079   3.977  14.221  0.00  0.00    +0.000 A 
ATOM     13  C   UNL     1       7.093   4.919  14.111  0.00  0.00    +0.000 A 
ATOM     14  C   UNL     1       7.659   5.416  15.268  0.00  0.00    +0.000 A 
ATOM     15  N   UNL     1       7.265   5.063  16.509  0.00  0.00    +0.000 NA
ATOM     16  O   UNL     1       7.559   5.363  12.908  0.00  0.00    +0.000 OA
ATOM     17  C   UNL     1       7.556   4.265  12.001  0.00  0.00    +0.000 C 
ATOM     18  C   UNL     1       6.180   3.615  11.892  0.00  0.00    +0.000 C 
ATOM     19  O   UNL     1       5.527   3.345  13.142  0.00  0.00    +0.000 OA
ENDBRANCH   9  10
ENDBRANCH   7   9
ENDBRANCH   4   7
BRANCH   5  20
ATOM     20  O   UNL     1       4.796   2.336  20.724  0.00  0.00    +0.000 OA
ATOM     21  H   UNL     1       5.460   1.832  20.222  0.00  0.00    +0.000 HD
ENDBRANCH   5  20
BRANCH   1  22
ATOM     22  C   UNL     1       1.197   5.079  20.478  0.00  0.00    +0.000 C 
BRANCH  22  23
ATOM     23  C   UNL     1       2.021   6.341  20.729  0.00  0.00    +0.000 C 
BRANCH  23  32
ATOM     24  C   UNL     1      -0.147   9.858  21.632  0.00  0.00    +0.000 A 
ATOM     25  C   UNL     1      -0.325  10.837  20.660  0.00  0.00    +0.000 A 
ATOM     26  C   UNL     1       0.321  10.716  19.422  0.00  0.00    +0.000 A 
ATOM     27  C   UNL     1       1.123   9.608  19.133  0.00  0.00    +0.000 A 
ATOM     28  N   UNL     1       1.739   9.563  17.866  0.00  0.00    +0.000 NA
ATOM     29  C   UNL     1       2.434   8.510  17.590  0.00  0.00    +0.000 A 
ATOM     30  C   UNL     1       2.612   7.328  18.506  0.00  0.00    +0.000 A 
ATOM     31  O   UNL     1       3.262   6.390  18.068  0.00  0.00    +0.000 OA
ATOM     32  N   UNL     1       2.010   7.426  19.753  0.00  0.00    +0.000 N 
ATOM     33  C   UNL     1       1.268   8.602  20.087  0.00  0.00    +0.000 A 
ATOM     34  C   UNL     1       0.654   8.757  21.341  0.00  0.00    +0.000 A 
BRANCH  24  36
ATOM     35  C   UNL     1      -1.454  10.966  23.282  0.00  0.00    +0.000 C 
ATOM     36  O   UNL     1      -0.681   9.840  22.888  0.00  0.00    +0.000 OA
ENDBRANCH  24  36
ENDBRANCH  23  32
ENDBRANCH  22  23
ENDBRANCH   1  22
TORSDOF 8
ENDMDL
MODEL 4
REMARK VINA RESULT:      -7.6      3.632      9.601
REMARK  Name = 
REMARK  9 active torsions:
REMARK  status: ('A' for Active; 'I' for Inactive)
REMARK    1  A    between atoms: C_1  and  O_2
REMARK    2  A    between atoms: O_2  and  C_3
REMARK    3  A    between atoms: N_11  and  C_12
REMARK    4  A    between atoms: C_12  and  C_13
REMARK    5  A    between atoms: C_13  and  N_14
REMARK    6  A    between atoms: C_17  and  N_18
REMARK    7  A    between atoms: N_18  and  C_19
REMARK    8  A    between atoms: C_19  and  C_20
REMARK    9  A    between atoms: C_30  and  O_31
REMARK                            x       y       z     vdW  Elec       q    Type
REMARK                         _______ _______ _______ _____ _____    ______ ____
ROOT
ATOM      1  N   UNL     1       1.557   8.956  18.541  0.00  0.00    +0.000 NA
ATOM      2  C   UNL     1       1.831  10.365  18.234  0.00  0.00    +0.000 C 
ATOM      3  C   UNL     1       1.143  11.323  19.223  0.00  0.00    +0.000 C 
ATOM      4  C   UNL     1      -0.057  10.638  19.907  0.00  0.00    +0.000 C 
ATOM      5  C   UNL     1       0.573   9.477  20.750  0.00  0.00    +0.000 C 
ATOM      6  C   UNL     1       1.630   8.653  19.964  0.00  0.00    +0.000 C 
ENDROOT
BRANCH   4   7
ATOM      7  N   UNL     1      -1.029  10.310  18.840  0.00  0.00    +0.000 NA
ATOM      8  H   UNL     1      -0.561   9.743  18.131  0.00  0.00    +0.000 HD
BRANCH   7   9
ATOM      9  C   UNL     1      -1.638  11.445  18.156  0.00  0.00    +0.000 C 
BRANCH   9  10
ATOM     10  C   UNL     1      -3.113  11.560  18.500  0.00  0.00    +0.000 A 
ATOM     11  C   UNL     1      -3.544  12.285  19.614  0.00  0.00    +0.000 A 
ATOM     12  C   UNL     1      -4.909  12.350  19.876  0.00  0.00    +0.000 A 
ATOM     13  C   UNL     1      -5.798  11.742  18.999  0.00  0.00    +0.000 A 
ATOM     14  C   UNL     1      -5.287  11.019  17.940  0.00  0.00    +0.000 A 
ATOM     15  N   UNL     1      -3.969  10.892  17.683  0.00  0.00    +0.000 NA
ATOM     16  O   UNL     1      -7.152  11.818  19.151  0.00  0.00    +0.000 OA
ATOM     17  C   UNL     1      -7.443  11.779  20.545  0.00  0.00    +0.000 C 
ATOM     18  C   UNL     1      -6.705  12.868  21.317  0.00  0.00    +0.000 C 
ATOM     19  O   UNL     1      -5.307  12.996  21.013  0.00  0.00    +0.000 OA
ENDBRANCH   9  10
ENDBRANCH   7   9
ENDBRANCH   4   7
BRANCH   5  20
ATOM     20  O   UNL     1      -0.420   8.624  21.316  0.00  0.00    +0.000 OA
ATOM     21  H   UNL     1      -1.041   8.442  20.588  0.00  0.00    +0.000 HD
ENDBRANCH   5  20
BRANCH   1  22
ATOM     22  C   UNL     1       2.153   7.971  17.643  0.00  0.00    +0.000 C 
BRANCH  22  23
ATOM     23  C   UNL     1       3.178   7.067  18.327  0.00  0.00    +0.000 C 
BRANCH  23  32
ATOM     24  C   UNL     1       1.944   3.150  19.341  0.00  0.00    +0.000 A 
ATOM     25  C   UNL     1       2.597   2.050  18.796  0.00  0.00    +0.000 A 
ATOM     26  C   UNL     1       3.580   2.237  17.814  0.00  0.00    +0.000 A 
ATOM     27  C   UNL     1       3.939   3.520  17.390  0.00  0.00    +0.000 A 
ATOM     28  N   UNL     1       4.933   3.624  16.397  0.00  0.00    +0.000 NA
ATOM     29  C   UNL     1       5.295   4.815  16.052  0.00  0.00    +0.000 A 
ATOM     30  C   UNL     1       4.753   6.088  16.644  0.00  0.00    +0.000 A 
ATOM     31  O   UNL     1       5.241   7.132  16.238  0.00  0.00    +0.000 OA
ATOM     32  N   UNL     1       3.757   5.941  17.601  0.00  0.00    +0.000 N 
ATOM     33  C   UNL     1       3.319   4.629  17.967  0.00  0.00    +0.000 A 
ATOM     34  C   UNL     1       2.303   4.427  18.915  0.00  0.00    +0.000 A 
BRANCH  24  36
ATOM     35  C   UNL     1       1.330   2.814  21.614  0.00  0.00    +0.000 C 
ATOM     36  O   UNL     1       0.954   3.137  20.281  0.00  0.00    +0.000 OA
ENDBRANCH  24  36
ENDBRANCH  23  32
ENDBRANCH  22  23
ENDBRANCH   1  22
TORSDOF 8
ENDMDL
MODEL 5
REMARK VINA RESULT:      -7.6      1.064      1.177
REMARK  Name = 
REMARK  9 active torsions:
REMARK  status: ('A' for Active; 'I' for Inactive)
REMARK    1  A    between atoms: C_1  and  O_2
REMARK    2  A    between atoms: O_2  and  C_3
REMARK    3  A    between atoms: N_11  and  C_12
REMARK    4  A    between atoms: C_12  and  C_13
REMARK    5  A    between atoms: C_13  and  N_14
REMARK    6  A    between atoms: C_17  and  N_18
REMARK    7  A    between atoms: N_18  and  C_19
REMARK    8  A    between atoms: C_19  and  C_20
REMARK    9  A    between atoms: C_30  and  O_31
REMARK                            x       y       z     vdW  Elec       q    Type
REMARK                         _______ _______ _______ _____ _____    ______ ____
ROOT
ATOM      1  N   UNL     1       2.249   4.810  20.292  0.00  0.00    +0.000 NA
ATOM      2  C   UNL     1       1.513   4.556  19.048  0.00  0.00    +0.000 C 
ATOM      3  C   UNL     1       1.201   3.063  18.848  0.00  0.00    +0.000 C 
ATOM      4  C   UNL     1       2.174   2.184  19.661  0.00  0.00    +0.000 C 
ATOM      5  C   UNL     1       1.863   2.526  21.158  0.00  0.00    +0.000 C 
ATOM      6  C   UNL     1       1.739   4.052  21.426  0.00  0.00    +0.000 C 
ENDROOT
BRANCH   4   7
ATOM      7  N   UNL     1       3.530   2.441  19.129  0.00  0.00    +0.000 NA
ATOM      8  H   UNL     1       3.922   3.256  19.603  0.00  0.00    +0.000 HD
BRANCH   7   9
ATOM      9  C   UNL     1       3.620   2.690  17.695  0.00  0.00    +0.000 C 
BRANCH   9  10
ATOM     10  C   UNL     1       4.659   3.755  17.391  0.00  0.00    +0.000 A 
ATOM     11  C   UNL     1       5.513   4.240  18.386  0.00  0.00    +0.000 A 
ATOM     12  C   UNL     1       6.443   5.218  18.044  0.00  0.00    +0.000 A 
ATOM     13  C   UNL     1       6.527   5.641  16.724  0.00  0.00    +0.000 A 
ATOM     14  C   UNL     1       5.625   5.134  15.811  0.00  0.00    +0.000 A 
ATOM     15  N   UNL     1       4.679   4.222  16.116  0.00  0.00    +0.000 NA
ATOM     16  O   UNL     1       7.456   6.546  16.299  0.00  0.00    +0.000 OA
ATOM     17  C   UNL     1       7.638   7.510  17.331  0.00  0.00    +0.000 C 
ATOM     18  C   UNL     1       8.017   6.864  18.660  0.00  0.00    +0.000 C 
ATOM     19  O   UNL     1       7.215   5.737  19.045  0.00  0.00    +0.000 OA
ENDBRANCH   9  10
ENDBRANCH   7   9
ENDBRANCH   4   7
BRANCH   5  20
ATOM     20  O   UNL     1       2.799   1.927  22.051  0.00  0.00    +0.000 OA
ATOM     21  H   UNL     1       2.844   2.530  22.814  0.00  0.00    +0.000 HD
ENDBRANCH   5  20
BRANCH   1  22
ATOM     22  C   UNL     1       2.607   6.201  20.558  0.00  0.00    +0.000 C 
BRANCH  22  23
ATOM     23  C   UNL     1       1.436   7.171  20.404  0.00  0.00    +0.000 C 
BRANCH  23  32
ATOM     24  C   UNL     1      -0.343  10.743  21.805  0.00  0.00    +0.000 A 
ATOM     25  C   UNL     1      -0.360  11.877  21.000  0.00  0.00    +0.000 A 
ATOM     26  C   UNL     1       0.323  11.873  19.775  0.00  0.00    +0.000 A 
ATOM     27  C   UNL     1       1.002  10.734  19.333  0.00  0.00    +0.000 A 
ATOM     28  N   UNL     1       1.666  10.812  18.092  0.00  0.00    +0.000 NA
ATOM     29  C   UNL     1       2.244   9.738  17.668  0.00  0.00    +0.000 A 
ATOM     30  C   UNL     1       2.241   8.415  18.386  0.00  0.00    +0.000 A 
ATOM     31  O   UNL     1       2.795   7.484  17.820  0.00  0.00    +0.000 OA
ATOM     32  N   UNL     1       1.597   8.389  19.616  0.00  0.00    +0.000 N 
ATOM     33  C   UNL     1       0.984   9.580  20.116  0.00  0.00    +0.000 A 
ATOM     34  C   UNL     1       0.336   9.611  21.362  0.00  0.00    +0.000 A 
BRANCH  24  36
ATOM     35  C   UNL     1      -2.008  11.468  23.340  0.00  0.00    +0.000 C 
ATOM     36  O   UNL     1      -0.933  10.594  23.027  0.00  0.00    +0.000 OA
ENDBRANCH  24  36
ENDBRANCH  23  32
ENDBRANCH  22  23
ENDBRANCH   1  22
TORSDOF 8
ENDMDL
MODEL 6
REMARK VINA RESULT:      -7.5      3.664      9.742
REMARK  Name = 
REMARK  9 active torsions:
REMARK  status: ('A' for Active; 'I' for Inactive)
REMARK    1  A    between atoms: C_1  and  O_2
REMARK    2  A    between atoms: O_2  and  C_3
REMARK    3  A    between atoms: N_11  and  C_12
REMARK    4  A    between atoms: C_12  and  C_13
REMARK    5  A    between atoms: C_13  and  N_14
REMARK    6  A    between atoms: C_17  and  N_18
REMARK    7  A    between atoms: N_18  and  C_19
REMARK    8  A    between atoms: C_19  and  C_20
REMARK    9  A    between atoms: C_30  and  O_31
REMARK                            x       y       z     vdW  Elec       q    Type
REMARK                         _______ _______ _______ _____ _____    ______ ____
ROOT
ATOM      1  N   UNL     1       1.528   8.864  18.683  0.00  0.00    +0.000 NA
ATOM      2  C   UNL     1       1.788  10.235  18.228  0.00  0.00    +0.000 C 
ATOM      3  C   UNL     1       1.054  11.284  19.082  0.00  0.00    +0.000 C 
ATOM      4  C   UNL     1      -0.155  10.656  19.804  0.00  0.00    +0.000 C 
ATOM      5  C   UNL     1       0.468   9.610  20.790  0.00  0.00    +0.000 C 
ATOM      6  C   UNL     1       1.562   8.724  20.133  0.00  0.00    +0.000 C 
ENDROOT
BRANCH   4   7
ATOM      7  N   UNL     1      -1.089  10.191  18.754  0.00  0.00    +0.000 NA
ATOM      8  H   UNL     1      -0.642   9.439  18.226  0.00  0.00    +0.000 HD
BRANCH   7   9
ATOM      9  C   UNL     1      -1.524  11.197  17.792  0.00  0.00    +0.000 C 
BRANCH   9  10
ATOM     10  C   UNL     1      -2.993  11.530  17.979  0.00  0.00    +0.000 A 
ATOM     11  C   UNL     1      -3.491  11.944  19.218  0.00  0.00    +0.000 A 
ATOM     12  C   UNL     1      -4.848  12.232  19.326  0.00  0.00    +0.000 A 
ATOM     13  C   UNL     1      -5.651  12.150  18.195  0.00  0.00    +0.000 A 
ATOM     14  C   UNL     1      -5.086  11.703  17.017  0.00  0.00    +0.000 A 
ATOM     15  N   UNL     1      -3.786  11.367  16.888  0.00  0.00    +0.000 NA
ATOM     16  O   UNL     1      -6.975  12.480  18.205  0.00  0.00    +0.000 OA
ATOM     17  C   UNL     1      -7.522  12.070  19.454  0.00  0.00    +0.000 C 
ATOM     18  C   UNL     1      -6.762  12.663  20.637  0.00  0.00    +0.000 C 
ATOM     19  O   UNL     1      -5.332  12.559  20.562  0.00  0.00    +0.000 OA
ENDBRANCH   9  10
ENDBRANCH   7   9
ENDBRANCH   4   7
BRANCH   5  20
ATOM     20  O   UNL     1      -0.527   8.806  21.420  0.00  0.00    +0.000 OA
ATOM     21  H   UNL     1      -0.033   8.107  21.883  0.00  0.00    +0.000 HD
ENDBRANCH   5  20
BRANCH   1  22
ATOM     22  C   UNL     1       2.168   7.797  17.919  0.00  0.00    +0.000 C 
BRANCH  22  23
ATOM     23  C   UNL     1       2.985   6.837  18.783  0.00  0.00    +0.000 C 
BRANCH  23  32
ATOM     24  C   UNL     1       6.648   6.325  16.731  0.00  0.00    +0.000 A 
ATOM     25  C   UNL     1       6.925   5.124  16.087  0.00  0.00    +0.000 A 
ATOM     26  C   UNL     1       6.047   4.040  16.224  0.00  0.00    +0.000 A 
ATOM     27  C   UNL     1       4.875   4.153  16.978  0.00  0.00    +0.000 A 
ATOM     28  N   UNL     1       4.047   3.017  17.069  0.00  0.00    +0.000 NA
ATOM     29  C   UNL     1       2.941   3.149  17.723  0.00  0.00    +0.000 A 
ATOM     30  C   UNL     1       2.467   4.423  18.369  0.00  0.00    +0.000 A 
ATOM     31  O   UNL     1       1.369   4.388  18.908  0.00  0.00    +0.000 OA
ATOM     32  N   UNL     1       3.325   5.510  18.278  0.00  0.00    +0.000 N 
ATOM     33  C   UNL     1       4.570   5.370  17.588  0.00  0.00    +0.000 A 
ATOM     34  C   UNL     1       5.480   6.434  17.482  0.00  0.00    +0.000 A 
BRANCH  24  36
ATOM     35  C   UNL     1       7.940   7.897  17.961  0.00  0.00    +0.000 C 
ATOM     36  O   UNL     1       7.408   7.460  16.718  0.00  0.00    +0.000 OA
ENDBRANCH  24  36
ENDBRANCH  23  32
ENDBRANCH  22  23
ENDBRANCH   1  22
TORSDOF 8
ENDMDL
MODEL 7
REMARK VINA RESULT:      -7.4      3.764      9.674
REMARK  Name = 
REMARK  9 active torsions:
REMARK  status: ('A' for Active; 'I' for Inactive)
REMARK    1  A    between atoms: C_1  and  O_2
REMARK    2  A    between atoms: O_2  and  C_3
REMARK    3  A    between atoms: N_11  and  C_12
REMARK    4  A    between atoms: C_12  and  C_13
REMARK    5  A    between atoms: C_13  and  N_14
REMARK    6  A    between atoms: C_17  and  N_18
REMARK    7  A    between atoms: N_18  and  C_19
REMARK    8  A    between atoms: C_19  and  C_20
REMARK    9  A    between atoms: C_30  and  O_31
REMARK                            x       y       z     vdW  Elec       q    Type
REMARK                         _______ _______ _______ _____ _____    ______ ____
ROOT
ATOM      1  N   UNL     1       1.563   8.915  18.519  0.00  0.00    +0.000 NA
ATOM      2  C   UNL     1       1.817  10.334  18.247  0.00  0.00    +0.000 C 
ATOM      3  C   UNL     1       1.140  11.258  19.275  0.00  0.00    +0.000 C 
ATOM      4  C   UNL     1      -0.041  10.542  19.962  0.00  0.00    +0.000 C 
ATOM      5  C   UNL     1       0.617   9.364  20.760  0.00  0.00    +0.000 C 
ATOM      6  C   UNL     1       1.667   8.573  19.932  0.00  0.00    +0.000 C 
ENDROOT
BRANCH   4   7
ATOM      7  N   UNL     1      -1.030  10.234  18.906  0.00  0.00    +0.000 NA
ATOM      8  H   UNL     1      -0.592   9.625  18.212  0.00  0.00    +0.000 HD
BRANCH   7   9
ATOM      9  C   UNL     1      -1.582  11.378  18.190  0.00  0.00    +0.000 C 
BRANCH   9  10
ATOM     10  C   UNL     1      -2.903  11.814  18.798  0.00  0.00    +0.000 A 
ATOM     11  C   UNL     1      -4.118  11.543  18.163  0.00  0.00    +0.000 A 
ATOM     12  C   UNL     1      -5.295  11.971  18.770  0.00  0.00    +0.000 A 
ATOM     13  C   UNL     1      -5.230  12.604  20.005  0.00  0.00    +0.000 A 
ATOM     14  C   UNL     1      -3.987  12.861  20.548  0.00  0.00    +0.000 A 
ATOM     15  N   UNL     1      -2.824  12.506  19.965  0.00  0.00    +0.000 NA
ATOM     16  O   UNL     1      -6.342  12.993  20.693  0.00  0.00    +0.000 OA
ATOM     17  C   UNL     1      -7.308  13.447  19.751  0.00  0.00    +0.000 C 
ATOM     18  C   UNL     1      -7.615  12.394  18.691  0.00  0.00    +0.000 C 
ATOM     19  O   UNL     1      -6.467  11.768  18.098  0.00  0.00    +0.000 OA
ENDBRANCH   9  10
ENDBRANCH   7   9
ENDBRANCH   4   7
BRANCH   5  20
ATOM     20  O   UNL     1      -0.357   8.486  21.321  0.00  0.00    +0.000 OA
ATOM     21  H   UNL     1       0.010   7.593  21.201  0.00  0.00    +0.000 HD
ENDBRANCH   5  20
BRANCH   1  22
ATOM     22  C   UNL     1       2.151   7.961  17.582  0.00  0.00    +0.000 C 
BRANCH  22  23
ATOM     23  C   UNL     1       3.330   7.184  18.167  0.00  0.00    +0.000 C 
BRANCH  23  32
ATOM     24  C   UNL     1       1.991   3.370  19.410  0.00  0.00    +0.000 A 
ATOM     25  C   UNL     1       2.582   2.221  18.896  0.00  0.00    +0.000 A 
ATOM     26  C   UNL     1       3.534   2.324  17.872  0.00  0.00    +0.000 A 
ATOM     27  C   UNL     1       3.924   3.571  17.375  0.00  0.00    +0.000 A 
ATOM     28  N   UNL     1       4.885   3.590  16.344  0.00  0.00    +0.000 NA
ATOM     29  C   UNL     1       5.278   4.748  15.930  0.00  0.00    +0.000 A 
ATOM     30  C   UNL     1       4.805   6.068  16.479  0.00  0.00    +0.000 A 
ATOM     31  O   UNL     1       5.316   7.073  16.006  0.00  0.00    +0.000 OA
ATOM     32  N   UNL     1       3.840   6.004  17.475  0.00  0.00    +0.000 N 
ATOM     33  C   UNL     1       3.368   4.729  17.919  0.00  0.00    +0.000 A 
ATOM     34  C   UNL     1       2.381   4.610  18.911  0.00  0.00    +0.000 A 
BRANCH  24  36
ATOM     35  C   UNL     1       1.302   2.758  21.602  0.00  0.00    +0.000 C 
ATOM     36  O   UNL     1       1.036   3.439  20.384  0.00  0.00    +0.000 OA
ENDBRANCH  24  36
ENDBRANCH  23  32
ENDBRANCH  22  23
ENDBRANCH   1  22
TORSDOF 8
ENDMDL
MODEL 8
REMARK VINA RESULT:      -7.4      1.114      1.543
REMARK  Name = 
REMARK  9 active torsions:
REMARK  status: ('A' for Active; 'I' for Inactive)
REMARK    1  A    between atoms: C_1  and  O_2
REMARK    2  A    between atoms: O_2  and  C_3
REMARK    3  A    between atoms: N_11  and  C_12
REMARK    4  A    between atoms: C_12  and  C_13
REMARK    5  A    between atoms: C_13  and  N_14
REMARK    6  A    between atoms: C_17  and  N_18
REMARK    7  A    between atoms: N_18  and  C_19
REMARK    8  A    between atoms: C_19  and  C_20
REMARK    9  A    between atoms: C_30  and  O_31
REMARK                            x       y       z     vdW  Elec       q    Type
REMARK                         _______ _______ _______ _____ _____    ______ ____
ROOT
ATOM      1  N   UNL     1       2.033   3.960  19.611  0.00  0.00    +0.000 NA
ATOM      2  C   UNL     1       1.275   3.249  18.575  0.00  0.00    +0.000 C 
ATOM      3  C   UNL     1       2.109   2.152  17.890  0.00  0.00    +0.000 C 
ATOM      4  C   UNL     1       3.618   2.430  18.048  0.00  0.00    +0.000 C 
ATOM      5  C   UNL     1       3.885   2.322  19.588  0.00  0.00    +0.000 C 
ATOM      6  C   UNL     1       2.833   3.075  20.447  0.00  0.00    +0.000 C 
ENDROOT
BRANCH   4   7
ATOM      7  N   UNL     1       3.893   3.709  17.356  0.00  0.00    +0.000 NA
ATOM      8  H   UNL     1       3.152   3.880  16.673  0.00  0.00    +0.000 HD
BRANCH   7   9
ATOM      9  C   UNL     1       5.164   3.795  16.647  0.00  0.00    +0.000 C 
BRANCH   9  10
ATOM     10  C   UNL     1       6.064   4.848  17.268  0.00  0.00    +0.000 A 
ATOM     11  C   UNL     1       5.943   6.198  16.927  0.00  0.00    +0.000 A 
ATOM     12  C   UNL     1       6.800   7.115  17.530  0.00  0.00    +0.000 A 
ATOM     13  C   UNL     1       7.706   6.670  18.483  0.00  0.00    +0.000 A 
ATOM     14  C   UNL     1       7.782   5.315  18.739  0.00  0.00    +0.000 A 
ATOM     15  N   UNL     1       7.003   4.392  18.138  0.00  0.00    +0.000 NA
ATOM     16  O   UNL     1       8.532   7.515  19.166  0.00  0.00    +0.000 OA
ATOM     17  C   UNL     1       8.941   8.548  18.276  0.00  0.00    +0.000 C 
ATOM     18  C   UNL     1       7.751   9.270  17.650  0.00  0.00    +0.000 C 
ATOM     19  O   UNL     1       6.721   8.418  17.126  0.00  0.00    +0.000 OA
ENDBRANCH   9  10
ENDBRANCH   7   9
ENDBRANCH   4   7
BRANCH   5  20
ATOM     20  O   UNL     1       5.209   2.725  19.933  0.00  0.00    +0.000 OA
ATOM     21  H   UNL     1       5.243   3.677  19.733  0.00  0.00    +0.000 HD
ENDBRANCH   5  20
BRANCH   1  22
ATOM     22  C   UNL     1       1.328   5.035  20.304  0.00  0.00    +0.000 C 
BRANCH  22  23
ATOM     23  C   UNL     1       2.180   6.286  20.512  0.00  0.00    +0.000 C 
BRANCH  23  32
ATOM     24  C   UNL     1      -0.073   9.715  21.543  0.00  0.00    +0.000 A 
ATOM     25  C   UNL     1      -0.310  10.704  20.595  0.00  0.00    +0.000 A 
ATOM     26  C   UNL     1       0.302  10.626  19.336  0.00  0.00    +0.000 A 
ATOM     27  C   UNL     1       1.130   9.550  19.004  0.00  0.00    +0.000 A 
ATOM     28  N   UNL     1       1.710   9.547  17.719  0.00  0.00    +0.000 NA
ATOM     29  C   UNL     1       2.429   8.523  17.403  0.00  0.00    +0.000 A 
ATOM     30  C   UNL     1       2.673   7.332  18.291  0.00  0.00    +0.000 A 
ATOM     31  O   UNL     1       3.340   6.423  17.818  0.00  0.00    +0.000 OA
ATOM     32  N   UNL     1       2.105   7.387  19.557  0.00  0.00    +0.000 N 
ATOM     33  C   UNL     1       1.335   8.532  19.935  0.00  0.00    +0.000 A 
ATOM     34  C   UNL     1       0.755   8.645  21.208  0.00  0.00    +0.000 A 
BRANCH  24  36
ATOM     35  C   UNL     1       0.334   9.282  23.846  0.00  0.00    +0.000 C 
ATOM     36  O   UNL     1      -0.568   9.656  22.814  0.00  0.00    +0.000 OA
ENDBRANCH  24  36
ENDBRANCH  23  32
ENDBRANCH  22  23
ENDBRANCH   1  22
TORSDOF 8
ENDMDL
MODEL 9
REMARK VINA RESULT:      -7.3      4.305      9.618
REMARK  Name = 
REMARK  9 active torsions:
REMARK  status: ('A' for Active; 'I' for Inactive)
REMARK    1  A    between atoms: C_1  and  O_2
REMARK    2  A    between atoms: O_2  and  C_3
REMARK    3  A    between atoms: N_11  and  C_12
REMARK    4  A    between atoms: C_12  and  C_13
REMARK    5  A    between atoms: C_13  and  N_14
REMARK    6  A    between atoms: C_17  and  N_18
REMARK    7  A    between atoms: N_18  and  C_19
REMARK    8  A    between atoms: C_19  and  C_20
REMARK    9  A    between atoms: C_30  and  O_31
REMARK                            x       y       z     vdW  Elec       q    Type
REMARK                         _______ _______ _______ _____ _____    ______ ____
ROOT
ATOM      1  N   UNL     1       0.822   9.772  18.538  0.00  0.00    +0.000 NA
ATOM      2  C   UNL     1       0.989   9.822  19.995  0.00  0.00    +0.000 C 
ATOM      3  C   UNL     1       0.355  11.080  20.614  0.00  0.00    +0.000 C 
ATOM      4  C   UNL     1       0.210  12.197  19.560  0.00  0.00    +0.000 C 
ATOM      5  C   UNL     1      -0.811  11.629  18.516  0.00  0.00    +0.000 C 
ATOM      6  C   UNL     1      -0.511  10.163  18.099  0.00  0.00    +0.000 C 
ENDROOT
BRANCH   4   7
ATOM      7  N   UNL     1       1.578  12.548  19.116  0.00  0.00    +0.000 NA
ATOM      8  H   UNL     1       2.182  11.733  19.235  0.00  0.00    +0.000 HD
BRANCH   7   9
ATOM      9  C   UNL     1       2.211  13.662  19.810  0.00  0.00    +0.000 C 
BRANCH   9  10
ATOM     10  C   UNL     1       1.980  14.968  19.068  0.00  0.00    +0.000 A 
ATOM     11  C   UNL     1       0.718  15.568  19.033  0.00  0.00    +0.000 A 
ATOM     12  C   UNL     1       0.571  16.763  18.334  0.00  0.00    +0.000 A 
ATOM     13  C   UNL     1       1.685  17.344  17.743  0.00  0.00    +0.000 A 
ATOM     14  C   UNL     1       2.888  16.669  17.799  0.00  0.00    +0.000 A 
ATOM     15  N   UNL     1       3.058  15.486  18.423  0.00  0.00    +0.000 NA
ATOM     16  O   UNL     1       1.634  18.546  17.098  0.00  0.00    +0.000 OA
ATOM     17  C   UNL     1       0.387  18.630  16.418  0.00  0.00    +0.000 C 
ATOM     18  C   UNL     1      -0.796  18.420  17.359  0.00  0.00    +0.000 C 
ATOM     19  O   UNL     1      -0.685  17.294  18.242  0.00  0.00    +0.000 OA
ENDBRANCH   9  10
ENDBRANCH   7   9
ENDBRANCH   4   7
BRANCH   5  20
ATOM     20  O   UNL     1      -0.930  12.470  17.370  0.00  0.00    +0.000 OA
ATOM     21  H   UNL     1      -0.132  13.027  17.381  0.00  0.00    +0.000 HD
ENDBRANCH   5  20
BRANCH   1  22
ATOM     22  C   UNL     1       1.410   8.620  17.859  0.00  0.00    +0.000 C 
BRANCH  22  23
ATOM     23  C   UNL     1       2.694   8.116  18.518  0.00  0.00    +0.000 C 
BRANCH  23  32
ATOM     24  C   UNL     1       5.016   5.341  16.328  0.00  0.00    +0.000 A 
ATOM     25  C   UNL     1       4.978   3.989  16.653  0.00  0.00    +0.000 A 
ATOM     26  C   UNL     1       4.269   3.563  17.785  0.00  0.00    +0.000 A 
ATOM     27  C   UNL     1       3.571   4.475  18.583  0.00  0.00    +0.000 A 
ATOM     28  N   UNL     1       2.886   3.968  19.705  0.00  0.00    +0.000 NA
ATOM     29  C   UNL     1       2.200   4.810  20.403  0.00  0.00    +0.000 A 
ATOM     30  C   UNL     1       2.064   6.277  20.096  0.00  0.00    +0.000 A 
ATOM     31  O   UNL     1       1.335   6.926  20.833  0.00  0.00    +0.000 OA
ATOM     32  N   UNL     1       2.776   6.740  18.997  0.00  0.00    +0.000 N 
ATOM     33  C   UNL     1       3.568   5.826  18.235  0.00  0.00    +0.000 A 
ATOM     34  C   UNL     1       4.321   6.246  17.126  0.00  0.00    +0.000 A 
BRANCH  24  36
ATOM     35  C   UNL     1       6.496   5.070  14.487  0.00  0.00    +0.000 C 
ATOM     36  O   UNL     1       5.677   5.917  15.281  0.00  0.00    +0.000 OA
ENDBRANCH  24  36
ENDBRANCH  23  32
ENDBRANCH  22  23
ENDBRANCH   1  22
TORSDOF 8
ENDMDL
