MODEL 1
REMARK VINA RESULT:      -8.8      0.000      0.000
REMARK  Name = 
REMARK  2 active torsions:
REMARK  status: ('A' for Active; 'I' for Inactive)
REMARK    1  A    between atoms: C_3  and  C_4
REMARK    2  A    between atoms: N_21  and  O_22
REMARK                            x       y       z     vdW  Elec       q    Type
REMARK                         _______ _______ _______ _____ _____    ______ ____
ROOT
ATOM      1  O   UNL     1       6.056   5.992  17.982  0.00  0.00    +0.000 OA
ATOM      2  C   UNL     1       6.000   5.448  16.876  0.00  0.00    +0.000 A 
ATOM      3  C   UNL     1       4.889   4.485  16.577  0.00  0.00    +0.000 A 
ATOM      4  C   UNL     1       4.812   3.893  15.371  0.00  0.00    +0.000 A 
ATOM      5  C   UNL     1       5.806   4.163  14.327  0.00  0.00    +0.000 A 
ATOM      6  C   UNL     1       5.704   3.531  13.078  0.00  0.00    +0.000 A 
ATOM      7  C   UNL     1       6.644   3.786  12.079  0.00  0.00    +0.000 A 
ATOM      8  C   UNL     1       7.690   4.670  12.322  0.00  0.00    +0.000 A 
ATOM      9  C   UNL     1       7.800   5.305  13.562  0.00  0.00    +0.000 A 
ATOM     10  C   UNL     1       6.862   5.060  14.576  0.00  0.00    +0.000 A 
ATOM     11  N   UNL     1       6.909   5.669  15.853  0.00  0.00    +0.000 N 
ENDROOT
BRANCH   3  12
ATOM     12  C   UNL     1       3.862   4.212  17.601  0.00  0.00    +0.000 A 
ATOM     13  C   UNL     1       2.562   4.701  17.435  0.00  0.00    +0.000 A 
ATOM     14  C   UNL     1       1.586   4.468  18.406  0.00  0.00    +0.000 A 
ATOM     15  C   UNL     1       1.883   3.724  19.558  0.00  0.00    +0.000 A 
ATOM     16  C   UNL     1       0.901   3.456  20.525  0.00  0.00    +0.000 A 
ATOM     17  C   UNL     1       1.206   2.708  21.662  0.00  0.00    +0.000 A 
ATOM     18  C   UNL     1       2.501   2.232  21.854  0.00  0.00    +0.000 A 
ATOM     19  C   UNL     1       3.489   2.498  20.904  0.00  0.00    +0.000 A 
ATOM     20  C   UNL     1       3.196   3.232  19.742  0.00  0.00    +0.000 A 
ATOM     21  C   UNL     1       4.174   3.488  18.762  0.00  0.00    +0.000 A 
ENDBRANCH   3  12
BRANCH  11  22
ATOM     22  O   UNL     1       7.922   6.602  16.183  0.00  0.00    +0.000 OA
ATOM     23  H   UNL     1       8.680   6.388  15.631  0.00  0.00    +0.000 HD
ENDBRANCH  11  22
TORSDOF 2
ENDMDL
MODEL 2
REMARK VINA RESULT:      -8.7      4.784      8.142
REMARK  Name = 
REMARK  2 active torsions:
REMARK  status: ('A' for Active; 'I' for Inactive)
REMARK    1  A    between atoms: C_3  and  C_4
REMARK    2  A    between atoms: N_21  and  O_22
REMARK                            x       y       z     vdW  Elec       q    Type
REMARK                         _______ _______ _______ _____ _____    ______ ____
ROOT
ATOM      1  O   UNL     1       1.958   9.387  17.221  0.00  0.00    +0.000 OA
ATOM      2  C   UNL     1       1.597   9.294  18.397  0.00  0.00    +0.000 A 
ATOM      3  C   UNL     1       1.895   8.043  19.170  0.00  0.00    +0.000 A 
ATOM      4  C   UNL     1       1.514   7.935  20.457  0.00  0.00    +0.000 A 
ATOM      5  C   UNL     1       0.799   9.024  21.131  0.00  0.00    +0.000 A 
ATOM      6  C   UNL     1       0.412   8.885  22.473  0.00  0.00    +0.000 A 
ATOM      7  C   UNL     1      -0.267   9.916  23.123  0.00  0.00    +0.000 A 
ATOM      8  C   UNL     1      -0.563  11.089  22.436  0.00  0.00    +0.000 A 
ATOM      9  C   UNL     1      -0.181  11.238  21.100  0.00  0.00    +0.000 A 
ATOM     10  C   UNL     1       0.503  10.210  20.434  0.00  0.00    +0.000 A 
ATOM     11  N   UNL     1       0.923  10.291  19.085  0.00  0.00    +0.000 N 
ENDROOT
BRANCH   3  12
ATOM     12  C   UNL     1       2.633   6.942  18.523  0.00  0.00    +0.000 A 
ATOM     13  C   UNL     1       2.255   5.616  18.755  0.00  0.00    +0.000 A 
ATOM     14  C   UNL     1       2.958   4.563  18.165  0.00  0.00    +0.000 A 
ATOM     15  C   UNL     1       4.046   4.814  17.315  0.00  0.00    +0.000 A 
ATOM     16  C   UNL     1       4.740   3.764  16.692  0.00  0.00    +0.000 A 
ATOM     17  C   UNL     1       5.815   4.026  15.842  0.00  0.00    +0.000 A 
ATOM     18  C   UNL     1       6.219   5.340  15.618  0.00  0.00    +0.000 A 
ATOM     19  C   UNL     1       5.543   6.393  16.238  0.00  0.00    +0.000 A 
ATOM     20  C   UNL     1       4.445   6.150  17.081  0.00  0.00    +0.000 A 
ATOM     21  C   UNL     1       3.736   7.201  17.694  0.00  0.00    +0.000 A 
ENDBRANCH   3  12
BRANCH  11  22
ATOM     22  O   UNL     1       0.689  11.456  18.314  0.00  0.00    +0.000 OA
ATOM     23  H   UNL     1       1.400  11.504  17.669  0.00  0.00    +0.000 HD
ENDBRANCH  11  22
TORSDOF 2
ENDMDL
MODEL 3
REMARK VINA RESULT:      -8.5      4.160      5.184
REMARK  Name = 
REMARK  2 active torsions:
REMARK  status: ('A' for Active; 'I' for Inactive)
REMARK    1  A    between atoms: C_3  and  C_4
REMARK    2  A    between atoms: N_21  and  O_22
REMARK                            x       y       z     vdW  Elec       q    Type
REMARK                         _______ _______ _______ _____ _____    ______ ____
ROOT
ATOM      1  O   UNL     1       1.474   4.959  18.748  0.00  0.00    +0.000 OA
ATOM      2  C   UNL     1       2.516   5.230  18.147  0.00  0.00    +0.000 A 
ATOM      3  C   UNL     1       2.972   6.656  18.058  0.00  0.00    +0.000 A 
ATOM      4  C   UNL     1       4.114   6.964  17.415  0.00  0.00    +0.000 A 
ATOM      5  C   UNL     1       4.933   5.924  16.781  0.00  0.00    +0.000 A 
ATOM      6  C   UNL     1       6.118   6.272  16.114  0.00  0.00    +0.000 A 
ATOM      7  C   UNL     1       6.903   5.288  15.512  0.00  0.00    +0.000 A 
ATOM      8  C   UNL     1       6.509   3.956  15.572  0.00  0.00    +0.000 A 
ATOM      9  C   UNL     1       5.331   3.600  16.234  0.00  0.00    +0.000 A 
ATOM     10  C   UNL     1       4.532   4.576  16.845  0.00  0.00    +0.000 A 
ATOM     11  N   UNL     1       3.329   4.289  17.535  0.00  0.00    +0.000 N 
ENDROOT
BRANCH   3  12
ATOM     12  C   UNL     1       2.181   7.720  18.706  0.00  0.00    +0.000 A 
ATOM     13  C   UNL     1       1.683   8.783  17.945  0.00  0.00    +0.000 A 
ATOM     14  C   UNL     1       0.950   9.806  18.549  0.00  0.00    +0.000 A 
ATOM     15  C   UNL     1       0.680   9.781  19.926  0.00  0.00    +0.000 A 
ATOM     16  C   UNL     1      -0.083  10.788  20.537  0.00  0.00    +0.000 A 
ATOM     17  C   UNL     1      -0.350  10.747  21.906  0.00  0.00    +0.000 A 
ATOM     18  C   UNL     1       0.156   9.708  22.682  0.00  0.00    +0.000 A 
ATOM     19  C   UNL     1       0.924   8.704  22.088  0.00  0.00    +0.000 A 
ATOM     20  C   UNL     1       1.187   8.716  20.708  0.00  0.00    +0.000 A 
ATOM     21  C   UNL     1       1.938   7.700  20.088  0.00  0.00    +0.000 A 
ENDBRANCH   3  12
BRANCH  11  22
ATOM     22  O   UNL     1       2.863   2.959  17.670  0.00  0.00    +0.000 OA
ATOM     23  H   UNL     1       3.354   2.432  17.033  0.00  0.00    +0.000 HD
ENDBRANCH  11  22
TORSDOF 2
ENDMDL
MODEL 4
REMARK VINA RESULT:      -8.4      4.631      5.748
REMARK  Name = 
REMARK  2 active torsions:
REMARK  status: ('A' for Active; 'I' for Inactive)
REMARK    1  A    between atoms: C_3  and  C_4
REMARK    2  A    between atoms: N_21  and  O_22
REMARK                            x       y       z     vdW  Elec       q    Type
REMARK                         _______ _______ _______ _____ _____    ______ ____
ROOT
ATOM      1  O   UNL     1       1.694   5.447  20.264  0.00  0.00    +0.000 OA
ATOM      2  C   UNL     1       2.456   5.660  19.318  0.00  0.00    +0.000 A 
ATOM      3  C   UNL     1       2.578   7.046  18.759  0.00  0.00    +0.000 A 
ATOM      4  C   UNL     1       3.414   7.293  17.734  0.00  0.00    +0.000 A 
ATOM      5  C   UNL     1       4.218   6.221  17.134  0.00  0.00    +0.000 A 
ATOM      6  C   UNL     1       5.081   6.505  16.065  0.00  0.00    +0.000 A 
ATOM      7  C   UNL     1       5.850   5.492  15.491  0.00  0.00    +0.000 A 
ATOM      8  C   UNL     1       5.761   4.194  15.982  0.00  0.00    +0.000 A 
ATOM      9  C   UNL     1       4.905   3.901  17.047  0.00  0.00    +0.000 A 
ATOM     10  C   UNL     1       4.126   4.909  17.635  0.00  0.00    +0.000 A 
ATOM     11  N   UNL     1       3.241   4.688  18.717  0.00  0.00    +0.000 N 
ENDROOT
BRANCH   3  12
ATOM     12  C   UNL     1       1.799   8.147  19.358  0.00  0.00    +0.000 A 
ATOM     13  C   UNL     1       1.456   9.262  18.585  0.00  0.00    +0.000 A 
ATOM     14  C   UNL     1       0.737  10.320  19.145  0.00  0.00    +0.000 A 
ATOM     15  C   UNL     1       0.327  10.279  20.486  0.00  0.00    +0.000 A 
ATOM     16  C   UNL     1      -0.423  11.323  21.050  0.00  0.00    +0.000 A 
ATOM     17  C   UNL     1      -0.832  11.268  22.383  0.00  0.00    +0.000 A 
ATOM     18  C   UNL     1      -0.481  10.176  23.172  0.00  0.00    +0.000 A 
ATOM     19  C   UNL     1       0.273   9.135  22.627  0.00  0.00    +0.000 A 
ATOM     20  C   UNL     1       0.676   9.162  21.281  0.00  0.00    +0.000 A 
ATOM     21  C   UNL     1       1.415   8.110  20.707  0.00  0.00    +0.000 A 
ENDBRANCH   3  12
BRANCH  11  22
ATOM     22  O   UNL     1       3.103   3.404  19.299  0.00  0.00    +0.000 OA
ATOM     23  H   UNL     1       2.194   3.340  19.608  0.00  0.00    +0.000 HD
ENDBRANCH  11  22
TORSDOF 2
ENDMDL
MODEL 5
REMARK VINA RESULT:      -8.3      1.784      7.250
REMARK  Name = 
REMARK  2 active torsions:
REMARK  status: ('A' for Active; 'I' for Inactive)
REMARK    1  A    between atoms: C_3  and  C_4
REMARK    2  A    between atoms: N_21  and  O_22
REMARK                            x       y       z     vdW  Elec       q    Type
REMARK                         _______ _______ _______ _____ _____    ______ ____
ROOT
ATOM      1  O   UNL     1       3.838   7.065  17.333  0.00  0.00    +0.000 OA
ATOM      2  C   UNL     1       3.742   6.039  18.011  0.00  0.00    +0.000 A 
ATOM      3  C   UNL     1       4.487   4.804  17.600  0.00  0.00    +0.000 A 
ATOM      4  C   UNL     1       4.398   3.682  18.338  0.00  0.00    +0.000 A 
ATOM      5  C   UNL     1       3.572   3.632  19.549  0.00  0.00    +0.000 A 
ATOM      6  C   UNL     1       3.494   2.449  20.299  0.00  0.00    +0.000 A 
ATOM      7  C   UNL     1       2.713   2.395  21.454  0.00  0.00    +0.000 A 
ATOM      8  C   UNL     1       2.005   3.520  21.863  0.00  0.00    +0.000 A 
ATOM      9  C   UNL     1       2.077   4.704  21.123  0.00  0.00    +0.000 A 
ATOM     10  C   UNL     1       2.858   4.774  19.961  0.00  0.00    +0.000 A 
ATOM     11  N   UNL     1       2.980   5.938  19.164  0.00  0.00    +0.000 N 
ENDROOT
BRANCH   3  12
ATOM     12  C   UNL     1       5.344   4.832  16.399  0.00  0.00    +0.000 A 
ATOM     13  C   UNL     1       6.527   5.579  16.401  0.00  0.00    +0.000 A 
ATOM     14  C   UNL     1       7.336   5.631  15.264  0.00  0.00    +0.000 A 
ATOM     15  C   UNL     1       6.991   4.922  14.104  0.00  0.00    +0.000 A 
ATOM     16  C   UNL     1       7.813   4.942  12.967  0.00  0.00    +0.000 A 
ATOM     17  C   UNL     1       7.463   4.226  11.821  0.00  0.00    +0.000 A 
ATOM     18  C   UNL     1       6.278   3.495  11.794  0.00  0.00    +0.000 A 
ATOM     19  C   UNL     1       5.446   3.474  12.915  0.00  0.00    +0.000 A 
ATOM     20  C   UNL     1       5.792   4.171  14.086  0.00  0.00    +0.000 A 
ATOM     21  C   UNL     1       4.978   4.140  15.234  0.00  0.00    +0.000 A 
ENDBRANCH   3  12
BRANCH  11  22
ATOM     22  O   UNL     1       2.317   7.138  19.517  0.00  0.00    +0.000 OA
ATOM     23  H   UNL     1       2.299   7.168  20.478  0.00  0.00    +0.000 HD
ENDBRANCH  11  22
TORSDOF 2
ENDMDL
MODEL 6
REMARK VINA RESULT:      -8.1      4.180      5.499
REMARK  Name = 
REMARK  2 active torsions:
REMARK  status: ('A' for Active; 'I' for Inactive)
REMARK    1  A    between atoms: C_3  and  C_4
REMARK    2  A    between atoms: N_21  and  O_22
REMARK                            x       y       z     vdW  Elec       q    Type
REMARK                         _______ _______ _______ _____ _____    ______ ____
ROOT
ATOM      1  O   UNL     1       1.495   4.707  18.618  0.00  0.00    +0.000 OA
ATOM      2  C   UNL     1       2.552   5.023  18.066  0.00  0.00    +0.000 A 
ATOM      3  C   UNL     1       3.053   6.433  18.174  0.00  0.00    +0.000 A 
ATOM      4  C   UNL     1       4.211   6.788  17.585  0.00  0.00    +0.000 A 
ATOM      5  C   UNL     1       5.003   5.818  16.821  0.00  0.00    +0.000 A 
ATOM      6  C   UNL     1       6.205   6.214  16.214  0.00  0.00    +0.000 A 
ATOM      7  C   UNL     1       6.965   5.296  15.489  0.00  0.00    +0.000 A 
ATOM      8  C   UNL     1       6.529   3.981  15.365  0.00  0.00    +0.000 A 
ATOM      9  C   UNL     1       5.334   3.577  15.966  0.00  0.00    +0.000 A 
ATOM     10  C   UNL     1       4.559   4.487  16.699  0.00  0.00    +0.000 A 
ATOM     11  N   UNL     1       3.342   4.148  17.337  0.00  0.00    +0.000 N 
ENDROOT
BRANCH   3  12
ATOM     12  C   UNL     1       2.288   7.424  18.955  0.00  0.00    +0.000 A 
ATOM     13  C   UNL     1       2.032   7.197  20.312  0.00  0.00    +0.000 A 
ATOM     14  C   UNL     1       1.291   8.116  21.058  0.00  0.00    +0.000 A 
ATOM     15  C   UNL     1       0.806   9.294  20.469  0.00  0.00    +0.000 A 
ATOM     16  C   UNL     1       0.088  10.240  21.217  0.00  0.00    +0.000 A 
ATOM     17  C   UNL     1      -0.383  11.411  20.623  0.00  0.00    +0.000 A 
ATOM     18  C   UNL     1      -0.155  11.641  19.268  0.00  0.00    +0.000 A 
ATOM     19  C   UNL     1       0.550  10.705  18.510  0.00  0.00    +0.000 A 
ATOM     20  C   UNL     1       1.050   9.530  19.096  0.00  0.00    +0.000 A 
ATOM     21  C   UNL     1       1.785   8.586  18.352  0.00  0.00    +0.000 A 
ENDBRANCH   3  12
BRANCH  11  22
ATOM     22  O   UNL     1       2.832   2.828  17.287  0.00  0.00    +0.000 OA
ATOM     23  H   UNL     1       3.419   2.330  16.709  0.00  0.00    +0.000 HD
ENDBRANCH  11  22
TORSDOF 2
ENDMDL
MODEL 7
REMARK VINA RESULT:      -8.0      4.909      7.850
REMARK  Name = 
REMARK  2 active torsions:
REMARK  status: ('A' for Active; 'I' for Inactive)
REMARK    1  A    between atoms: C_3  and  C_4
REMARK    2  A    between atoms: N_21  and  O_22
REMARK                            x       y       z     vdW  Elec       q    Type
REMARK                         _______ _______ _______ _____ _____    ______ ____
ROOT
ATOM      1  O   UNL     1       2.040   9.273  17.389  0.00  0.00    +0.000 OA
ATOM      2  C   UNL     1       1.597   9.280  18.540  0.00  0.00    +0.000 A 
ATOM      3  C   UNL     1       1.728   8.055  19.395  0.00  0.00    +0.000 A 
ATOM      4  C   UNL     1       1.258   8.054  20.656  0.00  0.00    +0.000 A 
ATOM      5  C   UNL     1       0.603   9.238  21.223  0.00  0.00    +0.000 A 
ATOM      6  C   UNL     1       0.120   9.211  22.540  0.00  0.00    +0.000 A 
ATOM      7  C   UNL     1      -0.502  10.334  23.087  0.00  0.00    +0.000 A 
ATOM      8  C   UNL     1      -0.644  11.487  22.323  0.00  0.00    +0.000 A 
ATOM      9  C   UNL     1      -0.165  11.524  21.011  0.00  0.00    +0.000 A 
ATOM     10  C   UNL     1       0.462  10.404  20.447  0.00  0.00    +0.000 A 
ATOM     11  N   UNL     1       0.974  10.370  19.127  0.00  0.00    +0.000 N 
ENDROOT
BRANCH   3  12
ATOM     12  C   UNL     1       2.403   6.858  18.858  0.00  0.00    +0.000 A 
ATOM     13  C   UNL     1       3.526   6.998  18.036  0.00  0.00    +0.000 A 
ATOM     14  C   UNL     1       4.162   5.874  17.504  0.00  0.00    +0.000 A 
ATOM     15  C   UNL     1       3.701   4.582  17.797  0.00  0.00    +0.000 A 
ATOM     16  C   UNL     1       4.351   3.444  17.294  0.00  0.00    +0.000 A 
ATOM     17  C   UNL     1       3.888   2.164  17.599  0.00  0.00    +0.000 A 
ATOM     18  C   UNL     1       2.758   2.008  18.398  0.00  0.00    +0.000 A 
ATOM     19  C   UNL     1       2.095   3.130  18.898  0.00  0.00    +0.000 A 
ATOM     20  C   UNL     1       2.560   4.427  18.619  0.00  0.00    +0.000 A 
ATOM     21  C   UNL     1       1.920   5.570  19.135  0.00  0.00    +0.000 A 
ENDBRANCH   3  12
BRANCH  11  22
ATOM     22  O   UNL     1       0.897  11.505  18.284  0.00  0.00    +0.000 OA
ATOM     23  H   UNL     1       0.321  11.264  17.553  0.00  0.00    +0.000 HD
ENDBRANCH  11  22
TORSDOF 2
ENDMDL
MODEL 8
REMARK VINA RESULT:      -7.8      0.891      1.461
REMARK  Name = 
REMARK  2 active torsions:
REMARK  status: ('A' for Active; 'I' for Inactive)
REMARK    1  A    between atoms: C_3  and  C_4
REMARK    2  A    between atoms: N_21  and  O_22
REMARK                            x       y       z     vdW  Elec       q    Type
REMARK                         _______ _______ _______ _____ _____    ______ ____
ROOT
ATOM      1  O   UNL     1       6.217   5.581  17.839  0.00  0.00    +0.000 OA
ATOM      2  C   UNL     1       6.196   5.122  16.694  0.00  0.00    +0.000 A 
ATOM      3  C   UNL     1       5.216   4.041  16.345  0.00  0.00    +0.000 A 
ATOM      4  C   UNL     1       5.176   3.540  15.096  0.00  0.00    +0.000 A 
ATOM      5  C   UNL     1       6.086   4.026  14.053  0.00  0.00    +0.000 A 
ATOM      6  C   UNL     1       6.026   3.486  12.759  0.00  0.00    +0.000 A 
ATOM      7  C   UNL     1       6.886   3.945  11.762  0.00  0.00    +0.000 A 
ATOM      8  C   UNL     1       7.809   4.944  12.050  0.00  0.00    +0.000 A 
ATOM      9  C   UNL     1       7.877   5.489  13.335  0.00  0.00    +0.000 A 
ATOM     10  C   UNL     1       7.019   5.039  14.349  0.00  0.00    +0.000 A 
ATOM     11  N   UNL     1       7.028   5.546  15.670  0.00  0.00    +0.000 N 
ENDROOT
BRANCH   3  12
ATOM     12  C   UNL     1       4.274   3.550  17.368  0.00  0.00    +0.000 A 
ATOM     13  C   UNL     1       4.120   2.175  17.574  0.00  0.00    +0.000 A 
ATOM     14  C   UNL     1       3.216   1.696  18.525  0.00  0.00    +0.000 A 
ATOM     15  C   UNL     1       2.459   2.582  19.306  0.00  0.00    +0.000 A 
ATOM     16  C   UNL     1       1.571   2.111  20.286  0.00  0.00    +0.000 A 
ATOM     17  C   UNL     1       0.829   3.002  21.062  0.00  0.00    +0.000 A 
ATOM     18  C   UNL     1       0.953   4.374  20.855  0.00  0.00    +0.000 A 
ATOM     19  C   UNL     1       1.826   4.855  19.877  0.00  0.00    +0.000 A 
ATOM     20  C   UNL     1       2.598   3.974  19.100  0.00  0.00    +0.000 A 
ATOM     21  C   UNL     1       3.501   4.442  18.127  0.00  0.00    +0.000 A 
ENDBRANCH   3  12
BRANCH  11  22
ATOM     22  O   UNL     1       7.916   6.582  16.050  0.00  0.00    +0.000 OA
ATOM     23  H   UNL     1       7.728   7.328  15.472  0.00  0.00    +0.000 HD
ENDBRANCH  11  22
TORSDOF 2
ENDMDL
MODEL 9
REMARK VINA RESULT:      -7.8      2.534      7.320
REMARK  Name = 
REMARK  2 active torsions:
REMARK  status: ('A' for Active; 'I' for Inactive)
REMARK    1  A    between atoms: C_3  and  C_4
REMARK    2  A    between atoms: N_21  and  O_22
REMARK                            x       y       z     vdW  Elec       q    Type
REMARK                         _______ _______ _______ _____ _____    ______ ____
ROOT
ATOM      1  O   UNL     1       4.560   3.245  18.365  0.00  0.00    +0.000 OA
ATOM      2  C   UNL     1       4.023   4.344  18.528  0.00  0.00    +0.000 A 
ATOM      3  C   UNL     1       4.268   5.445  17.539  0.00  0.00    +0.000 A 
ATOM      4  C   UNL     1       3.680   6.645  17.701  0.00  0.00    +0.000 A 
ATOM      5  C   UNL     1       2.798   6.911  18.843  0.00  0.00    +0.000 A 
ATOM      6  C   UNL     1       2.198   8.171  18.989  0.00  0.00    +0.000 A 
ATOM      7  C   UNL     1       1.356   8.431  20.071  0.00  0.00    +0.000 A 
ATOM      8  C   UNL     1       1.109   7.435  21.010  0.00  0.00    +0.000 A 
ATOM      9  C   UNL     1       1.701   6.176  20.872  0.00  0.00    +0.000 A 
ATOM     10  C   UNL     1       2.549   5.900  19.790  0.00  0.00    +0.000 A 
ATOM     11  N   UNL     1       3.179   4.649  19.584  0.00  0.00    +0.000 N 
ENDROOT
BRANCH   3  12
ATOM     12  C   UNL     1       5.132   5.198  16.369  0.00  0.00    +0.000 A 
ATOM     13  C   UNL     1       6.432   5.715  16.339  0.00  0.00    +0.000 A 
ATOM     14  C   UNL     1       7.253   5.506  15.228  0.00  0.00    +0.000 A 
ATOM     15  C   UNL     1       6.800   4.759  14.130  0.00  0.00    +0.000 A 
ATOM     16  C   UNL     1       7.629   4.517  13.023  0.00  0.00    +0.000 A 
ATOM     17  C   UNL     1       7.170   3.766  11.941  0.00  0.00    +0.000 A 
ATOM     18  C   UNL     1       5.871   3.263  11.945  0.00  0.00    +0.000 A 
ATOM     19  C   UNL     1       5.033   3.504  13.036  0.00  0.00    +0.000 A 
ATOM     20  C   UNL     1       5.485   4.240  14.145  0.00  0.00    +0.000 A 
ATOM     21  C   UNL     1       4.662   4.471  15.264  0.00  0.00    +0.000 A 
ENDBRANCH   3  12
BRANCH  11  22
ATOM     22  O   UNL     1       2.966   3.568  20.474  0.00  0.00    +0.000 OA
ATOM     23  H   UNL     1       2.259   3.837  21.067  0.00  0.00    +0.000 HD
ENDBRANCH  11  22
TORSDOF 2
ENDMDL
