MODEL 1
REMARK VINA RESULT:      -6.9      0.000      0.000
REMARK  Name = 
REMARK  2 active torsions:
REMARK  status: ('A' for Active; 'I' for Inactive)
REMARK    1  A    between atoms: N_5  and  C_6
REMARK    2  A    between atoms: C_6  and  C_7
REMARK                            x       y       z     vdW  Elec       q    Type
REMARK                         _______ _______ _______ _____ _____    ______ ____
ROOT
ATOM      1  N   UNL     1       7.485   4.707  16.138  0.00  0.00    +0.000 NA
ATOM      2  C   UNL     1       6.493   5.126  16.856  0.00  0.00    +0.000 A 
ATOM      3  C   UNL     1       6.336   4.785  18.294  0.00  0.00    +0.000 A 
ATOM      4  C   UNL     1       5.227   5.199  18.921  0.00  0.00    +0.000 A 
ATOM      5  N   UNL     1       4.213   5.940  18.323  0.00  0.00    +0.000 N 
ATOM      6  C   UNL     1       4.394   6.327  16.999  0.00  0.00    +0.000 A 
ATOM      7  C   UNL     1       5.448   5.984  16.247  0.00  0.00    +0.000 A 
ATOM      8  H   UNL     1       8.112   4.120  16.693  0.00  0.00    +0.000 HD
ENDROOT
BRANCH   5   9
ATOM      9  C   UNL     1       2.971   6.263  19.051  0.00  0.00    +0.000 C 
BRANCH   9  10
ATOM     10  C   UNL     1       2.321   5.025  19.625  0.00  0.00    +0.000 A 
ATOM     11  C   UNL     1       2.449   4.716  20.990  0.00  0.00    +0.000 A 
ATOM     12  C   UNL     1       1.872   3.554  21.514  0.00  0.00    +0.000 A 
ATOM     13  C   UNL     1       1.166   2.689  20.680  0.00  0.00    +0.000 A 
ATOM     14  C   UNL     1       1.032   2.999  19.333  0.00  0.00    +0.000 A 
ATOM     15  F   UNL     1       0.352   2.170  18.530  0.00  0.00    +0.000 F 
ATOM     16  C   UNL     1       1.598   4.153  18.801  0.00  0.00    +0.000 A 
ENDBRANCH   9  10
ENDBRANCH   5   9
TORSDOF 2
ENDMDL
MODEL 2
REMARK VINA RESULT:      -6.9      1.063      1.629
REMARK  Name = 
REMARK  2 active torsions:
REMARK  status: ('A' for Active; 'I' for Inactive)
REMARK    1  A    between atoms: N_5  and  C_6
REMARK    2  A    between atoms: C_6  and  C_7
REMARK                            x       y       z     vdW  Elec       q    Type
REMARK                         _______ _______ _______ _____ _____    ______ ____
ROOT
ATOM      1  N   UNL     1       7.467   5.016  15.894  0.00  0.00    +0.000 NA
ATOM      2  C   UNL     1       6.533   5.323  16.736  0.00  0.00    +0.000 A 
ATOM      3  C   UNL     1       6.485   4.786  18.121  0.00  0.00    +0.000 A 
ATOM      4  C   UNL     1       5.428   5.099  18.881  0.00  0.00    +0.000 A 
ATOM      5  N   UNL     1       4.372   5.906  18.469  0.00  0.00    +0.000 N 
ATOM      6  C   UNL     1       4.452   6.473  17.200  0.00  0.00    +0.000 A 
ATOM      7  C   UNL     1       5.446   6.246  16.331  0.00  0.00    +0.000 A 
ATOM      8  H   UNL     1       8.135   4.365  16.314  0.00  0.00    +0.000 HD
ENDROOT
BRANCH   5   9
ATOM      9  C   UNL     1       3.190   6.114  19.326  0.00  0.00    +0.000 C 
BRANCH   9  10
ATOM     10  C   UNL     1       2.394   4.841  19.501  0.00  0.00    +0.000 A 
ATOM     11  C   UNL     1       1.819   4.197  18.393  0.00  0.00    +0.000 A 
ATOM     12  C   UNL     1       1.059   3.035  18.559  0.00  0.00    +0.000 A 
ATOM     13  C   UNL     1       0.861   2.509  19.835  0.00  0.00    +0.000 A 
ATOM     14  C   UNL     1       1.435   3.140  20.930  0.00  0.00    +0.000 A 
ATOM     15  F   UNL     1       1.248   2.635  22.157  0.00  0.00    +0.000 F 
ATOM     16  C   UNL     1       2.198   4.294  20.776  0.00  0.00    +0.000 A 
ENDBRANCH   9  10
ENDBRANCH   5   9
TORSDOF 2
ENDMDL
MODEL 3
REMARK VINA RESULT:      -6.9      1.120      2.083
REMARK  Name = 
REMARK  2 active torsions:
REMARK  status: ('A' for Active; 'I' for Inactive)
REMARK    1  A    between atoms: N_5  and  C_6
REMARK    2  A    between atoms: C_6  and  C_7
REMARK                            x       y       z     vdW  Elec       q    Type
REMARK                         _______ _______ _______ _____ _____    ______ ____
ROOT
ATOM      1  N   UNL     1       7.520   5.735  15.990  0.00  0.00    +0.000 NA
ATOM      2  C   UNL     1       6.453   5.767  16.720  0.00  0.00    +0.000 A 
ATOM      3  C   UNL     1       5.253   6.568  16.362  0.00  0.00    +0.000 A 
ATOM      4  C   UNL     1       4.235   6.600  17.232  0.00  0.00    +0.000 A 
ATOM      5  N   UNL     1       4.215   5.923  18.448  0.00  0.00    +0.000 N 
ATOM      6  C   UNL     1       5.304   5.111  18.750  0.00  0.00    +0.000 A 
ATOM      7  C   UNL     1       6.392   4.985  17.979  0.00  0.00    +0.000 A 
ATOM      8  H   UNL     1       7.414   6.330  15.165  0.00  0.00    +0.000 HD
ENDROOT
BRANCH   5   9
ATOM      9  C   UNL     1       3.103   6.097  19.401  0.00  0.00    +0.000 C 
BRANCH   9  10
ATOM     10  C   UNL     1       2.302   4.825  19.565  0.00  0.00    +0.000 A 
ATOM     11  C   UNL     1       1.695   4.213  18.455  0.00  0.00    +0.000 A 
ATOM     12  C   UNL     1       0.930   3.053  18.612  0.00  0.00    +0.000 A 
ATOM     13  C   UNL     1       0.758   2.497  19.879  0.00  0.00    +0.000 A 
ATOM     14  C   UNL     1       1.364   3.098  20.975  0.00  0.00    +0.000 A 
ATOM     15  F   UNL     1       1.203   2.563  22.193  0.00  0.00    +0.000 F 
ATOM     16  C   UNL     1       2.132   4.249  20.831  0.00  0.00    +0.000 A 
ENDBRANCH   9  10
ENDBRANCH   5   9
TORSDOF 2
ENDMDL
MODEL 4
REMARK VINA RESULT:      -6.8      2.669      5.711
REMARK  Name = 
REMARK  2 active torsions:
REMARK  status: ('A' for Active; 'I' for Inactive)
REMARK    1  A    between atoms: N_5  and  C_6
REMARK    2  A    between atoms: C_6  and  C_7
REMARK                            x       y       z     vdW  Elec       q    Type
REMARK                         _______ _______ _______ _____ _____    ______ ____
ROOT
ATOM      1  N   UNL     1       0.582   3.130  20.595  0.00  0.00    +0.000 NA
ATOM      2  C   UNL     1       1.422   3.881  19.958  0.00  0.00    +0.000 A 
ATOM      3  C   UNL     1       2.151   5.005  20.603  0.00  0.00    +0.000 A 
ATOM      4  C   UNL     1       2.931   5.773  19.832  0.00  0.00    +0.000 A 
ATOM      5  N   UNL     1       3.119   5.586  18.466  0.00  0.00    +0.000 N 
ATOM      6  C   UNL     1       2.500   4.489  17.876  0.00  0.00    +0.000 A 
ATOM      7  C   UNL     1       1.690   3.639  18.520  0.00  0.00    +0.000 A 
ATOM      8  H   UNL     1       0.497   3.427  21.570  0.00  0.00    +0.000 HD
ENDROOT
BRANCH   5   9
ATOM      9  C   UNL     1       3.907   6.542  17.665  0.00  0.00    +0.000 C 
BRANCH   9  10
ATOM     10  C   UNL     1       5.067   5.866  16.970  0.00  0.00    +0.000 A 
ATOM     11  C   UNL     1       5.086   5.734  15.571  0.00  0.00    +0.000 A 
ATOM     12  C   UNL     1       6.145   5.083  14.931  0.00  0.00    +0.000 A 
ATOM     13  C   UNL     1       7.193   4.553  15.682  0.00  0.00    +0.000 A 
ATOM     14  C   UNL     1       7.179   4.690  17.064  0.00  0.00    +0.000 A 
ATOM     15  F   UNL     1       8.187   4.184  17.787  0.00  0.00    +0.000 F 
ATOM     16  C   UNL     1       6.134   5.340  17.711  0.00  0.00    +0.000 A 
ENDBRANCH   9  10
ENDBRANCH   5   9
TORSDOF 2
ENDMDL
MODEL 5
REMARK VINA RESULT:      -6.8      1.537      2.027
REMARK  Name = 
REMARK  2 active torsions:
REMARK  status: ('A' for Active; 'I' for Inactive)
REMARK    1  A    between atoms: N_5  and  C_6
REMARK    2  A    between atoms: C_6  and  C_7
REMARK                            x       y       z     vdW  Elec       q    Type
REMARK                         _______ _______ _______ _____ _____    ______ ____
ROOT
ATOM      1  N   UNL     1       7.900   4.461  16.543  0.00  0.00    +0.000 NA
ATOM      2  C   UNL     1       6.683   4.823  16.794  0.00  0.00    +0.000 A 
ATOM      3  C   UNL     1       6.346   6.057  17.551  0.00  0.00    +0.000 A 
ATOM      4  C   UNL     1       5.058   6.291  17.830  0.00  0.00    +0.000 A 
ATOM      5  N   UNL     1       4.005   5.466  17.449  0.00  0.00    +0.000 N 
ATOM      6  C   UNL     1       4.310   4.351  16.674  0.00  0.00    +0.000 A 
ATOM      7  C   UNL     1       5.550   3.989  16.322  0.00  0.00    +0.000 A 
ATOM      8  H   UNL     1       8.566   5.128  16.941  0.00  0.00    +0.000 HD
ENDROOT
BRANCH   5   9
ATOM      9  C   UNL     1       2.623   5.735  17.890  0.00  0.00    +0.000 C 
BRANCH   9  10
ATOM     10  C   UNL     1       2.122   4.672  18.841  0.00  0.00    +0.000 A 
ATOM     11  C   UNL     1       1.259   3.659  18.392  0.00  0.00    +0.000 A 
ATOM     12  C   UNL     1       0.772   2.693  19.278  0.00  0.00    +0.000 A 
ATOM     13  C   UNL     1       1.137   2.733  20.622  0.00  0.00    +0.000 A 
ATOM     14  C   UNL     1       1.996   3.730  21.066  0.00  0.00    +0.000 A 
ATOM     15  F   UNL     1       2.352   3.769  22.357  0.00  0.00    +0.000 F 
ATOM     16  C   UNL     1       2.491   4.693  20.193  0.00  0.00    +0.000 A 
ENDBRANCH   9  10
ENDBRANCH   5   9
TORSDOF 2
ENDMDL
MODEL 6
REMARK VINA RESULT:      -6.8      0.456      1.325
REMARK  Name = 
REMARK  2 active torsions:
REMARK  status: ('A' for Active; 'I' for Inactive)
REMARK    1  A    between atoms: N_5  and  C_6
REMARK    2  A    between atoms: C_6  and  C_7
REMARK                            x       y       z     vdW  Elec       q    Type
REMARK                         _______ _______ _______ _____ _____    ______ ____
ROOT
ATOM      1  N   UNL     1       7.397   5.717  16.000  0.00  0.00    +0.000 NA
ATOM      2  C   UNL     1       6.322   5.803  16.717  0.00  0.00    +0.000 A 
ATOM      3  C   UNL     1       5.188   6.698  16.368  0.00  0.00    +0.000 A 
ATOM      4  C   UNL     1       4.162   6.775  17.224  0.00  0.00    +0.000 A 
ATOM      5  N   UNL     1       4.074   6.064  18.417  0.00  0.00    +0.000 N 
ATOM      6  C   UNL     1       5.098   5.168  18.708  0.00  0.00    +0.000 A 
ATOM      7  C   UNL     1       6.186   4.988  17.948  0.00  0.00    +0.000 A 
ATOM      8  H   UNL     1       7.346   6.344  15.194  0.00  0.00    +0.000 HD
ENDROOT
BRANCH   5   9
ATOM      9  C   UNL     1       2.962   6.287  19.361  0.00  0.00    +0.000 C 
BRANCH   9  10
ATOM     10  C   UNL     1       2.307   4.988  19.771  0.00  0.00    +0.000 A 
ATOM     11  C   UNL     1       2.370   4.542  21.101  0.00  0.00    +0.000 A 
ATOM     12  C   UNL     1       1.789   3.325  21.474  0.00  0.00    +0.000 A 
ATOM     13  C   UNL     1       1.145   2.540  20.520  0.00  0.00    +0.000 A 
ATOM     14  C   UNL     1       1.075   2.983  19.205  0.00  0.00    +0.000 A 
ATOM     15  F   UNL     1       0.454   2.231  18.287  0.00  0.00    +0.000 F 
ATOM     16  C   UNL     1       1.645   4.194  18.824  0.00  0.00    +0.000 A 
ENDBRANCH   9  10
ENDBRANCH   5   9
TORSDOF 2
ENDMDL
MODEL 7
REMARK VINA RESULT:      -6.7      2.593      5.517
REMARK  Name = 
REMARK  2 active torsions:
REMARK  status: ('A' for Active; 'I' for Inactive)
REMARK    1  A    between atoms: N_5  and  C_6
REMARK    2  A    between atoms: C_6  and  C_7
REMARK                            x       y       z     vdW  Elec       q    Type
REMARK                         _______ _______ _______ _____ _____    ______ ____
ROOT
ATOM      1  N   UNL     1       0.670   2.886  20.771  0.00  0.00    +0.000 NA
ATOM      2  C   UNL     1       1.292   3.738  20.021  0.00  0.00    +0.000 A 
ATOM      3  C   UNL     1       1.315   3.642  18.538  0.00  0.00    +0.000 A 
ATOM      4  C   UNL     1       2.061   4.525  17.863  0.00  0.00    +0.000 A 
ATOM      5  N   UNL     1       2.809   5.540  18.452  0.00  0.00    +0.000 N 
ATOM      6  C   UNL     1       2.728   5.679  19.834  0.00  0.00    +0.000 A 
ATOM      7  C   UNL     1       2.027   4.869  20.637  0.00  0.00    +0.000 A 
ATOM      8  H   UNL     1       0.223   2.161  20.204  0.00  0.00    +0.000 HD
ENDROOT
BRANCH   5   9
ATOM      9  C   UNL     1       3.693   6.404  17.647  0.00  0.00    +0.000 C 
BRANCH   9  10
ATOM     10  C   UNL     1       5.019   5.736  17.360  0.00  0.00    +0.000 A 
ATOM     11  C   UNL     1       6.058   5.770  18.305  0.00  0.00    +0.000 A 
ATOM     12  C   UNL     1       7.294   5.177  18.026  0.00  0.00    +0.000 A 
ATOM     13  C   UNL     1       7.505   4.550  16.799  0.00  0.00    +0.000 A 
ATOM     14  C   UNL     1       6.476   4.510  15.868  0.00  0.00    +0.000 A 
ATOM     15  F   UNL     1       6.676   3.905  14.689  0.00  0.00    +0.000 F 
ATOM     16  C   UNL     1       5.241   5.091  16.135  0.00  0.00    +0.000 A 
ENDBRANCH   9  10
ENDBRANCH   5   9
TORSDOF 2
ENDMDL
MODEL 8
REMARK VINA RESULT:      -6.7      2.759      5.717
REMARK  Name = 
REMARK  2 active torsions:
REMARK  status: ('A' for Active; 'I' for Inactive)
REMARK    1  A    between atoms: N_5  and  C_6
REMARK    2  A    between atoms: C_6  and  C_7
REMARK                            x       y       z     vdW  Elec       q    Type
REMARK                         _______ _______ _______ _____ _____    ______ ____
ROOT
ATOM      1  N   UNL     1       0.664   2.888  20.745  0.00  0.00    +0.000 NA
ATOM      2  C   UNL     1       1.279   3.759  20.011  0.00  0.00    +0.000 A 
ATOM      3  C   UNL     1       1.297   3.696  18.526  0.00  0.00    +0.000 A 
ATOM      4  C   UNL     1       2.035   4.598  17.868  0.00  0.00    +0.000 A 
ATOM      5  N   UNL     1       2.780   5.603  18.476  0.00  0.00    +0.000 N 
ATOM      6  C   UNL     1       2.704   5.712  19.861  0.00  0.00    +0.000 A 
ATOM      7  C   UNL     1       2.010   4.881  20.649  0.00  0.00    +0.000 A 
ATOM      8  H   UNL     1       0.219   2.173  20.164  0.00  0.00    +0.000 HD
ENDROOT
BRANCH   5   9
ATOM      9  C   UNL     1       3.656   6.490  17.686  0.00  0.00    +0.000 C 
BRANCH   9  10
ATOM     10  C   UNL     1       4.978   5.830  17.367  0.00  0.00    +0.000 A 
ATOM     11  C   UNL     1       5.178   5.186  16.134  0.00  0.00    +0.000 A 
ATOM     12  C   UNL     1       6.391   4.550  15.851  0.00  0.00    +0.000 A 
ATOM     13  C   UNL     1       7.414   4.547  16.798  0.00  0.00    +0.000 A 
ATOM     14  C   UNL     1       7.220   5.190  18.013  0.00  0.00    +0.000 A 
ATOM     15  F   UNL     1       8.203   5.190  18.924  0.00  0.00    +0.000 F 
ATOM     16  C   UNL     1       6.020   5.830  18.305  0.00  0.00    +0.000 A 
ENDBRANCH   9  10
ENDBRANCH   5   9
TORSDOF 2
ENDMDL
MODEL 9
REMARK VINA RESULT:      -6.7      1.385      2.275
REMARK  Name = 
REMARK  2 active torsions:
REMARK  status: ('A' for Active; 'I' for Inactive)
REMARK    1  A    between atoms: N_5  and  C_6
REMARK    2  A    between atoms: C_6  and  C_7
REMARK                            x       y       z     vdW  Elec       q    Type
REMARK                         _______ _______ _______ _____ _____    ______ ____
ROOT
ATOM      1  N   UNL     1       7.568   5.390  14.665  0.00  0.00    +0.000 NA
ATOM      2  C   UNL     1       6.775   5.302  15.683  0.00  0.00    +0.000 A 
ATOM      3  C   UNL     1       5.392   5.847  15.680  0.00  0.00    +0.000 A 
ATOM      4  C   UNL     1       4.687   5.779  16.816  0.00  0.00    +0.000 A 
ATOM      5  N   UNL     1       5.153   5.220  18.002  0.00  0.00    +0.000 N 
ATOM      6  C   UNL     1       6.418   4.640  17.986  0.00  0.00    +0.000 A 
ATOM      7  C   UNL     1       7.236   4.636  16.925  0.00  0.00    +0.000 A 
ATOM      8  H   UNL     1       7.114   5.883  13.892  0.00  0.00    +0.000 HD
ENDROOT
BRANCH   5   9
ATOM      9  C   UNL     1       4.356   5.282  19.242  0.00  0.00    +0.000 C 
BRANCH   9  10
ATOM     10  C   UNL     1       3.345   4.161  19.314  0.00  0.00    +0.000 A 
ATOM     11  C   UNL     1       3.158   3.293  18.225  0.00  0.00    +0.000 A 
ATOM     12  C   UNL     1       2.201   2.274  18.282  0.00  0.00    +0.000 A 
ATOM     13  C   UNL     1       1.419   2.116  19.425  0.00  0.00    +0.000 A 
ATOM     14  C   UNL     1       1.609   2.969  20.505  0.00  0.00    +0.000 A 
ATOM     15  F   UNL     1       0.860   2.817  21.605  0.00  0.00    +0.000 F 
ATOM     16  C   UNL     1       2.560   3.982  20.462  0.00  0.00    +0.000 A 
ENDBRANCH   9  10
ENDBRANCH   5   9
TORSDOF 2
ENDMDL
