MODEL 1
REMARK VINA RESULT:      -8.0      0.000      0.000
REMARK  Name = 
REMARK  10 active torsions:
REMARK  status: ('A' for Active; 'I' for Inactive)
REMARK    1  A    between atoms: C_1  and  C_2
REMARK    2  A    between atoms: C_2  and  C_3
REMARK    3  A    between atoms: C_3  and  C_4
REMARK    4  A    between atoms: C_4  and  N_5
REMARK    5  A    between atoms: N_5  and  C_14
REMARK    6  A    between atoms: C_6  and  C_8
REMARK    7  A    between atoms: C_8  and  C_9
REMARK    8  A    between atoms: C_15  and  N_16
REMARK    9  A    between atoms: N_17  and  C_18
REMARK   10  A    between atoms: C_18  and  C_19
REMARK                            x       y       z     vdW  Elec       q    Type
REMARK                         _______ _______ _______ _____ _____    ______ ____
ROOT
ATOM      1  C   UNL     1       5.366   6.332  17.597  0.00  0.00    +0.000 A 
ATOM      2  C   UNL     1       4.580   6.073  18.676  0.00  0.00    +0.000 A 
ATOM      3  N   UNL     1       3.273   6.567  18.707  0.00  0.00    +0.000 N 
ATOM      4  C   UNL     1       2.777   7.449  17.757  0.00  0.00    +0.000 A 
ATOM      5  O   UNL     1       1.644   7.919  17.762  0.00  0.00    +0.000 OA
ATOM      6  N   UNL     1       3.619   7.769  16.739  0.00  0.00    +0.000 N 
ATOM      7  C   UNL     1       4.777   7.115  16.470  0.00  0.00    +0.000 A 
ATOM      8  O   UNL     1       5.300   7.167  15.359  0.00  0.00    +0.000 OA
ATOM      9  H   UNL     1       3.212   8.308  15.990  0.00  0.00    +0.000 HD
ENDROOT
BRANCH   1  10
ATOM     10  N   UNL     1       6.680   5.865  17.466  0.00  0.00    +0.000 N 
ATOM     11  C   UNL     1       7.009   4.688  16.763  0.00  0.00    +0.000 C 
ATOM     12  O   UNL     1       8.167   4.268  16.708  0.00  0.00    +0.000 OA
BRANCH  10  13
ATOM     13  C   UNL     1       7.755   6.590  18.169  0.00  0.00    +0.000 C 
BRANCH  13  14
ATOM     14  C   UNL     1       7.943   8.061  17.774  0.00  0.00    +0.000 C 
BRANCH  14  16
ATOM     15  C   UNL     1       8.908  10.324  18.254  0.00  0.00    +0.000 C 
ATOM     16  C   UNL     1       8.714   8.908  18.783  0.00  0.00    +0.000 C 
ENDBRANCH  14  16
ENDBRANCH  13  14
ENDBRANCH  10  13
BRANCH  11  17
ATOM     17  C   UNL     1       5.882   4.006  15.972  0.00  0.00    +0.000 C 
BRANCH  17  18
ATOM     18  C   UNL     1       6.224   3.592  14.535  0.00  0.00    +0.000 C 
ATOM     19  C   UNL     1       4.976   3.589  13.645  0.00  0.00    +0.000 C 
ATOM     20  C   UNL     1       5.533   3.555  12.231  0.00  0.00    +0.000 C 
ATOM     21  C   UNL     1       6.851   4.322  12.298  0.00  0.00    +0.000 C 
ATOM     22  C   UNL     1       7.152   4.548  13.782  0.00  0.00    +0.000 C 
ENDBRANCH  17  18
ENDBRANCH  11  17
ENDBRANCH   1  10
BRANCH   2  23
ATOM     23  N   UNL     1       5.073   5.396  19.784  0.00  0.00    +0.000 N 
ATOM     24  H   UNL     1       4.551   5.581  20.636  0.00  0.00    +0.000 HD
ATOM     25  H   UNL     1       6.068   5.563  19.919  0.00  0.00    +0.000 HD
ENDBRANCH   2  23
BRANCH   3  26
ATOM     26  C   UNL     1       2.360   6.210  19.804  0.00  0.00    +0.000 C 
BRANCH  26  27
ATOM     27  C   UNL     1       1.840   4.783  19.742  0.00  0.00    +0.000 A 
ATOM     28  C   UNL     1       1.564   4.197  18.496  0.00  0.00    +0.000 A 
ATOM     29  C   UNL     1       1.219   2.845  18.402  0.00  0.00    +0.000 A 
ATOM     30  C   UNL     1       1.145   2.060  19.550  0.00  0.00    +0.000 A 
ATOM     31  C   UNL     1       1.401   2.628  20.794  0.00  0.00    +0.000 A 
ATOM     32  C   UNL     1       1.747   3.978  20.888  0.00  0.00    +0.000 A 
ENDBRANCH  26  27
ENDBRANCH   3  26
TORSDOF 9
ENDMDL
MODEL 2
REMARK VINA RESULT:      -7.2      1.949      3.373
REMARK  Name = 
REMARK  10 active torsions:
REMARK  status: ('A' for Active; 'I' for Inactive)
REMARK    1  A    between atoms: C_1  and  C_2
REMARK    2  A    between atoms: C_2  and  C_3
REMARK    3  A    between atoms: C_3  and  C_4
REMARK    4  A    between atoms: C_4  and  N_5
REMARK    5  A    between atoms: N_5  and  C_14
REMARK    6  A    between atoms: C_6  and  C_8
REMARK    7  A    between atoms: C_8  and  C_9
REMARK    8  A    between atoms: C_15  and  N_16
REMARK    9  A    between atoms: N_17  and  C_18
REMARK   10  A    between atoms: C_18  and  C_19
REMARK                            x       y       z     vdW  Elec       q    Type
REMARK                         _______ _______ _______ _____ _____    ______ ____
ROOT
ATOM      1  C   UNL     1       4.997   4.991  18.196  0.00  0.00    +0.000 A 
ATOM      2  C   UNL     1       4.148   5.991  17.841  0.00  0.00    +0.000 A 
ATOM      3  N   UNL     1       2.813   5.936  18.250  0.00  0.00    +0.000 N 
ATOM      4  C   UNL     1       2.261   4.826  18.875  0.00  0.00    +0.000 A 
ATOM      5  O   UNL     1       1.090   4.732  19.230  0.00  0.00    +0.000 OA
ATOM      6  N   UNL     1       3.111   3.797  19.130  0.00  0.00    +0.000 N 
ATOM      7  C   UNL     1       4.462   3.882  19.042  0.00  0.00    +0.000 A 
ATOM      8  O   UNL     1       5.195   3.091  19.632  0.00  0.00    +0.000 OA
ATOM      9  H   UNL     1       2.734   3.050  19.693  0.00  0.00    +0.000 HD
ENDROOT
BRANCH   1  10
ATOM     10  N   UNL     1       6.354   4.967  17.850  0.00  0.00    +0.000 N 
ATOM     11  C   UNL     1       6.820   4.505  16.603  0.00  0.00    +0.000 C 
ATOM     12  O   UNL     1       8.024   4.442  16.343  0.00  0.00    +0.000 OA
BRANCH  10  13
ATOM     13  C   UNL     1       7.345   5.360  18.871  0.00  0.00    +0.000 C 
BRANCH  13  14
ATOM     14  C   UNL     1       7.637   6.861  18.980  0.00  0.00    +0.000 C 
BRANCH  14  16
ATOM     15  C   UNL     1       8.214   9.035  17.875  0.00  0.00    +0.000 C 
ATOM     16  C   UNL     1       7.795   7.588  17.647  0.00  0.00    +0.000 C 
ENDBRANCH  14  16
ENDBRANCH  13  14
ENDBRANCH  10  13
BRANCH  11  17
ATOM     17  C   UNL     1       5.762   4.186  15.534  0.00  0.00    +0.000 C 
BRANCH  17  18
ATOM     18  C   UNL     1       6.298   3.695  14.183  0.00  0.00    +0.000 C 
ATOM     19  C   UNL     1       5.158   3.455  13.187  0.00  0.00    +0.000 C 
ATOM     20  C   UNL     1       5.859   3.368  11.841  0.00  0.00    +0.000 C 
ATOM     21  C   UNL     1       7.063   4.300  11.952  0.00  0.00    +0.000 C 
ATOM     22  C   UNL     1       7.179   4.692  13.427  0.00  0.00    +0.000 C 
ENDBRANCH  17  18
ENDBRANCH  11  17
ENDBRANCH   1  10
BRANCH   2  23
ATOM     23  N   UNL     1       4.558   7.029  17.013  0.00  0.00    +0.000 N 
ATOM     24  H   UNL     1       5.557   7.211  17.058  0.00  0.00    +0.000 HD
ATOM     25  H   UNL     1       4.021   7.878  17.175  0.00  0.00    +0.000 HD
ENDBRANCH   2  23
BRANCH   3  26
ATOM     26  C   UNL     1       1.897   7.055  17.982  0.00  0.00    +0.000 C 
BRANCH  26  27
ATOM     27  C   UNL     1       1.708   8.001  19.157  0.00  0.00    +0.000 A 
ATOM     28  C   UNL     1       1.329   9.333  18.924  0.00  0.00    +0.000 A 
ATOM     29  C   UNL     1       1.013  10.183  19.989  0.00  0.00    +0.000 A 
ATOM     30  C   UNL     1       1.071   9.716  21.299  0.00  0.00    +0.000 A 
ATOM     31  C   UNL     1       1.459   8.403  21.549  0.00  0.00    +0.000 A 
ATOM     32  C   UNL     1       1.773   7.553  20.487  0.00  0.00    +0.000 A 
ENDBRANCH  26  27
ENDBRANCH   3  26
TORSDOF 9
ENDMDL
MODEL 3
REMARK VINA RESULT:      -7.0      0.723      4.211
REMARK  Name = 
REMARK  10 active torsions:
REMARK  status: ('A' for Active; 'I' for Inactive)
REMARK    1  A    between atoms: C_1  and  C_2
REMARK    2  A    between atoms: C_2  and  C_3
REMARK    3  A    between atoms: C_3  and  C_4
REMARK    4  A    between atoms: C_4  and  N_5
REMARK    5  A    between atoms: N_5  and  C_14
REMARK    6  A    between atoms: C_6  and  C_8
REMARK    7  A    between atoms: C_8  and  C_9
REMARK    8  A    between atoms: C_15  and  N_16
REMARK    9  A    between atoms: N_17  and  C_18
REMARK   10  A    between atoms: C_18  and  C_19
REMARK                            x       y       z     vdW  Elec       q    Type
REMARK                         _______ _______ _______ _____ _____    ______ ____
ROOT
ATOM      1  C   UNL     1       5.016   5.704  17.382  0.00  0.00    +0.000 A 
ATOM      2  C   UNL     1       4.286   5.530  18.516  0.00  0.00    +0.000 A 
ATOM      3  N   UNL     1       3.219   6.392  18.784  0.00  0.00    +0.000 N 
ATOM      4  C   UNL     1       2.957   7.526  18.027  0.00  0.00    +0.000 A 
ATOM      5  O   UNL     1       2.043   8.316  18.244  0.00  0.00    +0.000 OA
ATOM      6  N   UNL     1       3.764   7.730  16.954  0.00  0.00    +0.000 N 
ATOM      7  C   UNL     1       4.618   6.803  16.451  0.00  0.00    +0.000 A 
ATOM      8  O   UNL     1       5.030   6.869  15.295  0.00  0.00    +0.000 OA
ATOM      9  H   UNL     1       3.492   8.482  16.340  0.00  0.00    +0.000 HD
ENDROOT
BRANCH   1  10
ATOM     10  N   UNL     1       6.089   4.881  17.017  0.00  0.00    +0.000 N 
ATOM     11  C   UNL     1       7.401   5.074  17.495  0.00  0.00    +0.000 C 
ATOM     12  O   UNL     1       8.339   4.371  17.115  0.00  0.00    +0.000 OA
BRANCH  10  13
ATOM     13  C   UNL     1       5.851   3.819  16.020  0.00  0.00    +0.000 C 
BRANCH  13  14
ATOM     14  C   UNL     1       6.496   4.032  14.645  0.00  0.00    +0.000 C 
BRANCH  14  16
ATOM     15  C   UNL     1       6.437   3.545  12.187  0.00  0.00    +0.000 C 
ATOM     16  C   UNL     1       5.602   3.698  13.453  0.00  0.00    +0.000 C 
ENDBRANCH  14  16
ENDBRANCH  13  14
ENDBRANCH  10  13
BRANCH  11  17
ATOM     17  C   UNL     1       7.597   6.130  18.594  0.00  0.00    +0.000 C 
BRANCH  17  18
ATOM     18  C   UNL     1       8.292   7.428  18.163  0.00  0.00    +0.000 C 
ATOM     19  C   UNL     1       7.302   8.395  17.502  0.00  0.00    +0.000 C 
ATOM     20  C   UNL     1       8.034   9.728  17.505  0.00  0.00    +0.000 C 
ATOM     21  C   UNL     1       8.902   9.709  18.760  0.00  0.00    +0.000 C 
ATOM     22  C   UNL     1       8.856   8.279  19.303  0.00  0.00    +0.000 C 
ENDBRANCH  17  18
ENDBRANCH  11  17
ENDBRANCH   1  10
BRANCH   2  23
ATOM     23  N   UNL     1       4.626   4.563  19.454  0.00  0.00    +0.000 N 
ATOM     24  H   UNL     1       4.234   4.738  20.375  0.00  0.00    +0.000 HD
ATOM     25  H   UNL     1       5.633   4.421  19.504  0.00  0.00    +0.000 HD
ENDBRANCH   2  23
BRANCH   3  26
ATOM     26  C   UNL     1       2.340   6.162  19.941  0.00  0.00    +0.000 C 
BRANCH  26  27
ATOM     27  C   UNL     1       1.910   4.715  20.119  0.00  0.00    +0.000 A 
ATOM     28  C   UNL     1       2.076   4.090  21.366  0.00  0.00    +0.000 A 
ATOM     29  C   UNL     1       1.563   2.809  21.597  0.00  0.00    +0.000 A 
ATOM     30  C   UNL     1       0.879   2.136  20.588  0.00  0.00    +0.000 A 
ATOM     31  C   UNL     1       0.719   2.735  19.342  0.00  0.00    +0.000 A 
ATOM     32  C   UNL     1       1.229   4.015  19.111  0.00  0.00    +0.000 A 
ENDBRANCH  26  27
ENDBRANCH   3  26
TORSDOF 9
ENDMDL
MODEL 4
REMARK VINA RESULT:      -6.9      4.839      8.068
REMARK  Name = 
REMARK  10 active torsions:
REMARK  status: ('A' for Active; 'I' for Inactive)
REMARK    1  A    between atoms: C_1  and  C_2
REMARK    2  A    between atoms: C_2  and  C_3
REMARK    3  A    between atoms: C_3  and  C_4
REMARK    4  A    between atoms: C_4  and  N_5
REMARK    5  A    between atoms: N_5  and  C_14
REMARK    6  A    between atoms: C_6  and  C_8
REMARK    7  A    between atoms: C_8  and  C_9
REMARK    8  A    between atoms: C_15  and  N_16
REMARK    9  A    between atoms: N_17  and  C_18
REMARK   10  A    between atoms: C_18  and  C_19
REMARK                            x       y       z     vdW  Elec       q    Type
REMARK                         _______ _______ _______ _____ _____    ______ ____
ROOT
ATOM      1  C   UNL     1       1.064  10.731  19.780  0.00  0.00    +0.000 A 
ATOM      2  C   UNL     1       1.385   9.741  18.906  0.00  0.00    +0.000 A 
ATOM      3  N   UNL     1       1.497   8.427  19.368  0.00  0.00    +0.000 N 
ATOM      4  C   UNL     1       1.450   8.095  20.715  0.00  0.00    +0.000 A 
ATOM      5  O   UNL     1       1.564   6.956  21.159  0.00  0.00    +0.000 OA
ATOM      6  N   UNL     1       1.225   9.119  21.578  0.00  0.00    +0.000 N 
ATOM      7  C   UNL     1       0.812  10.357  21.204  0.00  0.00    +0.000 A 
ATOM      8  O   UNL     1       0.261  11.116  21.998  0.00  0.00    +0.000 OA
ATOM      9  H   UNL     1       1.068   8.855  22.538  0.00  0.00    +0.000 HD
ENDROOT
BRANCH   1  10
ATOM     10  N   UNL     1       0.910  12.073  19.409  0.00  0.00    +0.000 N 
ATOM     11  C   UNL     1      -0.276  12.582  18.842  0.00  0.00    +0.000 C 
ATOM     12  O   UNL     1      -0.367  13.754  18.473  0.00  0.00    +0.000 OA
BRANCH  10  13
ATOM     13  C   UNL     1       2.073  12.973  19.537  0.00  0.00    +0.000 C 
BRANCH  13  14
ATOM     14  C   UNL     1       2.865  13.234  18.250  0.00  0.00    +0.000 C 
BRANCH  14  16
ATOM     15  C   UNL     1       3.447  15.555  17.504  0.00  0.00    +0.000 C 
ATOM     16  C   UNL     1       3.892  14.361  18.340  0.00  0.00    +0.000 C 
ENDBRANCH  14  16
ENDBRANCH  13  14
ENDBRANCH  10  13
BRANCH  11  17
ATOM     17  C   UNL     1      -1.492  11.643  18.804  0.00  0.00    +0.000 C 
BRANCH  17  18
ATOM     18  C   UNL     1      -2.116  11.408  17.422  0.00  0.00    +0.000 C 
ATOM     19  C   UNL     1      -1.918   9.959  16.962  0.00  0.00    +0.000 C 
ATOM     20  C   UNL     1      -2.903   9.801  15.814  0.00  0.00    +0.000 C 
ATOM     21  C   UNL     1      -4.080  10.707  16.164  0.00  0.00    +0.000 C 
ATOM     22  C   UNL     1      -3.637  11.560  17.356  0.00  0.00    +0.000 C 
ENDBRANCH  17  18
ENDBRANCH  11  17
ENDBRANCH   1  10
BRANCH   2  23
ATOM     23  N   UNL     1       1.684  10.018  17.577  0.00  0.00    +0.000 N 
ATOM     24  H   UNL     1       0.940   9.763  16.934  0.00  0.00    +0.000 HD
ATOM     25  H   UNL     1       2.572   9.607  17.295  0.00  0.00    +0.000 HD
ENDBRANCH   2  23
BRANCH   3  26
ATOM     26  C   UNL     1       1.730   7.317  18.430  0.00  0.00    +0.000 C 
BRANCH  26  27
ATOM     27  C   UNL     1       3.181   6.877  18.335  0.00  0.00    +0.000 A 
ATOM     28  C   UNL     1       3.650   5.843  19.162  0.00  0.00    +0.000 A 
ATOM     29  C   UNL     1       4.938   5.324  18.997  0.00  0.00    +0.000 A 
ATOM     30  C   UNL     1       5.775   5.830  18.005  0.00  0.00    +0.000 A 
ATOM     31  C   UNL     1       5.332   6.864  17.187  0.00  0.00    +0.000 A 
ATOM     32  C   UNL     1       4.045   7.381  17.349  0.00  0.00    +0.000 A 
ENDBRANCH  26  27
ENDBRANCH   3  26
TORSDOF 9
ENDMDL
MODEL 5
REMARK VINA RESULT:      -6.9      4.576      7.486
REMARK  Name = 
REMARK  10 active torsions:
REMARK  status: ('A' for Active; 'I' for Inactive)
REMARK    1  A    between atoms: C_1  and  C_2
REMARK    2  A    between atoms: C_2  and  C_3
REMARK    3  A    between atoms: C_3  and  C_4
REMARK    4  A    between atoms: C_4  and  N_5
REMARK    5  A    between atoms: N_5  and  C_14
REMARK    6  A    between atoms: C_6  and  C_8
REMARK    7  A    between atoms: C_8  and  C_9
REMARK    8  A    between atoms: C_15  and  N_16
REMARK    9  A    between atoms: N_17  and  C_18
REMARK   10  A    between atoms: C_18  and  C_19
REMARK                            x       y       z     vdW  Elec       q    Type
REMARK                         _______ _______ _______ _____ _____    ______ ____
ROOT
ATOM      1  C   UNL     1       1.188   9.557  19.465  0.00  0.00    +0.000 A 
ATOM      2  C   UNL     1       1.538   8.354  19.994  0.00  0.00    +0.000 A 
ATOM      3  N   UNL     1       2.432   7.534  19.301  0.00  0.00    +0.000 N 
ATOM      4  C   UNL     1       2.869   7.813  18.013  0.00  0.00    +0.000 A 
ATOM      5  O   UNL     1       3.637   7.108  17.366  0.00  0.00    +0.000 OA
ATOM      6  N   UNL     1       2.425   8.976  17.468  0.00  0.00    +0.000 N 
ATOM      7  C   UNL     1       1.808   9.962  18.167  0.00  0.00    +0.000 A 
ATOM      8  O   UNL     1       1.771  11.117  17.751  0.00  0.00    +0.000 OA
ATOM      9  H   UNL     1       2.843   9.231  16.587  0.00  0.00    +0.000 HD
ENDROOT
BRANCH   1  10
ATOM     10  N   UNL     1       0.315  10.455  20.092  0.00  0.00    +0.000 N 
ATOM     11  C   UNL     1      -0.976  10.740  19.601  0.00  0.00    +0.000 C 
ATOM     12  O   UNL     1      -1.704  11.576  20.140  0.00  0.00    +0.000 OA
BRANCH  10  13
ATOM     13  C   UNL     1       0.803  11.202  21.267  0.00  0.00    +0.000 C 
BRANCH  13  14
ATOM     14  C   UNL     1       1.566  12.498  20.971  0.00  0.00    +0.000 C 
BRANCH  14  16
ATOM     15  C   UNL     1       1.688  14.953  21.459  0.00  0.00    +0.000 C 
ATOM     16  C   UNL     1       0.761  13.781  21.160  0.00  0.00    +0.000 C 
ENDBRANCH  14  16
ENDBRANCH  13  14
ENDBRANCH  10  13
BRANCH  11  17
ATOM     17  C   UNL     1      -1.484   9.884  18.430  0.00  0.00    +0.000 C 
BRANCH  17  18
ATOM     18  C   UNL     1      -2.189  10.644  17.299  0.00  0.00    +0.000 C 
ATOM     19  C   UNL     1      -2.387   9.751  16.069  0.00  0.00    +0.000 C 
ATOM     20  C   UNL     1      -3.413  10.500  15.233  0.00  0.00    +0.000 C 
ATOM     21  C   UNL     1      -4.304  11.222  16.240  0.00  0.00    +0.000 C 
ATOM     22  C   UNL     1      -3.620  11.092  17.603  0.00  0.00    +0.000 C 
ENDBRANCH  17  18
ENDBRANCH  11  17
ENDBRANCH   1  10
BRANCH   2  23
ATOM     23  N   UNL     1       0.964   7.887  21.170  0.00  0.00    +0.000 N 
ATOM     24  H   UNL     1       1.633   7.457  21.802  0.00  0.00    +0.000 HD
ATOM     25  H   UNL     1       0.178   7.267  20.987  0.00  0.00    +0.000 HD
ENDBRANCH   2  23
BRANCH   3  26
ATOM     26  C   UNL     1       2.920   6.281  19.898  0.00  0.00    +0.000 C 
BRANCH  26  27
ATOM     27  C   UNL     1       2.057   5.068  19.591  0.00  0.00    +0.000 A 
ATOM     28  C   UNL     1       2.038   4.538  18.291  0.00  0.00    +0.000 A 
ATOM     29  C   UNL     1       1.365   3.344  18.015  0.00  0.00    +0.000 A 
ATOM     30  C   UNL     1       0.703   2.662  19.033  0.00  0.00    +0.000 A 
ATOM     31  C   UNL     1       0.699   3.181  20.324  0.00  0.00    +0.000 A 
ATOM     32  C   UNL     1       1.372   4.373  20.601  0.00  0.00    +0.000 A 
ENDBRANCH  26  27
ENDBRANCH   3  26
TORSDOF 9
ENDMDL
MODEL 6
REMARK VINA RESULT:      -6.9      3.038      6.302
REMARK  Name = 
REMARK  10 active torsions:
REMARK  status: ('A' for Active; 'I' for Inactive)
REMARK    1  A    between atoms: C_1  and  C_2
REMARK    2  A    between atoms: C_2  and  C_3
REMARK    3  A    between atoms: C_3  and  C_4
REMARK    4  A    between atoms: C_4  and  N_5
REMARK    5  A    between atoms: N_5  and  C_14
REMARK    6  A    between atoms: C_6  and  C_8
REMARK    7  A    between atoms: C_8  and  C_9
REMARK    8  A    between atoms: C_15  and  N_16
REMARK    9  A    between atoms: N_17  and  C_18
REMARK   10  A    between atoms: C_18  and  C_19
REMARK                            x       y       z     vdW  Elec       q    Type
REMARK                         _______ _______ _______ _____ _____    ______ ____
ROOT
ATOM      1  C   UNL     1       2.306   6.095  19.153  0.00  0.00    +0.000 A 
ATOM      2  C   UNL     1       2.273   7.345  18.619  0.00  0.00    +0.000 A 
ATOM      3  N   UNL     1       1.923   8.429  19.429  0.00  0.00    +0.000 N 
ATOM      4  C   UNL     1       1.449   8.279  20.725  0.00  0.00    +0.000 A 
ATOM      5  O   UNL     1       1.113   9.203  21.459  0.00  0.00    +0.000 OA
ATOM      6  N   UNL     1       1.398   7.007  21.202  0.00  0.00    +0.000 N 
ATOM      7  C   UNL     1       1.991   5.942  20.605  0.00  0.00    +0.000 A 
ATOM      8  O   UNL     1       2.253   4.919  21.233  0.00  0.00    +0.000 OA
ATOM      9  H   UNL     1       1.173   6.917  22.181  0.00  0.00    +0.000 HD
ENDROOT
BRANCH   1  10
ATOM     10  N   UNL     1       2.663   4.952  18.427  0.00  0.00    +0.000 N 
ATOM     11  C   UNL     1       3.993   4.501  18.311  0.00  0.00    +0.000 C 
ATOM     12  O   UNL     1       4.289   3.523  17.621  0.00  0.00    +0.000 OA
BRANCH  10  13
ATOM     13  C   UNL     1       1.609   4.239  17.679  0.00  0.00    +0.000 C 
BRANCH  13  14
ATOM     14  C   UNL     1       0.734   3.282  18.499  0.00  0.00    +0.000 C 
BRANCH  14  16
ATOM     15  C   UNL     1       2.101   1.918  20.096  0.00  0.00    +0.000 C 
ATOM     16  C   UNL     1       1.351   1.912  18.770  0.00  0.00    +0.000 C 
ENDBRANCH  14  16
ENDBRANCH  13  14
ENDBRANCH  10  13
BRANCH  11  17
ATOM     17  C   UNL     1       5.051   5.212  19.170  0.00  0.00    +0.000 C 
BRANCH  17  18
ATOM     18  C   UNL     1       6.314   5.677  18.434  0.00  0.00    +0.000 C 
ATOM     19  C   UNL     1       6.058   6.971  17.653  0.00  0.00    +0.000 C 
ATOM     20  C   UNL     1       7.451   7.486  17.330  0.00  0.00    +0.000 C 
ATOM     21  C   UNL     1       8.326   7.047  18.501  0.00  0.00    +0.000 C 
ATOM     22  C   UNL     1       7.488   6.071  19.332  0.00  0.00    +0.000 C 
ENDBRANCH  17  18
ENDBRANCH  11  17
ENDBRANCH   1  10
BRANCH   2  23
ATOM     23  N   UNL     1       2.503   7.560  17.266  0.00  0.00    +0.000 N 
ATOM     24  H   UNL     1       3.485   7.509  17.010  0.00  0.00    +0.000 HD
ATOM     25  H   UNL     1       2.083   8.430  16.944  0.00  0.00    +0.000 HD
ENDBRANCH   2  23
BRANCH   3  26
ATOM     26  C   UNL     1       1.989   9.805  18.915  0.00  0.00    +0.000 C 
BRANCH  26  27
ATOM     27  C   UNL     1       0.634  10.420  18.603  0.00  0.00    +0.000 A 
ATOM     28  C   UNL     1      -0.293   9.703  17.829  0.00  0.00    +0.000 A 
ATOM     29  C   UNL     1      -1.594  10.183  17.646  0.00  0.00    +0.000 A 
ATOM     30  C   UNL     1      -1.986  11.384  18.232  0.00  0.00    +0.000 A 
ATOM     31  C   UNL     1      -1.076  12.114  18.990  0.00  0.00    +0.000 A 
ATOM     32  C   UNL     1       0.223  11.634  19.175  0.00  0.00    +0.000 A 
ENDBRANCH  26  27
ENDBRANCH   3  26
TORSDOF 9
ENDMDL
MODEL 7
REMARK VINA RESULT:      -6.9      1.974      3.527
REMARK  Name = 
REMARK  10 active torsions:
REMARK  status: ('A' for Active; 'I' for Inactive)
REMARK    1  A    between atoms: C_1  and  C_2
REMARK    2  A    between atoms: C_2  and  C_3
REMARK    3  A    between atoms: C_3  and  C_4
REMARK    4  A    between atoms: C_4  and  N_5
REMARK    5  A    between atoms: N_5  and  C_14
REMARK    6  A    between atoms: C_6  and  C_8
REMARK    7  A    between atoms: C_8  and  C_9
REMARK    8  A    between atoms: C_15  and  N_16
REMARK    9  A    between atoms: N_17  and  C_18
REMARK   10  A    between atoms: C_18  and  C_19
REMARK                            x       y       z     vdW  Elec       q    Type
REMARK                         _______ _______ _______ _____ _____    ______ ____
ROOT
ATOM      1  C   UNL     1       4.992   5.042  18.302  0.00  0.00    +0.000 A 
ATOM      2  C   UNL     1       4.195   6.064  17.892  0.00  0.00    +0.000 A 
ATOM      3  N   UNL     1       2.824   6.015  18.160  0.00  0.00    +0.000 N 
ATOM      4  C   UNL     1       2.199   4.895  18.691  0.00  0.00    +0.000 A 
ATOM      5  O   UNL     1       0.997   4.807  18.922  0.00  0.00    +0.000 OA
ATOM      6  N   UNL     1       3.008   3.848  19.002  0.00  0.00    +0.000 N 
ATOM      7  C   UNL     1       4.362   3.917  19.056  0.00  0.00    +0.000 A 
ATOM      8  O   UNL     1       5.021   3.100  19.695  0.00  0.00    +0.000 OA
ATOM      9  H   UNL     1       2.568   3.090  19.501  0.00  0.00    +0.000 HD
ENDROOT
BRANCH   1  10
ATOM     10  N   UNL     1       6.378   5.010  18.097  0.00  0.00    +0.000 N 
ATOM     11  C   UNL     1       6.975   4.370  16.992  0.00  0.00    +0.000 C 
ATOM     12  O   UNL     1       8.199   4.308  16.864  0.00  0.00    +0.000 OA
BRANCH  10  13
ATOM     13  C   UNL     1       7.253   5.596  19.131  0.00  0.00    +0.000 C 
BRANCH  13  14
ATOM     14  C   UNL     1       8.205   6.701  18.657  0.00  0.00    +0.000 C 
BRANCH  14  16
ATOM     15  C   UNL     1       8.174   9.090  17.898  0.00  0.00    +0.000 C 
ATOM     16  C   UNL     1       7.600   7.697  17.670  0.00  0.00    +0.000 C 
ENDBRANCH  14  16
ENDBRANCH  13  14
ENDBRANCH  10  13
BRANCH  11  17
ATOM     17  C   UNL     1       6.036   3.848  15.894  0.00  0.00    +0.000 C 
BRANCH  17  18
ATOM     18  C   UNL     1       6.192   4.495  14.512  0.00  0.00    +0.000 C 
ATOM     19  C   UNL     1       7.594   5.091  14.333  0.00  0.00    +0.000 C 
ATOM     20  C   UNL     1       7.706   5.319  12.834  0.00  0.00    +0.000 C 
ATOM     21  C   UNL     1       6.879   4.209  12.193  0.00  0.00    +0.000 C 
ATOM     22  C   UNL     1       6.100   3.534  13.325  0.00  0.00    +0.000 C 
ENDBRANCH  17  18
ENDBRANCH  11  17
ENDBRANCH   1  10
BRANCH   2  23
ATOM     23  N   UNL     1       4.699   7.119  17.141  0.00  0.00    +0.000 N 
ATOM     24  H   UNL     1       4.168   7.302  16.295  0.00  0.00    +0.000 HD
ATOM     25  H   UNL     1       5.689   7.000  16.938  0.00  0.00    +0.000 HD
ENDBRANCH   2  23
BRANCH   3  26
ATOM     26  C   UNL     1       1.952   7.154  17.833  0.00  0.00    +0.000 C 
BRANCH  26  27
ATOM     27  C   UNL     1       1.562   8.004  19.031  0.00  0.00    +0.000 A 
ATOM     28  C   UNL     1       1.798   7.525  20.330  0.00  0.00    +0.000 A 
ATOM     29  C   UNL     1       1.579   8.342  21.444  0.00  0.00    +0.000 A 
ATOM     30  C   UNL     1       1.122   9.647  21.276  0.00  0.00    +0.000 A 
ATOM     31  C   UNL     1       0.868  10.132  19.997  0.00  0.00    +0.000 A 
ATOM     32  C   UNL     1       1.089   9.318  18.884  0.00  0.00    +0.000 A 
ENDBRANCH  26  27
ENDBRANCH   3  26
TORSDOF 9
ENDMDL
MODEL 8
REMARK VINA RESULT:      -6.8      2.922      6.189
REMARK  Name = 
REMARK  10 active torsions:
REMARK  status: ('A' for Active; 'I' for Inactive)
REMARK    1  A    between atoms: C_1  and  C_2
REMARK    2  A    between atoms: C_2  and  C_3
REMARK    3  A    between atoms: C_3  and  C_4
REMARK    4  A    between atoms: C_4  and  N_5
REMARK    5  A    between atoms: N_5  and  C_14
REMARK    6  A    between atoms: C_6  and  C_8
REMARK    7  A    between atoms: C_8  and  C_9
REMARK    8  A    between atoms: C_15  and  N_16
REMARK    9  A    between atoms: N_17  and  C_18
REMARK   10  A    between atoms: C_18  and  C_19
REMARK                            x       y       z     vdW  Elec       q    Type
REMARK                         _______ _______ _______ _____ _____    ______ ____
ROOT
ATOM      1  C   UNL     1       2.590   5.817  19.047  0.00  0.00    +0.000 A 
ATOM      2  C   UNL     1       2.426   7.100  18.629  0.00  0.00    +0.000 A 
ATOM      3  N   UNL     1       1.965   8.062  19.533  0.00  0.00    +0.000 N 
ATOM      4  C   UNL     1       1.513   7.745  20.806  0.00  0.00    +0.000 A 
ATOM      5  O   UNL     1       1.083   8.559  21.618  0.00  0.00    +0.000 OA
ATOM      6  N   UNL     1       1.597   6.438  21.164  0.00  0.00    +0.000 N 
ATOM      7  C   UNL     1       2.296   5.499  20.477  0.00  0.00    +0.000 A 
ATOM      8  O   UNL     1       2.666   4.456  21.011  0.00  0.00    +0.000 OA
ATOM      9  H   UNL     1       1.385   6.235  22.129  0.00  0.00    +0.000 HD
ENDROOT
BRANCH   1  10
ATOM     10  N   UNL     1       3.064   4.788  18.223  0.00  0.00    +0.000 N 
ATOM     11  C   UNL     1       4.435   4.504  18.061  0.00  0.00    +0.000 C 
ATOM     12  O   UNL     1       4.829   3.630  17.287  0.00  0.00    +0.000 OA
BRANCH  10  13
ATOM     13  C   UNL     1       2.087   4.025  17.423  0.00  0.00    +0.000 C 
BRANCH  13  14
ATOM     14  C   UNL     1       0.797   3.618  18.146  0.00  0.00    +0.000 C 
BRANCH  14  16
ATOM     15  C   UNL     1       2.259   1.683  18.779  0.00  0.00    +0.000 C 
ATOM     16  C   UNL     1       0.858   2.276  18.873  0.00  0.00    +0.000 C 
ENDBRANCH  14  16
ENDBRANCH  13  14
ENDBRANCH  10  13
BRANCH  11  17
ATOM     17  C   UNL     1       5.418   5.257  18.972  0.00  0.00    +0.000 C 
BRANCH  17  18
ATOM     18  C   UNL     1       6.614   5.915  18.271  0.00  0.00    +0.000 C 
ATOM     19  C   UNL     1       6.203   7.220  17.579  0.00  0.00    +0.000 C 
ATOM     20  C   UNL     1       7.525   7.916  17.295  0.00  0.00    +0.000 C 
ATOM     21  C   UNL     1       8.451   7.505  18.436  0.00  0.00    +0.000 C 
ATOM     22  C   UNL     1       7.738   6.384  19.197  0.00  0.00    +0.000 C 
ENDBRANCH  17  18
ENDBRANCH  11  17
ENDBRANCH   1  10
BRANCH   2  23
ATOM     23  N   UNL     1       2.629   7.460  17.303  0.00  0.00    +0.000 N 
ATOM     24  H   UNL     1       3.528   7.903  17.138  0.00  0.00    +0.000 HD
ATOM     25  H   UNL     1       1.866   8.031  16.944  0.00  0.00    +0.000 HD
ENDBRANCH   2  23
BRANCH   3  26
ATOM     26  C   UNL     1       1.886   9.479  19.146  0.00  0.00    +0.000 C 
BRANCH  26  27
ATOM     27  C   UNL     1       0.473   9.975  18.884  0.00  0.00    +0.000 A 
ATOM     28  C   UNL     1      -0.060  11.006  19.676  0.00  0.00    +0.000 A 
ATOM     29  C   UNL     1      -1.300  11.575  19.368  0.00  0.00    +0.000 A 
ATOM     30  C   UNL     1      -2.024  11.124  18.267  0.00  0.00    +0.000 A 
ATOM     31  C   UNL     1      -1.518  10.093  17.482  0.00  0.00    +0.000 A 
ATOM     32  C   UNL     1      -0.279   9.526  17.786  0.00  0.00    +0.000 A 
ENDBRANCH  26  27
ENDBRANCH   3  26
TORSDOF 9
ENDMDL
MODEL 9
REMARK VINA RESULT:      -6.8      8.325     10.802
REMARK  Name = 
REMARK  10 active torsions:
REMARK  status: ('A' for Active; 'I' for Inactive)
REMARK    1  A    between atoms: C_1  and  C_2
REMARK    2  A    between atoms: C_2  and  C_3
REMARK    3  A    between atoms: C_3  and  C_4
REMARK    4  A    between atoms: C_4  and  N_5
REMARK    5  A    between atoms: N_5  and  C_14
REMARK    6  A    between atoms: C_6  and  C_8
REMARK    7  A    between atoms: C_8  and  C_9
REMARK    8  A    between atoms: C_15  and  N_16
REMARK    9  A    between atoms: N_17  and  C_18
REMARK   10  A    between atoms: C_18  and  C_19
REMARK                            x       y       z     vdW  Elec       q    Type
REMARK                         _______ _______ _______ _____ _____    ______ ____
ROOT
ATOM      1  C   UNL     1      -0.842  12.181  21.279  0.00  0.00    +0.000 A 
ATOM      2  C   UNL     1      -1.889  13.038  21.145  0.00  0.00    +0.000 A 
ATOM      3  N   UNL     1      -2.884  13.065  22.127  0.00  0.00    +0.000 N 
ATOM      4  C   UNL     1      -2.945  12.145  23.164  0.00  0.00    +0.000 A 
ATOM      5  O   UNL     1      -3.813  12.124  24.031  0.00  0.00    +0.000 OA
ATOM      6  N   UNL     1      -1.938  11.235  23.218  0.00  0.00    +0.000 N 
ATOM      7  C   UNL     1      -0.790  11.320  22.499  0.00  0.00    +0.000 A 
ATOM      8  O   UNL     1       0.228  10.724  22.843  0.00  0.00    +0.000 OA
ATOM      9  H   UNL     1      -1.920  10.652  24.041  0.00  0.00    +0.000 HD
ENDROOT
BRANCH   1  10
ATOM     10  N   UNL     1       0.211  12.094  20.361  0.00  0.00    +0.000 N 
ATOM     11  C   UNL     1       0.211  11.195  19.275  0.00  0.00    +0.000 C 
ATOM     12  O   UNL     1       1.174  11.099  18.513  0.00  0.00    +0.000 OA
BRANCH  10  13
ATOM     13  C   UNL     1       1.413  12.919  20.592  0.00  0.00    +0.000 C 
BRANCH  13  14
ATOM     14  C   UNL     1       1.509  14.210  19.769  0.00  0.00    +0.000 C 
BRANCH  14  16
ATOM     15  C   UNL     1       0.578  16.528  19.561  0.00  0.00    +0.000 C 
ATOM     16  C   UNL     1       1.140  15.486  20.521  0.00  0.00    +0.000 C 
ENDBRANCH  14  16
ENDBRANCH  13  14
ENDBRANCH  10  13
BRANCH  11  17
ATOM     17  C   UNL     1      -1.088  10.415  19.013  0.00  0.00    +0.000 C 
BRANCH  17  18
ATOM     18  C   UNL     1      -1.957  10.926  17.857  0.00  0.00    +0.000 C 
ATOM     19  C   UNL     1      -2.139   9.850  16.780  0.00  0.00    +0.000 C 
ATOM     20  C   UNL     1      -3.304  10.359  15.946  0.00  0.00    +0.000 C 
ATOM     21  C   UNL     1      -4.197  11.120  16.922  0.00  0.00    +0.000 C 
ATOM     22  C   UNL     1      -3.404  11.260  18.224  0.00  0.00    +0.000 C 
ENDBRANCH  17  18
ENDBRANCH  11  17
ENDBRANCH   1  10
BRANCH   2  23
ATOM     23  N   UNL     1      -2.034  13.832  20.014  0.00  0.00    +0.000 N 
ATOM     24  H   UNL     1      -1.208  14.383  19.800  0.00  0.00    +0.000 HD
ATOM     25  H   UNL     1      -2.864  14.418  20.067  0.00  0.00    +0.000 HD
ENDBRANCH   2  23
BRANCH   3  26
ATOM     26  C   UNL     1      -3.968  14.058  22.071  0.00  0.00    +0.000 C 
BRANCH  26  27
ATOM     27  C   UNL     1      -5.098  13.695  21.122  0.00  0.00    +0.000 A 
ATOM     28  C   UNL     1      -5.526  14.627  20.162  0.00  0.00    +0.000 A 
ATOM     29  C   UNL     1      -6.464  14.270  19.188  0.00  0.00    +0.000 A 
ATOM     30  C   UNL     1      -6.987  12.980  19.159  0.00  0.00    +0.000 A 
ATOM     31  C   UNL     1      -6.585  12.049  20.112  0.00  0.00    +0.000 A 
ATOM     32  C   UNL     1      -5.647  12.403  21.083  0.00  0.00    +0.000 A 
ENDBRANCH  26  27
ENDBRANCH   3  26
TORSDOF 9
ENDMDL
