MODEL 1
REMARK VINA RESULT:      -8.7      0.000      0.000
REMARK  Name = 
REMARK  5 active torsions:
REMARK  status: ('A' for Active; 'I' for Inactive)
REMARK    1  A    between atoms: C_1  and  O_2
REMARK    2  A    between atoms: O_2  and  C_3
REMARK    3  A    between atoms: C_8  and  C_9
REMARK    4  A    between atoms: C_17  and  C_18
REMARK    5  A    between atoms: C_26  and  C_27
REMARK                            x       y       z     vdW  Elec       q    Type
REMARK                         _______ _______ _______ _____ _____    ______ ____
ROOT
ATOM      1  C   UNL     1       2.948   6.902  18.358  0.00  0.00    +0.000 C 
ATOM      2  O   UNL     1       2.385   6.499  19.372  0.00  0.00    +0.000 OA
ATOM      3  N   UNL     1       2.838   8.176  17.859  0.00  0.00    +0.000 N 
ATOM      4  C   UNL     1       2.048   9.150  18.406  0.00  0.00    +0.000 A 
ATOM      5  N   UNL     1       1.050   8.916  19.322  0.00  0.00    +0.000 NA
ATOM      6  C   UNL     1       0.559  10.103  19.555  0.00  0.00    +0.000 A 
ATOM      7  N   UNL     1       1.259  11.020  18.822  0.00  0.00    +0.000 N 
ATOM      8  N   UNL     1       2.175  10.428  18.028  0.00  0.00    +0.000 NA
ATOM      9  C   UNL     1       0.928  12.449  18.776  0.00  0.00    +0.000 C 
ATOM     10  C   UNL     1      -0.210  12.804  19.723  0.00  0.00    +0.000 C 
ATOM     11  C   UNL     1      -0.841  11.843  20.428  0.00  0.00    +0.000 C 
ATOM     12  N   UNL     1      -0.466  10.518  20.331  0.00  0.00    +0.000 N 
ATOM     13  H   UNL     1       3.420   8.475  17.090  0.00  0.00    +0.000 HD
ATOM     14  H   UNL     1      -1.022   9.832  20.831  0.00  0.00    +0.000 HD
ENDROOT
BRANCH   9  15
ATOM     15  C   UNL     1       2.167  13.304  19.001  0.00  0.00    +0.000 A 
ATOM     16  C   UNL     1       2.609  13.550  20.313  0.00  0.00    +0.000 A 
ATOM     17  C   UNL     1       3.707  14.378  20.549  0.00  0.00    +0.000 A 
ATOM     18  C   UNL     1       4.368  14.959  19.474  0.00  0.00    +0.000 A 
ATOM     19  F   UNL     1       5.405  15.774  19.704  0.00  0.00    +0.000 F 
ATOM     20  C   UNL     1       3.961  14.720  18.168  0.00  0.00    +0.000 A 
ATOM     21  C   UNL     1       2.863  13.889  17.927  0.00  0.00    +0.000 A 
ENDBRANCH   9  15
BRANCH  11  22
ATOM     22  C   UNL     1      -1.968  12.190  21.309  0.00  0.00    +0.000 A 
ATOM     23  C   UNL     1      -1.905  11.915  22.682  0.00  0.00    +0.000 A 
ATOM     24  C   UNL     1      -2.989  12.213  23.515  0.00  0.00    +0.000 A 
ATOM     25  C   UNL     1      -4.136  12.793  22.978  0.00  0.00    +0.000 A 
ATOM     26 CL   UNL     1      -5.471  13.155  24.002  0.00  0.00    +0.000 Cl
ATOM     27  C   UNL     1      -4.209  13.079  21.617  0.00  0.00    +0.000 A 
ATOM     28  C   UNL     1      -3.128  12.777  20.783  0.00  0.00    +0.000 A 
ENDBRANCH  11  22
BRANCH   1  34
ATOM     29  C   UNL     1       5.152   6.232  17.146  0.00  0.00    +0.000 A 
ATOM     30  C   UNL     1       5.861   5.217  16.481  0.00  0.00    +0.000 A 
ATOM     31  C   UNL     1       5.321   3.937  16.320  0.00  0.00    +0.000 A 
ATOM     32  C   UNL     1       4.060   3.659  16.807  0.00  0.00    +0.000 A 
ATOM     33  C   UNL     1       3.335   4.653  17.453  0.00  0.00    +0.000 A 
ATOM     34  C   UNL     1       3.860   5.951  17.628  0.00  0.00    +0.000 A 
BRANCH  29  36
ATOM     35  C   UNL     1       7.111   7.539  17.418  0.00  0.00    +0.000 C 
ATOM     36  O   UNL     1       5.683   7.486  17.307  0.00  0.00    +0.000 OA
ENDBRANCH  29  36
ENDBRANCH   1  34
TORSDOF 4
ENDMDL
MODEL 2
REMARK VINA RESULT:      -8.6      0.869      1.872
REMARK  Name = 
REMARK  5 active torsions:
REMARK  status: ('A' for Active; 'I' for Inactive)
REMARK    1  A    between atoms: C_1  and  O_2
REMARK    2  A    between atoms: O_2  and  C_3
REMARK    3  A    between atoms: C_8  and  C_9
REMARK    4  A    between atoms: C_17  and  C_18
REMARK    5  A    between atoms: C_26  and  C_27
REMARK                            x       y       z     vdW  Elec       q    Type
REMARK                         _______ _______ _______ _____ _____    ______ ____
ROOT
ATOM      1  C   UNL     1       2.756   7.002  18.402  0.00  0.00    +0.000 C 
ATOM      2  O   UNL     1       2.188   6.590  19.411  0.00  0.00    +0.000 OA
ATOM      3  N   UNL     1       2.649   8.280  17.912  0.00  0.00    +0.000 N 
ATOM      4  C   UNL     1       1.856   9.249  18.464  0.00  0.00    +0.000 A 
ATOM      5  N   UNL     1       0.854   9.008  19.374  0.00  0.00    +0.000 NA
ATOM      6  C   UNL     1       0.363  10.194  19.614  0.00  0.00    +0.000 A 
ATOM      7  N   UNL     1       1.066  11.117  18.892  0.00  0.00    +0.000 N 
ATOM      8  N   UNL     1       1.986  10.530  18.097  0.00  0.00    +0.000 NA
ATOM      9  C   UNL     1       0.736  12.545  18.856  0.00  0.00    +0.000 C 
ATOM     10  C   UNL     1      -0.406  12.894  19.800  0.00  0.00    +0.000 C 
ATOM     11  C   UNL     1      -1.040  11.928  20.496  0.00  0.00    +0.000 C 
ATOM     12  N   UNL     1      -0.665  10.603  20.389  0.00  0.00    +0.000 N 
ATOM     13  H   UNL     1       3.234   8.584  17.148  0.00  0.00    +0.000 HD
ATOM     14  H   UNL     1      -1.224   9.913  20.882  0.00  0.00    +0.000 HD
ENDROOT
BRANCH   9  15
ATOM     15  C   UNL     1       1.974  13.398  19.092  0.00  0.00    +0.000 A 
ATOM     16  C   UNL     1       2.622  13.995  17.995  0.00  0.00    +0.000 A 
ATOM     17  C   UNL     1       3.792  14.734  18.177  0.00  0.00    +0.000 A 
ATOM     18  C   UNL     1       4.315  14.880  19.455  0.00  0.00    +0.000 A 
ATOM     19  F   UNL     1       5.452  15.567  19.625  0.00  0.00    +0.000 F 
ATOM     20  C   UNL     1       3.686  14.314  20.557  0.00  0.00    +0.000 A 
ATOM     21  C   UNL     1       2.513  13.576  20.379  0.00  0.00    +0.000 A 
ENDBRANCH   9  15
BRANCH  11  22
ATOM     22  C   UNL     1      -2.171  12.268  21.374  0.00  0.00    +0.000 A 
ATOM     23  C   UNL     1      -2.098  12.016  22.751  0.00  0.00    +0.000 A 
ATOM     24  C   UNL     1      -3.185  12.308  23.584  0.00  0.00    +0.000 A 
ATOM     25  C   UNL     1      -4.345  12.858  23.041  0.00  0.00    +0.000 A 
ATOM     26 CL   UNL     1      -5.683  13.212  24.063  0.00  0.00    +0.000 Cl
ATOM     27  C   UNL     1      -4.426  13.120  21.675  0.00  0.00    +0.000 A 
ATOM     28  C   UNL     1      -3.343  12.824  20.843  0.00  0.00    +0.000 A 
ENDBRANCH  11  22
BRANCH   1  34
ATOM     29  C   UNL     1       3.467   4.678  17.469  0.00  0.00    +0.000 A 
ATOM     30  C   UNL     1       4.435   3.947  16.759  0.00  0.00    +0.000 A 
ATOM     31  C   UNL     1       5.569   4.566  16.226  0.00  0.00    +0.000 A 
ATOM     32  C   UNL     1       5.760   5.921  16.410  0.00  0.00    +0.000 A 
ATOM     33  C   UNL     1       4.824   6.659  17.123  0.00  0.00    +0.000 A 
ATOM     34  C   UNL     1       3.670   6.056  17.669  0.00  0.00    +0.000 A 
BRANCH  29  36
ATOM     35  C   UNL     1       2.310   2.645  17.853  0.00  0.00    +0.000 C 
ATOM     36  O   UNL     1       2.352   4.071  17.988  0.00  0.00    +0.000 OA
ENDBRANCH  29  36
ENDBRANCH   1  34
TORSDOF 4
ENDMDL
MODEL 3
REMARK VINA RESULT:      -8.6      0.863      1.843
REMARK  Name = 
REMARK  5 active torsions:
REMARK  status: ('A' for Active; 'I' for Inactive)
REMARK    1  A    between atoms: C_1  and  O_2
REMARK    2  A    between atoms: O_2  and  C_3
REMARK    3  A    between atoms: C_8  and  C_9
REMARK    4  A    between atoms: C_17  and  C_18
REMARK    5  A    between atoms: C_26  and  C_27
REMARK                            x       y       z     vdW  Elec       q    Type
REMARK                         _______ _______ _______ _____ _____    ______ ____
ROOT
ATOM      1  C   UNL     1       2.884   6.943  18.226  0.00  0.00    +0.000 C 
ATOM      2  O   UNL     1       2.310   6.512  19.223  0.00  0.00    +0.000 OA
ATOM      3  N   UNL     1       2.786   8.233  17.766  0.00  0.00    +0.000 N 
ATOM      4  C   UNL     1       1.996   9.194  18.337  0.00  0.00    +0.000 A 
ATOM      5  N   UNL     1       0.990   8.938  19.237  0.00  0.00    +0.000 NA
ATOM      6  C   UNL     1       0.504  10.120  19.503  0.00  0.00    +0.000 A 
ATOM      7  N   UNL     1       1.215  11.055  18.805  0.00  0.00    +0.000 N 
ATOM      8  N   UNL     1       2.135  10.482  18.000  0.00  0.00    +0.000 NA
ATOM      9  C   UNL     1       0.893  12.487  18.801  0.00  0.00    +0.000 C 
ATOM     10  C   UNL     1      -0.251  12.819  19.749  0.00  0.00    +0.000 C 
ATOM     11  C   UNL     1      -0.893  11.841  20.419  0.00  0.00    +0.000 C 
ATOM     12  N   UNL     1      -0.525  10.517  20.284  0.00  0.00    +0.000 N 
ATOM     13  H   UNL     1       3.376   8.552  17.011  0.00  0.00    +0.000 HD
ATOM     14  H   UNL     1      -1.089   9.819  20.758  0.00  0.00    +0.000 HD
ENDROOT
BRANCH   9  15
ATOM     15  C   UNL     1       2.135  13.327  19.062  0.00  0.00    +0.000 A 
ATOM     16  C   UNL     1       2.558  13.543  20.386  0.00  0.00    +0.000 A 
ATOM     17  C   UNL     1       3.659  14.358  20.655  0.00  0.00    +0.000 A 
ATOM     18  C   UNL     1       4.342  14.954  19.603  0.00  0.00    +0.000 A 
ATOM     19  F   UNL     1       5.382  15.755  19.865  0.00  0.00    +0.000 F 
ATOM     20  C   UNL     1       3.954  14.744  18.286  0.00  0.00    +0.000 A 
ATOM     21  C   UNL     1       2.853  13.927  18.011  0.00  0.00    +0.000 A 
ENDBRANCH   9  15
BRANCH  11  22
ATOM     22  C   UNL     1      -2.025  12.167  21.301  0.00  0.00    +0.000 A 
ATOM     23  C   UNL     1      -3.180  12.764  20.779  0.00  0.00    +0.000 A 
ATOM     24  C   UNL     1      -4.244  13.106  21.622  0.00  0.00    +0.000 A 
ATOM     25  C   UNL     1      -4.157  12.846  22.989  0.00  0.00    +0.000 A 
ATOM     26 CL   UNL     1      -5.462  13.271  24.025  0.00  0.00    +0.000 Cl
ATOM     27  C   UNL     1      -3.017  12.246  23.518  0.00  0.00    +0.000 A 
ATOM     28  C   UNL     1      -1.952  11.909  22.677  0.00  0.00    +0.000 A 
ENDBRANCH  11  22
BRANCH   1  34
ATOM     29  C   UNL     1       3.723   4.605  17.450  0.00  0.00    +0.000 A 
ATOM     30  C   UNL     1       4.667   3.891  16.691  0.00  0.00    +0.000 A 
ATOM     31  C   UNL     1       5.648   4.550  15.943  0.00  0.00    +0.000 A 
ATOM     32  C   UNL     1       5.709   5.929  15.956  0.00  0.00    +0.000 A 
ATOM     33  C   UNL     1       4.796   6.653  16.713  0.00  0.00    +0.000 A 
ATOM     34  C   UNL     1       3.796   6.010  17.474  0.00  0.00    +0.000 A 
BRANCH  29  36
ATOM     35  C   UNL     1       2.374   2.671  17.686  0.00  0.00    +0.000 C 
ATOM     36  O   UNL     1       2.759   3.959  18.181  0.00  0.00    +0.000 OA
ENDBRANCH  29  36
ENDBRANCH   1  34
TORSDOF 4
ENDMDL
MODEL 4
REMARK VINA RESULT:      -7.9      0.845      1.199
REMARK  Name = 
REMARK  5 active torsions:
REMARK  status: ('A' for Active; 'I' for Inactive)
REMARK    1  A    between atoms: C_1  and  O_2
REMARK    2  A    between atoms: O_2  and  C_3
REMARK    3  A    between atoms: C_8  and  C_9
REMARK    4  A    between atoms: C_17  and  C_18
REMARK    5  A    between atoms: C_26  and  C_27
REMARK                            x       y       z     vdW  Elec       q    Type
REMARK                         _______ _______ _______ _____ _____    ______ ____
ROOT
ATOM      1  C   UNL     1       2.465   7.211  18.605  0.00  0.00    +0.000 C 
ATOM      2  O   UNL     1       1.862   6.918  19.635  0.00  0.00    +0.000 OA
ATOM      3  N   UNL     1       2.493   8.465  18.048  0.00  0.00    +0.000 N 
ATOM      4  C   UNL     1       1.812   9.542  18.546  0.00  0.00    +0.000 A 
ATOM      5  N   UNL     1       0.795   9.460  19.467  0.00  0.00    +0.000 NA
ATOM      6  C   UNL     1       0.436  10.702  19.644  0.00  0.00    +0.000 A 
ATOM      7  N   UNL     1       1.230  11.504  18.872  0.00  0.00    +0.000 N 
ATOM      8  N   UNL     1       2.077  10.780  18.111  0.00  0.00    +0.000 NA
ATOM      9  C   UNL     1       1.055  12.956  18.760  0.00  0.00    +0.000 C 
ATOM     10  C   UNL     1      -0.038  13.475  19.684  0.00  0.00    +0.000 C 
ATOM     11  C   UNL     1      -0.768  12.622  20.430  0.00  0.00    +0.000 C 
ATOM     12  N   UNL     1      -0.538  11.261  20.396  0.00  0.00    +0.000 N 
ATOM     13  H   UNL     1       3.103   8.664  17.268  0.00  0.00    +0.000 HD
ATOM     14  H   UNL     1      -1.165  10.662  20.924  0.00  0.00    +0.000 HD
ENDROOT
BRANCH   9  15
ATOM     15  C   UNL     1       2.379  13.682  18.949  0.00  0.00    +0.000 A 
ATOM     16  C   UNL     1       3.076  14.155  17.822  0.00  0.00    +0.000 A 
ATOM     17  C   UNL     1       4.320  14.772  17.964  0.00  0.00    +0.000 A 
ATOM     18  C   UNL     1       4.868  14.922  19.232  0.00  0.00    +0.000 A 
ATOM     19  F   UNL     1       6.072  15.491  19.363  0.00  0.00    +0.000 F 
ATOM     20  C   UNL     1       4.192  14.478  20.362  0.00  0.00    +0.000 A 
ATOM     21  C   UNL     1       2.945  13.862  20.224  0.00  0.00    +0.000 A 
ENDBRANCH   9  15
BRANCH  11  22
ATOM     22  C   UNL     1      -1.850  13.129  21.289  0.00  0.00    +0.000 A 
ATOM     23  C   UNL     1      -2.502  12.272  22.187  0.00  0.00    +0.000 A 
ATOM     24  C   UNL     1      -3.554  12.744  22.980  0.00  0.00    +0.000 A 
ATOM     25  C   UNL     1      -3.953  14.076  22.882  0.00  0.00    +0.000 A 
ATOM     26 CL   UNL     1      -5.249  14.654  23.853  0.00  0.00    +0.000 Cl
ATOM     27  C   UNL     1      -3.308  14.939  21.999  0.00  0.00    +0.000 A 
ATOM     28  C   UNL     1      -2.261  14.466  21.202  0.00  0.00    +0.000 A 
ENDBRANCH  11  22
BRANCH   1  34
ATOM     29  C   UNL     1       4.575   6.258  17.415  0.00  0.00    +0.000 A 
ATOM     30  C   UNL     1       5.171   5.142  16.804  0.00  0.00    +0.000 A 
ATOM     31  C   UNL     1       4.506   3.915  16.722  0.00  0.00    +0.000 A 
ATOM     32  C   UNL     1       3.230   3.791  17.236  0.00  0.00    +0.000 A 
ATOM     33  C   UNL     1       2.616   4.887  17.829  0.00  0.00    +0.000 A 
ATOM     34  C   UNL     1       3.268   6.135  17.924  0.00  0.00    +0.000 A 
BRANCH  29  36
ATOM     35  C   UNL     1       6.651   7.399  17.338  0.00  0.00    +0.000 C 
ATOM     36  O   UNL     1       5.229   7.461  17.498  0.00  0.00    +0.000 OA
ENDBRANCH  29  36
ENDBRANCH   1  34
TORSDOF 4
ENDMDL
MODEL 5
REMARK VINA RESULT:      -7.8      1.193      1.358
REMARK  Name = 
REMARK  5 active torsions:
REMARK  status: ('A' for Active; 'I' for Inactive)
REMARK    1  A    between atoms: C_1  and  O_2
REMARK    2  A    between atoms: O_2  and  C_3
REMARK    3  A    between atoms: C_8  and  C_9
REMARK    4  A    between atoms: C_17  and  C_18
REMARK    5  A    between atoms: C_26  and  C_27
REMARK                            x       y       z     vdW  Elec       q    Type
REMARK                         _______ _______ _______ _____ _____    ______ ____
ROOT
ATOM      1  C   UNL     1       2.238   6.692  19.800  0.00  0.00    +0.000 C 
ATOM      2  O   UNL     1       1.635   6.514  20.855  0.00  0.00    +0.000 OA
ATOM      3  N   UNL     1       2.206   7.853  19.069  0.00  0.00    +0.000 N 
ATOM      4  C   UNL     1       1.458   8.949  19.402  0.00  0.00    +0.000 A 
ATOM      5  N   UNL     1       0.431   8.940  20.316  0.00  0.00    +0.000 NA
ATOM      6  C   UNL     1      -0.000  10.173  20.309  0.00  0.00    +0.000 A 
ATOM      7  N   UNL     1       0.762  10.901  19.439  0.00  0.00    +0.000 N 
ATOM      8  N   UNL     1       1.661  10.126  18.796  0.00  0.00    +0.000 NA
ATOM      9  C   UNL     1       0.508  12.310  19.118  0.00  0.00    +0.000 C 
ATOM     10  C   UNL     1      -0.627  12.892  19.948  0.00  0.00    +0.000 C 
ATOM     11  C   UNL     1      -1.322  12.112  20.802  0.00  0.00    +0.000 C 
ATOM     12  N   UNL     1      -1.016  10.776  20.964  0.00  0.00    +0.000 N 
ATOM     13  H   UNL     1       2.818   7.974  18.275  0.00  0.00    +0.000 HD
ATOM     14  H   UNL     1      -1.618  10.223  21.567  0.00  0.00    +0.000 HD
ENDROOT
BRANCH   9  15
ATOM     15  C   UNL     1       1.786  13.131  19.214  0.00  0.00    +0.000 A 
ATOM     16  C   UNL     1       2.297  13.469  20.481  0.00  0.00    +0.000 A 
ATOM     17  C   UNL     1       3.434  14.269  20.597  0.00  0.00    +0.000 A 
ATOM     18  C   UNL     1       4.066  14.731  19.449  0.00  0.00    +0.000 A 
ATOM     19  F   UNL     1       5.141  15.519  19.563  0.00  0.00    +0.000 F 
ATOM     20  C   UNL     1       3.591  14.398  18.187  0.00  0.00    +0.000 A 
ATOM     21  C   UNL     1       2.453  13.594  18.066  0.00  0.00    +0.000 A 
ENDBRANCH   9  15
BRANCH  11  22
ATOM     22  C   UNL     1      -2.446  12.673  21.569  0.00  0.00    +0.000 A 
ATOM     23  C   UNL     1      -2.645  12.302  22.906  0.00  0.00    +0.000 A 
ATOM     24  C   UNL     1      -3.733  12.807  23.627  0.00  0.00    +0.000 A 
ATOM     25  C   UNL     1      -4.620  13.691  23.015  0.00  0.00    +0.000 A 
ATOM     26 CL   UNL     1      -5.960  14.309  23.900  0.00  0.00    +0.000 Cl
ATOM     27  C   UNL     1      -4.428  14.074  21.689  0.00  0.00    +0.000 A 
ATOM     28  C   UNL     1      -3.345  13.564  20.967  0.00  0.00    +0.000 A 
ENDBRANCH  11  22
BRANCH   1  34
ATOM     29  C   UNL     1       3.979   5.633  18.179  0.00  0.00    +0.000 A 
ATOM     30  C   UNL     1       4.719   4.487  17.842  0.00  0.00    +0.000 A 
ATOM     31  C   UNL     1       4.634   3.315  18.600  0.00  0.00    +0.000 A 
ATOM     32  C   UNL     1       3.795   3.267  19.695  0.00  0.00    +0.000 A 
ATOM     33  C   UNL     1       3.041   4.384  20.036  0.00  0.00    +0.000 A 
ATOM     34  C   UNL     1       3.112   5.578  19.287  0.00  0.00    +0.000 A 
BRANCH  29  36
ATOM     35  C   UNL     1       5.035   6.763  16.384  0.00  0.00    +0.000 C 
ATOM     36  O   UNL     1       4.065   6.784  17.438  0.00  0.00    +0.000 OA
ENDBRANCH  29  36
ENDBRANCH   1  34
TORSDOF 4
ENDMDL
MODEL 6
REMARK VINA RESULT:      -7.8      1.224      1.934
REMARK  Name = 
REMARK  5 active torsions:
REMARK  status: ('A' for Active; 'I' for Inactive)
REMARK    1  A    between atoms: C_1  and  O_2
REMARK    2  A    between atoms: O_2  and  C_3
REMARK    3  A    between atoms: C_8  and  C_9
REMARK    4  A    between atoms: C_17  and  C_18
REMARK    5  A    between atoms: C_26  and  C_27
REMARK                            x       y       z     vdW  Elec       q    Type
REMARK                         _______ _______ _______ _____ _____    ______ ____
ROOT
ATOM      1  C   UNL     1       2.548   7.398  18.493  0.00  0.00    +0.000 C 
ATOM      2  O   UNL     1       1.945   7.096  19.520  0.00  0.00    +0.000 OA
ATOM      3  N   UNL     1       2.562   8.654  17.938  0.00  0.00    +0.000 N 
ATOM      4  C   UNL     1       1.868   9.722  18.438  0.00  0.00    +0.000 A 
ATOM      5  N   UNL     1       0.850   9.626  19.356  0.00  0.00    +0.000 NA
ATOM      6  C   UNL     1       0.476  10.864  19.535  0.00  0.00    +0.000 A 
ATOM      7  N   UNL     1       1.263  11.677  18.767  0.00  0.00    +0.000 N 
ATOM      8  N   UNL     1       2.119  10.964  18.006  0.00  0.00    +0.000 NA
ATOM      9  C   UNL     1       1.071  13.127  18.658  0.00  0.00    +0.000 C 
ATOM     10  C   UNL     1      -0.029  13.631  19.581  0.00  0.00    +0.000 C 
ATOM     11  C   UNL     1      -0.752  12.767  20.323  0.00  0.00    +0.000 C 
ATOM     12  N   UNL     1      -0.506  11.409  20.286  0.00  0.00    +0.000 N 
ATOM     13  H   UNL     1       3.172   8.862  17.161  0.00  0.00    +0.000 HD
ATOM     14  H   UNL     1      -1.127  10.802  20.811  0.00  0.00    +0.000 HD
ENDROOT
BRANCH   9  15
ATOM     15  C   UNL     1       2.386  13.868  18.853  0.00  0.00    +0.000 A 
ATOM     16  C   UNL     1       2.949  13.951  20.140  0.00  0.00    +0.000 A 
ATOM     17  C   UNL     1       4.123  14.674  20.356  0.00  0.00    +0.000 A 
ATOM     18  C   UNL     1       4.740  15.311  19.287  0.00  0.00    +0.000 A 
ATOM     19  F   UNL     1       5.852  16.025  19.500  0.00  0.00    +0.000 F 
ATOM     20  C   UNL     1       4.213  15.231  18.004  0.00  0.00    +0.000 A 
ATOM     21  C   UNL     1       3.039  14.506  17.782  0.00  0.00    +0.000 A 
ENDBRANCH   9  15
BRANCH  11  22
ATOM     22  C   UNL     1      -1.842  13.260  21.181  0.00  0.00    +0.000 A 
ATOM     23  C   UNL     1      -1.614  14.305  22.086  0.00  0.00    +0.000 A 
ATOM     24  C   UNL     1      -2.640  14.751  22.927  0.00  0.00    +0.000 A 
ATOM     25  C   UNL     1      -3.899  14.157  22.859  0.00  0.00    +0.000 A 
ATOM     26 CL   UNL     1      -5.159  14.703  23.896  0.00  0.00    +0.000 Cl
ATOM     27  C   UNL     1      -4.141  13.123  21.957  0.00  0.00    +0.000 A 
ATOM     28  C   UNL     1      -3.114  12.673  21.121  0.00  0.00    +0.000 A 
ENDBRANCH  11  22
BRANCH   1  34
ATOM     29  C   UNL     1       3.090   4.953  17.786  0.00  0.00    +0.000 A 
ATOM     30  C   UNL     1       3.972   4.100  17.099  0.00  0.00    +0.000 A 
ATOM     31  C   UNL     1       5.087   4.600  16.421  0.00  0.00    +0.000 A 
ATOM     32  C   UNL     1       5.347   5.956  16.433  0.00  0.00    +0.000 A 
ATOM     33  C   UNL     1       4.498   6.814  17.121  0.00  0.00    +0.000 A 
ATOM     34  C   UNL     1       3.365   6.333  17.811  0.00  0.00    +0.000 A 
BRANCH  29  36
ATOM     35  C   UNL     1       1.695   3.083  18.204  0.00  0.00    +0.000 C 
ATOM     36  O   UNL     1       1.993   4.463  18.448  0.00  0.00    +0.000 OA
ENDBRANCH  29  36
ENDBRANCH   1  34
TORSDOF 4
ENDMDL
MODEL 7
REMARK VINA RESULT:      -7.8      3.946      7.305
REMARK  Name = 
REMARK  5 active torsions:
REMARK  status: ('A' for Active; 'I' for Inactive)
REMARK    1  A    between atoms: C_1  and  O_2
REMARK    2  A    between atoms: O_2  and  C_3
REMARK    3  A    between atoms: C_8  and  C_9
REMARK    4  A    between atoms: C_17  and  C_18
REMARK    5  A    between atoms: C_26  and  C_27
REMARK                            x       y       z     vdW  Elec       q    Type
REMARK                         _______ _______ _______ _____ _____    ______ ____
ROOT
ATOM      1  C   UNL     1       3.984  15.208  18.298  0.00  0.00    +0.000 C 
ATOM      2  O   UNL     1       3.192  15.714  17.506  0.00  0.00    +0.000 OA
ATOM      3  N   UNL     1       3.707  14.120  19.088  0.00  0.00    +0.000 N 
ATOM      4  C   UNL     1       2.494  13.488  19.127  0.00  0.00    +0.000 A 
ATOM      5  N   UNL     1       1.327  14.015  18.628  0.00  0.00    +0.000 NA
ATOM      6  C   UNL     1       0.437  13.095  18.885  0.00  0.00    +0.000 A 
ATOM      7  N   UNL     1       1.057  12.041  19.496  0.00  0.00    +0.000 N 
ATOM      8  N   UNL     1       2.363  12.295  19.721  0.00  0.00    +0.000 NA
ATOM      9  C   UNL     1       0.347  10.860  20.000  0.00  0.00    +0.000 C 
ATOM     10  C   UNL     1      -1.137  10.898  19.665  0.00  0.00    +0.000 C 
ATOM     11  C   UNL     1      -1.674  11.967  19.043  0.00  0.00    +0.000 C 
ATOM     12  N   UNL     1      -0.897  13.048  18.675  0.00  0.00    +0.000 N 
ATOM     13  H   UNL     1       4.439  13.682  19.629  0.00  0.00    +0.000 HD
ATOM     14  H   UNL     1      -1.367  13.853  18.273  0.00  0.00    +0.000 HD
ENDROOT
BRANCH   9  15
ATOM     15  C   UNL     1       1.022   9.577  19.536  0.00  0.00    +0.000 A 
ATOM     16  C   UNL     1       1.330   8.578  20.478  0.00  0.00    +0.000 A 
ATOM     17  C   UNL     1       2.001   7.418  20.088  0.00  0.00    +0.000 A 
ATOM     18  C   UNL     1       2.362   7.252  18.757  0.00  0.00    +0.000 A 
ATOM     19  F   UNL     1       3.027   6.150  18.390  0.00  0.00    +0.000 F 
ATOM     20  C   UNL     1       2.055   8.216  17.805  0.00  0.00    +0.000 A 
ATOM     21  C   UNL     1       1.381   9.378  18.191  0.00  0.00    +0.000 A 
ENDBRANCH   9  15
BRANCH  11  22
ATOM     22  C   UNL     1      -3.118  12.013  18.761  0.00  0.00    +0.000 A 
ATOM     23  C   UNL     1      -3.615  11.547  17.537  0.00  0.00    +0.000 A 
ATOM     24  C   UNL     1      -4.983  11.621  17.253  0.00  0.00    +0.000 A 
ATOM     25  C   UNL     1      -5.859  12.156  18.197  0.00  0.00    +0.000 A 
ATOM     26 CL   UNL     1      -7.540  12.252  17.846  0.00  0.00    +0.000 Cl
ATOM     27  C   UNL     1      -5.378  12.616  19.421  0.00  0.00    +0.000 A 
ATOM     28  C   UNL     1      -4.010  12.547  19.702  0.00  0.00    +0.000 A 
ENDBRANCH  11  22
BRANCH   1  34
ATOM     29  C   UNL     1       5.737  17.000  18.996  0.00  0.00    +0.000 A 
ATOM     30  C   UNL     1       7.088  17.388  18.975  0.00  0.00    +0.000 A 
ATOM     31  C   UNL     1       8.068  16.582  18.387  0.00  0.00    +0.000 A 
ATOM     32  C   UNL     1       7.709  15.385  17.798  0.00  0.00    +0.000 A 
ATOM     33  C   UNL     1       6.376  14.992  17.794  0.00  0.00    +0.000 A 
ATOM     34  C   UNL     1       5.370  15.787  18.382  0.00  0.00    +0.000 A 
BRANCH  29  36
ATOM     35  C   UNL     1       4.664  17.672  20.999  0.00  0.00    +0.000 C 
ATOM     36  O   UNL     1       4.777  17.789  19.576  0.00  0.00    +0.000 OA
ENDBRANCH  29  36
ENDBRANCH   1  34
TORSDOF 4
ENDMDL
MODEL 8
REMARK VINA RESULT:      -7.8      1.286      2.149
REMARK  Name = 
REMARK  5 active torsions:
REMARK  status: ('A' for Active; 'I' for Inactive)
REMARK    1  A    between atoms: C_1  and  O_2
REMARK    2  A    between atoms: O_2  and  C_3
REMARK    3  A    between atoms: C_8  and  C_9
REMARK    4  A    between atoms: C_17  and  C_18
REMARK    5  A    between atoms: C_26  and  C_27
REMARK                            x       y       z     vdW  Elec       q    Type
REMARK                         _______ _______ _______ _____ _____    ______ ____
ROOT
ATOM      1  C   UNL     1       3.093   6.941  17.956  0.00  0.00    +0.000 C 
ATOM      2  O   UNL     1       2.223   6.463  18.680  0.00  0.00    +0.000 OA
ATOM      3  N   UNL     1       3.165   8.262  17.591  0.00  0.00    +0.000 N 
ATOM      4  C   UNL     1       2.246   9.210  17.952  0.00  0.00    +0.000 A 
ATOM      5  N   UNL     1       1.000   8.929  18.459  0.00  0.00    +0.000 NA
ATOM      6  C   UNL     1       0.470  10.108  18.647  0.00  0.00    +0.000 A 
ATOM      7  N   UNL     1       1.381  11.062  18.289  0.00  0.00    +0.000 N 
ATOM      8  N   UNL     1       2.503  10.512  17.779  0.00  0.00    +0.000 NA
ATOM      9  C   UNL     1       1.096  12.501  18.294  0.00  0.00    +0.000 C 
ATOM     10  C   UNL     1      -0.288  12.810  18.849  0.00  0.00    +0.000 C 
ATOM     11  C   UNL     1      -1.125  11.812  19.199  0.00  0.00    +0.000 C 
ATOM     12  N   UNL     1      -0.750  10.487  19.086  0.00  0.00    +0.000 N 
ATOM     13  H   UNL     1       3.971   8.611  17.092  0.00  0.00    +0.000 HD
ATOM     14  H   UNL     1      -1.446   9.780  19.298  0.00  0.00    +0.000 HD
ENDROOT
BRANCH   9  15
ATOM     15  C   UNL     1       2.198  13.274  19.003  0.00  0.00    +0.000 A 
ATOM     16  C   UNL     1       2.254  13.266  20.409  0.00  0.00    +0.000 A 
ATOM     17  C   UNL     1       3.219  14.014  21.086  0.00  0.00    +0.000 A 
ATOM     18  C   UNL     1       4.133  14.767  20.360  0.00  0.00    +0.000 A 
ATOM     19  F   UNL     1       5.041  15.503  21.011  0.00  0.00    +0.000 F 
ATOM     20  C   UNL     1       4.109  14.779  18.971  0.00  0.00    +0.000 A 
ATOM     21  C   UNL     1       3.145  14.030  18.289  0.00  0.00    +0.000 A 
ENDBRANCH   9  15
BRANCH  11  22
ATOM     22  C   UNL     1      -2.476  12.118  19.695  0.00  0.00    +0.000 A 
ATOM     23  C   UNL     1      -3.603  11.790  18.928  0.00  0.00    +0.000 A 
ATOM     24  C   UNL     1      -4.887  12.111  19.382  0.00  0.00    +0.000 A 
ATOM     25  C   UNL     1      -5.048  12.756  20.608  0.00  0.00    +0.000 A 
ATOM     26 CL   UNL     1      -6.626  13.155  21.164  0.00  0.00    +0.000 Cl
ATOM     27  C   UNL     1      -3.936  13.079  21.383  0.00  0.00    +0.000 A 
ATOM     28  C   UNL     1      -2.653  12.764  20.926  0.00  0.00    +0.000 A 
ENDBRANCH  11  22
BRANCH   1  34
ATOM     29  C   UNL     1       4.056   4.669  17.127  0.00  0.00    +0.000 A 
ATOM     30  C   UNL     1       5.193   3.968  16.689  0.00  0.00    +0.000 A 
ATOM     31  C   UNL     1       6.432   4.602  16.555  0.00  0.00    +0.000 A 
ATOM     32  C   UNL     1       6.555   5.940  16.873  0.00  0.00    +0.000 A 
ATOM     33  C   UNL     1       5.447   6.647  17.325  0.00  0.00    +0.000 A 
ATOM     34  C   UNL     1       4.186   6.029  17.466  0.00  0.00    +0.000 A 
BRANCH  29  36
ATOM     35  C   UNL     1       2.864   2.782  17.924  0.00  0.00    +0.000 C 
ATOM     36  O   UNL     1       2.839   4.048  17.255  0.00  0.00    +0.000 OA
ENDBRANCH  29  36
ENDBRANCH   1  34
TORSDOF 4
ENDMDL
MODEL 9
REMARK VINA RESULT:      -7.8      1.470      2.374
REMARK  Name = 
REMARK  5 active torsions:
REMARK  status: ('A' for Active; 'I' for Inactive)
REMARK    1  A    between atoms: C_1  and  O_2
REMARK    2  A    between atoms: O_2  and  C_3
REMARK    3  A    between atoms: C_8  and  C_9
REMARK    4  A    between atoms: C_17  and  C_18
REMARK    5  A    between atoms: C_26  and  C_27
REMARK                            x       y       z     vdW  Elec       q    Type
REMARK                         _______ _______ _______ _____ _____    ______ ____
ROOT
ATOM      1  C   UNL     1       2.304   6.732  19.563  0.00  0.00    +0.000 C 
ATOM      2  O   UNL     1       1.685   6.496  20.598  0.00  0.00    +0.000 OA
ATOM      3  N   UNL     1       2.263   7.924  18.885  0.00  0.00    +0.000 N 
ATOM      4  C   UNL     1       1.489   8.991  19.253  0.00  0.00    +0.000 A 
ATOM      5  N   UNL     1       0.447   8.923  20.146  0.00  0.00    +0.000 NA
ATOM      6  C   UNL     1      -0.007  10.147  20.186  0.00  0.00    +0.000 A 
ATOM      7  N   UNL     1       0.757  10.927  19.364  0.00  0.00    +0.000 N 
ATOM      8  N   UNL     1       1.681  10.197  18.704  0.00  0.00    +0.000 NA
ATOM      9  C   UNL     1       0.484  12.344  19.102  0.00  0.00    +0.000 C 
ATOM     10  C   UNL     1      -0.677  12.867  19.936  0.00  0.00    +0.000 C 
ATOM     11  C   UNL     1      -1.373  12.038  20.741  0.00  0.00    +0.000 C 
ATOM     12  N   UNL     1      -1.045  10.701  20.849  0.00  0.00    +0.000 N 
ATOM     13  H   UNL     1       2.887   8.092  18.108  0.00  0.00    +0.000 HD
ATOM     14  H   UNL     1      -1.647  10.112  21.415  0.00  0.00    +0.000 HD
ENDROOT
BRANCH   9  15
ATOM     15  C   UNL     1       1.745  13.182  19.259  0.00  0.00    +0.000 A 
ATOM     16  C   UNL     1       2.387  13.685  18.113  0.00  0.00    +0.000 A 
ATOM     17  C   UNL     1       3.577  14.407  18.226  0.00  0.00    +0.000 A 
ATOM     18  C   UNL     1       4.124  14.630  19.483  0.00  0.00    +0.000 A 
ATOM     19  F   UNL     1       5.278  15.300  19.586  0.00  0.00    +0.000 F 
ATOM     20  C   UNL     1       3.501  14.157  20.630  0.00  0.00    +0.000 A 
ATOM     21  C   UNL     1       2.308  13.436  20.522  0.00  0.00    +0.000 A 
ENDBRANCH   9  15
BRANCH  11  22
ATOM     22  C   UNL     1      -2.520  12.544  21.512  0.00  0.00    +0.000 A 
ATOM     23  C   UNL     1      -3.694  12.939  20.857  0.00  0.00    +0.000 A 
ATOM     24  C   UNL     1      -4.774  13.452  21.585  0.00  0.00    +0.000 A 
ATOM     25  C   UNL     1      -4.683  13.565  22.971  0.00  0.00    +0.000 A 
ATOM     26 CL   UNL     1      -6.008  14.201  23.866  0.00  0.00    +0.000 Cl
ATOM     27  C   UNL     1      -3.524  13.168  23.635  0.00  0.00    +0.000 A 
ATOM     28  C   UNL     1      -2.444  12.661  22.907  0.00  0.00    +0.000 A 
ENDBRANCH  11  22
BRANCH   1  34
ATOM     29  C   UNL     1       2.807   4.482  18.354  0.00  0.00    +0.000 A 
ATOM     30  C   UNL     1       3.794   3.584  17.914  0.00  0.00    +0.000 A 
ATOM     31  C   UNL     1       5.154   3.852  18.094  0.00  0.00    +0.000 A 
ATOM     32  C   UNL     1       5.546   5.013  18.731  0.00  0.00    +0.000 A 
ATOM     33  C   UNL     1       4.585   5.906  19.190  0.00  0.00    +0.000 A 
ATOM     34  C   UNL     1       3.207   5.658  19.018  0.00  0.00    +0.000 A 
BRANCH  29  36
ATOM     35  C   UNL     1       1.033   2.933  18.625  0.00  0.00    +0.000 C 
ATOM     36  O   UNL     1       1.472   4.221  18.175  0.00  0.00    +0.000 OA
ENDBRANCH  29  36
ENDBRANCH   1  34
TORSDOF 4
ENDMDL
