MODEL 1
REMARK VINA RESULT:      -6.8      0.000      0.000
REMARK  Name = 
REMARK  3 active torsions:
REMARK  status: ('A' for Active; 'I' for Inactive)
REMARK    1  A    between atoms: C_2  and  C_3
REMARK    2  A    between atoms: N_14  and  C_15
REMARK    3  A    between atoms: C_15  and  C_16
REMARK                            x       y       z     vdW  Elec       q    Type
REMARK                         _______ _______ _______ _____ _____    ______ ____
ROOT
ATOM      1  O   UNL     1       6.248   4.060  18.861  0.00  0.00    +0.000 OA
ATOM      2  C   UNL     1       5.427   4.066  17.939  0.00  0.00    +0.000 C 
ATOM      3  N   UNL     1       4.056   3.758  18.231  0.00  0.00    +0.000 N 
ATOM      4  C   UNL     1       3.071   3.621  17.182  0.00  0.00    +0.000 C 
ATOM      5  C   UNL     1       1.598   3.742  17.578  0.00  0.00    +0.000 C 
ATOM      6  O   UNL     1       1.144   2.871  18.603  0.00  0.00    +0.000 OA
ATOM      7  C   UNL     1       1.275   3.321  19.946  0.00  0.00    +0.000 C 
ATOM      8  C   UNL     1       0.694   4.690  20.310  0.00  0.00    +0.000 C 
ATOM      9  N   UNL     1       1.797   5.554  20.777  0.00  0.00    +0.000 NA
ATOM     10  C   UNL     1       2.874   4.656  21.210  0.00  0.00    +0.000 C 
ATOM     11  C   UNL     1       2.697   3.341  20.455  0.00  0.00    +0.000 C 
ATOM     12  C   UNL     1       3.763   2.959  19.438  0.00  0.00    +0.000 C 
ENDROOT
BRANCH   2  13
ATOM     13  C   UNL     1       6.015   4.342  16.594  0.00  0.00    +0.000 A 
ATOM     14  C   UNL     1       5.733   3.469  15.448  0.00  0.00    +0.000 A 
ATOM     15  C   UNL     1       6.274   3.890  14.251  0.00  0.00    +0.000 A 
ATOM     16  S   UNL     1       7.173   5.319  14.455  0.00  0.00    +0.000 S 
ATOM     17  C   UNL     1       6.788   5.389  16.130  0.00  0.00    +0.000 A 
ENDBRANCH   2  13
BRANCH   9  18
ATOM     18  C   UNL     1       2.313   6.504  19.779  0.00  0.00    +0.000 C 
BRANCH  18  19
ATOM     19  C   UNL     1       1.739   7.890  19.896  0.00  0.00    +0.000 A 
ATOM     20  N   UNL     1       1.671   8.739  18.889  0.00  0.00    +0.000 NA
ATOM     21  C   UNL     1       1.030   9.889  19.297  0.00  0.00    +0.000 A 
ATOM     22  C   UNL     1       0.616   9.904  20.611  0.00  0.00    +0.000 A 
ATOM     23  S   UNL     1       1.071   8.445  21.382  0.00  0.00    +0.000 S 
ENDBRANCH  18  19
ENDBRANCH   9  18
TORSDOF 3
ENDMDL
MODEL 2
REMARK VINA RESULT:      -6.6      0.880      1.229
REMARK  Name = 
REMARK  3 active torsions:
REMARK  status: ('A' for Active; 'I' for Inactive)
REMARK    1  A    between atoms: C_2  and  C_3
REMARK    2  A    between atoms: N_14  and  C_15
REMARK    3  A    between atoms: C_15  and  C_16
REMARK                            x       y       z     vdW  Elec       q    Type
REMARK                         _______ _______ _______ _____ _____    ______ ____
ROOT
ATOM      1  O   UNL     1       6.233   4.015  18.767  0.00  0.00    +0.000 OA
ATOM      2  C   UNL     1       5.383   4.006  17.871  0.00  0.00    +0.000 C 
ATOM      3  N   UNL     1       4.036   3.635  18.200  0.00  0.00    +0.000 N 
ATOM      4  C   UNL     1       3.024   3.478  17.180  0.00  0.00    +0.000 C 
ATOM      5  C   UNL     1       1.561   3.529  17.624  0.00  0.00    +0.000 C 
ATOM      6  O   UNL     1       1.177   2.619  18.644  0.00  0.00    +0.000 OA
ATOM      7  C   UNL     1       1.332   3.048  19.991  0.00  0.00    +0.000 C 
ATOM      8  C   UNL     1       0.708   4.384  20.402  0.00  0.00    +0.000 C 
ATOM      9  N   UNL     1       1.789   5.284  20.853  0.00  0.00    +0.000 NA
ATOM     10  C   UNL     1       2.916   4.423  21.232  0.00  0.00    +0.000 C 
ATOM     11  C   UNL     1       2.768   3.118  20.456  0.00  0.00    +0.000 C 
ATOM     12  C   UNL     1       3.815   2.800  19.398  0.00  0.00    +0.000 C 
ENDROOT
BRANCH   2  13
ATOM     13  C   UNL     1       5.915   4.332  16.515  0.00  0.00    +0.000 A 
ATOM     14  C   UNL     1       6.708   5.545  16.281  0.00  0.00    +0.000 A 
ATOM     15  C   UNL     1       7.204   5.676  15.000  0.00  0.00    +0.000 A 
ATOM     16  S   UNL     1       6.709   4.380  14.017  0.00  0.00    +0.000 S 
ATOM     17  C   UNL     1       5.880   3.631  15.324  0.00  0.00    +0.000 A 
ENDBRANCH   2  13
BRANCH   9  18
ATOM     18  C   UNL     1       2.233   6.275  19.860  0.00  0.00    +0.000 C 
BRANCH  18  19
ATOM     19  C   UNL     1       1.652   7.648  20.060  0.00  0.00    +0.000 A 
ATOM     20  N   UNL     1       1.128   8.060  21.198  0.00  0.00    +0.000 NA
ATOM     21  C   UNL     1       0.753   9.381  21.082  0.00  0.00    +0.000 A 
ATOM     22  C   UNL     1       0.995   9.962  19.857  0.00  0.00    +0.000 A 
ATOM     23  S   UNL     1       1.684   8.812  18.793  0.00  0.00    +0.000 S 
ENDBRANCH  18  19
ENDBRANCH   9  18
TORSDOF 3
ENDMDL
MODEL 3
REMARK VINA RESULT:      -6.6      3.016      7.072
REMARK  Name = 
REMARK  3 active torsions:
REMARK  status: ('A' for Active; 'I' for Inactive)
REMARK    1  A    between atoms: C_2  and  C_3
REMARK    2  A    between atoms: N_14  and  C_15
REMARK    3  A    between atoms: C_15  and  C_16
REMARK                            x       y       z     vdW  Elec       q    Type
REMARK                         _______ _______ _______ _____ _____    ______ ____
ROOT
ATOM      1  O   UNL     1       5.109   2.688  19.855  0.00  0.00    +0.000 OA
ATOM      2  C   UNL     1       4.327   3.492  19.337  0.00  0.00    +0.000 C 
ATOM      3  N   UNL     1       4.849   4.717  18.800  0.00  0.00    +0.000 N 
ATOM      4  C   UNL     1       3.978   5.755  18.298  0.00  0.00    +0.000 C 
ATOM      5  C   UNL     1       4.590   6.795  17.358  0.00  0.00    +0.000 C 
ATOM      6  O   UNL     1       5.728   7.493  17.840  0.00  0.00    +0.000 OA
ATOM      7  C   UNL     1       7.001   6.906  17.601  0.00  0.00    +0.000 C 
ATOM      8  C   UNL     1       7.361   6.516  16.166  0.00  0.00    +0.000 C 
ATOM      9  N   UNL     1       7.592   5.059  16.123  0.00  0.00    +0.000 NA
ATOM     10  C   UNL     1       7.910   4.648  17.496  0.00  0.00    +0.000 C 
ATOM     11  C   UNL     1       7.280   5.676  18.432  0.00  0.00    +0.000 C 
ATOM     12  C   UNL     1       6.137   5.215  19.325  0.00  0.00    +0.000 C 
ENDROOT
BRANCH   2  13
ATOM     13  C   UNL     1       2.892   3.085  19.404  0.00  0.00    +0.000 A 
ATOM     14  C   UNL     1       2.051   3.452  20.550  0.00  0.00    +0.000 A 
ATOM     15  C   UNL     1       0.726   3.082  20.439  0.00  0.00    +0.000 A 
ATOM     16  S   UNL     1       0.444   2.247  18.985  0.00  0.00    +0.000 S 
ATOM     17  C   UNL     1       2.082   2.432  18.494  0.00  0.00    +0.000 A 
ENDBRANCH   2  13
BRANCH   9  18
ATOM     18  C   UNL     1       6.466   4.261  15.614  0.00  0.00    +0.000 C 
BRANCH  18  19
ATOM     19  C   UNL     1       6.501   4.026  14.128  0.00  0.00    +0.000 A 
ATOM     20  N   UNL     1       5.632   3.268  13.488  0.00  0.00    +0.000 NA
ATOM     21  C   UNL     1       5.888   3.315  12.135  0.00  0.00    +0.000 A 
ATOM     22  C   UNL     1       6.949   4.108  11.757  0.00  0.00    +0.000 A 
ATOM     23  S   UNL     1       7.681   4.798  13.142  0.00  0.00    +0.000 S 
ENDBRANCH  18  19
ENDBRANCH   9  18
TORSDOF 3
ENDMDL
MODEL 4
REMARK VINA RESULT:      -6.5      2.107      5.929
REMARK  Name = 
REMARK  3 active torsions:
REMARK  status: ('A' for Active; 'I' for Inactive)
REMARK    1  A    between atoms: C_2  and  C_3
REMARK    2  A    between atoms: N_14  and  C_15
REMARK    3  A    between atoms: C_15  and  C_16
REMARK                            x       y       z     vdW  Elec       q    Type
REMARK                         _______ _______ _______ _____ _____    ______ ____
ROOT
ATOM      1  O   UNL     1       2.307   7.397  17.833  0.00  0.00    +0.000 OA
ATOM      2  C   UNL     1       1.914   6.935  18.909  0.00  0.00    +0.000 C 
ATOM      3  N   UNL     1       1.799   5.511  19.049  0.00  0.00    +0.000 N 
ATOM      4  C   UNL     1       1.226   4.911  20.231  0.00  0.00    +0.000 C 
ATOM      5  C   UNL     1       1.542   3.438  20.500  0.00  0.00    +0.000 C 
ATOM      6  O   UNL     1       1.236   2.524  19.458  0.00  0.00    +0.000 OA
ATOM      7  C   UNL     1       2.240   2.295  18.477  0.00  0.00    +0.000 C 
ATOM      8  C   UNL     1       3.637   1.892  18.953  0.00  0.00    +0.000 C 
ATOM      9  N   UNL     1       4.596   2.923  18.510  0.00  0.00    +0.000 NA
ATOM     10  C   UNL     1       3.967   3.617  17.379  0.00  0.00    +0.000 C 
ATOM     11  C   UNL     1       2.458   3.453  17.532  0.00  0.00    +0.000 C 
ATOM     12  C   UNL     1       1.636   4.701  17.825  0.00  0.00    +0.000 C 
ENDROOT
BRANCH   2  13
ATOM     13  C   UNL     1       1.542   7.966  19.922  0.00  0.00    +0.000 A 
ATOM     14  C   UNL     1       1.084   9.301  19.516  0.00  0.00    +0.000 A 
ATOM     15  C   UNL     1       0.695  10.121  20.554  0.00  0.00    +0.000 A 
ATOM     16  S   UNL     1       0.901   9.348  22.055  0.00  0.00    +0.000 S 
ATOM     17  C   UNL     1       1.459   7.907  21.300  0.00  0.00    +0.000 A 
ENDBRANCH   2  13
BRANCH   9  18
ATOM     18  C   UNL     1       4.984   3.901  19.539  0.00  0.00    +0.000 C 
BRANCH  18  19
ATOM     19  C   UNL     1       5.965   4.938  19.063  0.00  0.00    +0.000 A 
ATOM     20  N   UNL     1       7.148   5.131  19.613  0.00  0.00    +0.000 NA
ATOM     21  C   UNL     1       7.834   6.095  18.907  0.00  0.00    +0.000 A 
ATOM     22  C   UNL     1       7.167   6.627  17.825  0.00  0.00    +0.000 A 
ATOM     23  S   UNL     1       5.610   5.926  17.700  0.00  0.00    +0.000 S 
ENDBRANCH  18  19
ENDBRANCH   9  18
TORSDOF 3
ENDMDL
MODEL 5
REMARK VINA RESULT:      -6.5      2.126      5.884
REMARK  Name = 
REMARK  3 active torsions:
REMARK  status: ('A' for Active; 'I' for Inactive)
REMARK    1  A    between atoms: C_2  and  C_3
REMARK    2  A    between atoms: N_14  and  C_15
REMARK    3  A    between atoms: C_15  and  C_16
REMARK                            x       y       z     vdW  Elec       q    Type
REMARK                         _______ _______ _______ _____ _____    ______ ____
ROOT
ATOM      1  O   UNL     1       2.129   7.486  17.739  0.00  0.00    +0.000 OA
ATOM      2  C   UNL     1       1.920   7.093  18.892  0.00  0.00    +0.000 C 
ATOM      3  N   UNL     1       1.965   5.684  19.161  0.00  0.00    +0.000 N 
ATOM      4  C   UNL     1       1.603   5.149  20.454  0.00  0.00    +0.000 C 
ATOM      5  C   UNL     1       2.094   3.742  20.798  0.00  0.00    +0.000 C 
ATOM      6  O   UNL     1       1.754   2.711  19.882  0.00  0.00    +0.000 OA
ATOM      7  C   UNL     1       2.648   2.480  18.800  0.00  0.00    +0.000 C 
ATOM      8  C   UNL     1       4.126   2.247  19.120  0.00  0.00    +0.000 C 
ATOM      9  N   UNL     1       4.916   3.313  18.472  0.00  0.00    +0.000 NA
ATOM     10  C   UNL     1       4.087   3.840  17.381  0.00  0.00    +0.000 C 
ATOM     11  C   UNL     1       2.632   3.559  17.744  0.00  0.00    +0.000 C 
ATOM     12  C   UNL     1       1.733   4.752  18.039  0.00  0.00    +0.000 C 
ENDROOT
BRANCH   2  13
ATOM     13  C   UNL     1       1.575   8.178  19.858  0.00  0.00    +0.000 A 
ATOM     14  C   UNL     1       1.151   9.504  19.392  0.00  0.00    +0.000 A 
ATOM     15  C   UNL     1       0.784  10.380  20.392  0.00  0.00    +0.000 A 
ATOM     16  S   UNL     1       0.971   9.670  21.926  0.00  0.00    +0.000 S 
ATOM     17  C   UNL     1       1.491   8.182  21.237  0.00  0.00    +0.000 A 
ENDBRANCH   2  13
BRANCH   9  18
ATOM     18  C   UNL     1       5.329   4.412  19.358  0.00  0.00    +0.000 C 
BRANCH  18  19
ATOM     19  C   UNL     1       6.117   5.493  18.669  0.00  0.00    +0.000 A 
ATOM     20  N   UNL     1       5.604   6.308  17.766  0.00  0.00    +0.000 NA
ATOM     21  C   UNL     1       6.556   7.227  17.382  0.00  0.00    +0.000 A 
ATOM     22  C   UNL     1       7.783   7.106  17.995  0.00  0.00    +0.000 A 
ATOM     23  S   UNL     1       7.767   5.772  19.068  0.00  0.00    +0.000 S 
ENDBRANCH  18  19
ENDBRANCH   9  18
TORSDOF 3
ENDMDL
MODEL 6
REMARK VINA RESULT:      -6.3      4.370      7.552
REMARK  Name = 
REMARK  3 active torsions:
REMARK  status: ('A' for Active; 'I' for Inactive)
REMARK    1  A    between atoms: C_2  and  C_3
REMARK    2  A    between atoms: N_14  and  C_15
REMARK    3  A    between atoms: C_15  and  C_16
REMARK                            x       y       z     vdW  Elec       q    Type
REMARK                         _______ _______ _______ _____ _____    ______ ____
ROOT
ATOM      1  O   UNL     1       2.079   9.909  17.550  0.00  0.00    +0.000 OA
ATOM      2  C   UNL     1       1.733   9.481  18.656  0.00  0.00    +0.000 C 
ATOM      3  N   UNL     1       1.148  10.394  19.598  0.00  0.00    +0.000 N 
ATOM      4  C   UNL     1       0.841   9.990  20.951  0.00  0.00    +0.000 C 
ATOM      5  C   UNL     1      -0.163  10.842  21.731  0.00  0.00    +0.000 C 
ATOM      6  O   UNL     1       0.129  12.228  21.834  0.00  0.00    +0.000 OA
ATOM      7  C   UNL     1      -0.351  13.074  20.796  0.00  0.00    +0.000 C 
ATOM      8  C   UNL     1      -1.838  13.012  20.442  0.00  0.00    +0.000 C 
ATOM      9  N   UNL     1      -1.965  12.584  19.034  0.00  0.00    +0.000 NA
ATOM     10  C   UNL     1      -0.683  12.895  18.389  0.00  0.00    +0.000 C 
ATOM     11  C   UNL     1       0.380  12.916  19.483  0.00  0.00    +0.000 C 
ATOM     12  C   UNL     1       1.448  11.833  19.454  0.00  0.00    +0.000 C 
ENDROOT
BRANCH   2  13
ATOM     13  C   UNL     1       2.044   8.039  18.883  0.00  0.00    +0.000 A 
ATOM     14  C   UNL     1       2.493   7.176  17.784  0.00  0.00    +0.000 A 
ATOM     15  C   UNL     1       2.824   5.889  18.155  0.00  0.00    +0.000 A 
ATOM     16  S   UNL     1       2.571   5.648  19.819  0.00  0.00    +0.000 S 
ATOM     17  C   UNL     1       2.072   7.279  20.037  0.00  0.00    +0.000 A 
ENDBRANCH   2  13
BRANCH   9  18
ATOM     18  C   UNL     1      -2.288  11.162  18.838  0.00  0.00    +0.000 C 
BRANCH  18  19
ATOM     19  C   UNL     1      -2.712  10.816  17.437  0.00  0.00    +0.000 A 
ATOM     20  N   UNL     1      -2.021  10.025  16.640  0.00  0.00    +0.000 NA
ATOM     21  C   UNL     1      -2.707   9.847  15.458  0.00  0.00    +0.000 A 
ATOM     22  C   UNL     1      -3.914  10.505  15.366  0.00  0.00    +0.000 A 
ATOM     23  S   UNL     1      -4.193  11.409  16.792  0.00  0.00    +0.000 S 
ENDBRANCH  18  19
ENDBRANCH   9  18
TORSDOF 3
ENDMDL
MODEL 7
REMARK VINA RESULT:      -5.8      7.803     11.294
REMARK  Name = 
REMARK  3 active torsions:
REMARK  status: ('A' for Active; 'I' for Inactive)
REMARK    1  A    between atoms: C_2  and  C_3
REMARK    2  A    between atoms: N_14  and  C_15
REMARK    3  A    between atoms: C_15  and  C_16
REMARK                            x       y       z     vdW  Elec       q    Type
REMARK                         _______ _______ _______ _____ _____    ______ ____
ROOT
ATOM      1  O   UNL     1      -3.204  11.741  23.446  0.00  0.00    +0.000 OA
ATOM      2  C   UNL     1      -2.604  12.787  23.177  0.00  0.00    +0.000 C 
ATOM      3  N   UNL     1      -1.340  12.704  22.501  0.00  0.00    +0.000 N 
ATOM      4  C   UNL     1      -0.527  13.876  22.272  0.00  0.00    +0.000 C 
ATOM      5  C   UNL     1       0.547  13.789  21.186  0.00  0.00    +0.000 C 
ATOM      6  O   UNL     1       1.484  12.729  21.306  0.00  0.00    +0.000 OA
ATOM      7  C   UNL     1       1.141  11.486  20.705  0.00  0.00    +0.000 C 
ATOM      8  C   UNL     1       0.733  11.483  19.230  0.00  0.00    +0.000 C 
ATOM      9  N   UNL     1      -0.652  10.980  19.131  0.00  0.00    +0.000 NA
ATOM     10  C   UNL     1      -0.900  10.202  20.351  0.00  0.00    +0.000 C 
ATOM     11  C   UNL     1       0.047  10.733  21.424  0.00  0.00    +0.000 C 
ATOM     12  C   UNL     1      -0.567  11.451  22.618  0.00  0.00    +0.000 C 
ENDROOT
BRANCH   2  13
ATOM     13  C   UNL     1      -3.276  14.026  23.668  0.00  0.00    +0.000 A 
ATOM     14  C   UNL     1      -2.797  14.727  24.865  0.00  0.00    +0.000 A 
ATOM     15  C   UNL     1      -3.460  15.902  25.153  0.00  0.00    +0.000 A 
ATOM     16  S   UNL     1      -4.707  16.191  24.034  0.00  0.00    +0.000 S 
ATOM     17  C   UNL     1      -4.315  14.772  23.145  0.00  0.00    +0.000 A 
ENDBRANCH   2  13
BRANCH   9  18
ATOM     18  C   UNL     1      -1.686  12.016  18.983  0.00  0.00    +0.000 C 
BRANCH  18  19
ATOM     19  C   UNL     1      -2.823  11.624  18.079  0.00  0.00    +0.000 A 
ATOM     20  N   UNL     1      -4.093  11.814  18.379  0.00  0.00    +0.000 NA
ATOM     21  C   UNL     1      -4.882  11.419  17.321  0.00  0.00    +0.000 A 
ATOM     22  C   UNL     1      -4.206  10.931  16.224  0.00  0.00    +0.000 A 
ATOM     23  S   UNL     1      -2.522  10.931  16.533  0.00  0.00    +0.000 S 
ENDBRANCH  18  19
ENDBRANCH   9  18
TORSDOF 3
ENDMDL
MODEL 8
REMARK VINA RESULT:      -5.8      1.315      1.585
REMARK  Name = 
REMARK  3 active torsions:
REMARK  status: ('A' for Active; 'I' for Inactive)
REMARK    1  A    between atoms: C_2  and  C_3
REMARK    2  A    between atoms: N_14  and  C_15
REMARK    3  A    between atoms: C_15  and  C_16
REMARK                            x       y       z     vdW  Elec       q    Type
REMARK                         _______ _______ _______ _____ _____    ______ ____
ROOT
ATOM      1  O   UNL     1       6.785   4.817  17.407  0.00  0.00    +0.000 OA
ATOM      2  C   UNL     1       5.871   4.369  16.707  0.00  0.00    +0.000 C 
ATOM      3  N   UNL     1       4.685   3.878  17.350  0.00  0.00    +0.000 N 
ATOM      4  C   UNL     1       3.635   3.224  16.603  0.00  0.00    +0.000 C 
ATOM      5  C   UNL     1       2.253   3.141  17.252  0.00  0.00    +0.000 C 
ATOM      6  O   UNL     1       2.192   2.545  18.540  0.00  0.00    +0.000 OA
ATOM      7  C   UNL     1       2.385   3.398  19.662  0.00  0.00    +0.000 C 
ATOM      8  C   UNL     1       1.520   4.655  19.772  0.00  0.00    +0.000 C 
ATOM      9  N   UNL     1       2.408   5.835  19.758  0.00  0.00    +0.000 NA
ATOM     10  C   UNL     1       3.735   5.361  20.173  0.00  0.00    +0.000 C 
ATOM     11  C   UNL     1       3.808   3.874  19.839  0.00  0.00    +0.000 C 
ATOM     12  C   UNL     1       4.785   3.438  18.756  0.00  0.00    +0.000 C 
ENDROOT
BRANCH   2  13
ATOM     13  C   UNL     1       6.172   4.343  15.245  0.00  0.00    +0.000 A 
ATOM     14  C   UNL     1       7.278   5.128  14.683  0.00  0.00    +0.000 A 
ATOM     15  C   UNL     1       7.492   4.944  13.333  0.00  0.00    +0.000 A 
ATOM     16  S   UNL     1       6.357   3.861  12.675  0.00  0.00    +0.000 S 
ATOM     17  C   UNL     1       5.623   3.609  14.211  0.00  0.00    +0.000 A 
ENDBRANCH   2  13
BRANCH   9  18
ATOM     18  C   UNL     1       2.511   6.526  18.463  0.00  0.00    +0.000 C 
BRANCH  18  19
ATOM     19  C   UNL     1       2.130   7.980  18.512  0.00  0.00    +0.000 A 
ATOM     20  N   UNL     1       2.293   8.812  17.500  0.00  0.00    +0.000 NA
ATOM     21  C   UNL     1       1.782  10.048  17.832  0.00  0.00    +0.000 A 
ATOM     22  C   UNL     1       1.234  10.146  19.092  0.00  0.00    +0.000 A 
ATOM     23  S   UNL     1       1.392   8.653  19.913  0.00  0.00    +0.000 S 
ENDBRANCH  18  19
ENDBRANCH   9  18
TORSDOF 3
ENDMDL
MODEL 9
REMARK VINA RESULT:      -5.7      2.215      5.782
REMARK  Name = 
REMARK  3 active torsions:
REMARK  status: ('A' for Active; 'I' for Inactive)
REMARK    1  A    between atoms: C_2  and  C_3
REMARK    2  A    between atoms: N_14  and  C_15
REMARK    3  A    between atoms: C_15  and  C_16
REMARK                            x       y       z     vdW  Elec       q    Type
REMARK                         _______ _______ _______ _____ _____    ______ ____
ROOT
ATOM      1  O   UNL     1       2.061   6.838  17.381  0.00  0.00    +0.000 OA
ATOM      2  C   UNL     1       1.918   6.795  18.607  0.00  0.00    +0.000 C 
ATOM      3  N   UNL     1       1.951   5.518  19.262  0.00  0.00    +0.000 N 
ATOM      4  C   UNL     1       1.663   5.383  20.671  0.00  0.00    +0.000 C 
ATOM      5  C   UNL     1       2.146   4.111  21.372  0.00  0.00    +0.000 C 
ATOM      6  O   UNL     1       1.726   2.878  20.807  0.00  0.00    +0.000 OA
ATOM      7  C   UNL     1       2.543   2.318  19.786  0.00  0.00    +0.000 C 
ATOM      8  C   UNL     1       4.033   2.128  20.075  0.00  0.00    +0.000 C 
ATOM      9  N   UNL     1       4.802   2.938  19.108  0.00  0.00    +0.000 NA
ATOM     10  C   UNL     1       3.915   3.167  17.961  0.00  0.00    +0.000 C 
ATOM     11  C   UNL     1       2.481   3.056  18.470  0.00  0.00    +0.000 C 
ATOM     12  C   UNL     1       1.628   4.317  18.465  0.00  0.00    +0.000 C 
ENDROOT
BRANCH   2  13
ATOM     13  C   UNL     1       1.659   8.120  19.244  0.00  0.00    +0.000 A 
ATOM     14  C   UNL     1       1.529   9.339  18.437  0.00  0.00    +0.000 A 
ATOM     15  C   UNL     1       1.208  10.476  19.149  0.00  0.00    +0.000 A 
ATOM     16  S   UNL     1       1.092  10.142  20.813  0.00  0.00    +0.000 S 
ATOM     17  C   UNL     1       1.420   8.473  20.559  0.00  0.00    +0.000 A 
ENDBRANCH   2  13
BRANCH   9  18
ATOM     18  C   UNL     1       5.294   4.225  19.621  0.00  0.00    +0.000 C 
BRANCH  18  19
ATOM     19  C   UNL     1       6.096   5.018  18.625  0.00  0.00    +0.000 A 
ATOM     20  N   UNL     1       7.281   4.645  18.179  0.00  0.00    +0.000 NA
ATOM     21  C   UNL     1       7.718   5.540  17.228  0.00  0.00    +0.000 A 
ATOM     22  C   UNL     1       6.864   6.586  16.957  0.00  0.00    +0.000 A 
ATOM     23  S   UNL     1       5.474   6.474  17.951  0.00  0.00    +0.000 S 
ENDBRANCH  18  19
ENDBRANCH   9  18
TORSDOF 3
ENDMDL
