MODEL 1
REMARK VINA RESULT:      -6.6      0.000      0.000
REMARK  Name = 
REMARK  1 active torsions:
REMARK  status: ('A' for Active; 'I' for Inactive)
REMARK    1  A    between atoms: N_1  and  C_2
REMARK                            x       y       z     vdW  Elec       q    Type
REMARK                         _______ _______ _______ _____ _____    ______ ____
ROOT
ATOM      1  C   UNL     1       3.001   6.036  19.705  0.00  0.00    +0.000 A 
ATOM      2  C   UNL     1       3.784   5.791  18.559  0.00  0.00    +0.000 A 
ATOM      3  C   UNL     1       3.840   6.787  17.579  0.00  0.00    +0.000 A 
ATOM      4  N   UNL     1       3.121   7.930  17.649  0.00  0.00    +0.000 NA
ATOM      5  C   UNL     1       2.325   8.136  18.701  0.00  0.00    +0.000 A 
ATOM      6  C   UNL     1       1.582   9.307  18.724  0.00  0.00    +0.000 A 
ATOM      7  C   UNL     1       0.726   9.614  19.784  0.00  0.00    +0.000 A 
ATOM      8 CL   UNL     1      -0.149  11.101  19.714  0.00  0.00    +0.000 Cl
ATOM      9  C   UNL     1       0.607   8.726  20.849  0.00  0.00    +0.000 A 
ATOM     10 CL   UNL     1      -0.409   9.034  22.210  0.00  0.00    +0.000 Cl
ATOM     11  C   UNL     1       1.337   7.538  20.835  0.00  0.00    +0.000 A 
ATOM     12  C   UNL     1       2.213   7.219  19.767  0.00  0.00    +0.000 A 
ATOM     13  C   UNL     1       4.662   6.625  16.325  0.00  0.00    +0.000 C 
ATOM     14  C   UNL     1       5.750   5.565  16.450  0.00  0.00    +0.000 C 
ATOM     15  C   UNL     1       5.151   4.287  17.016  0.00  0.00    +0.000 C 
ATOM     16  C   UNL     1       4.615   4.535  18.424  0.00  0.00    +0.000 C 
ENDROOT
BRANCH   1  17
ATOM     17  N   UNL     1       2.839   5.012  20.668  0.00  0.00    +0.000 N 
ATOM     18  H   UNL     1       3.635   4.887  21.283  0.00  0.00    +0.000 HD
ATOM     19  H   UNL     1       1.979   5.058  21.202  0.00  0.00    +0.000 HD
ENDBRANCH   1  17
TORSDOF 1
ENDMDL
MODEL 2
REMARK VINA RESULT:      -6.6      3.046      6.213
REMARK  Name = 
REMARK  1 active torsions:
REMARK  status: ('A' for Active; 'I' for Inactive)
REMARK    1  A    between atoms: N_1  and  C_2
REMARK                            x       y       z     vdW  Elec       q    Type
REMARK                         _______ _______ _______ _____ _____    ______ ____
ROOT
ATOM      1  C   UNL     1       1.725   9.186  18.826  0.00  0.00    +0.000 A 
ATOM      2  C   UNL     1       0.888   9.561  19.897  0.00  0.00    +0.000 A 
ATOM      3  C   UNL     1       0.774   8.681  20.977  0.00  0.00    +0.000 A 
ATOM      4  N   UNL     1       1.366   7.466  21.003  0.00  0.00    +0.000 NA
ATOM      5  C   UNL     1       2.104   7.078  19.960  0.00  0.00    +0.000 A 
ATOM      6  C   UNL     1       2.672   5.814  20.010  0.00  0.00    +0.000 A 
ATOM      7  C   UNL     1       3.465   5.322  18.971  0.00  0.00    +0.000 A 
ATOM      8 CL   UNL     1       4.127   3.736  19.138  0.00  0.00    +0.000 Cl
ATOM      9  C   UNL     1       3.696   6.115  17.851  0.00  0.00    +0.000 A 
ATOM     10 CL   UNL     1       4.680   5.597  16.530  0.00  0.00    +0.000 Cl
ATOM     11  C   UNL     1       3.122   7.384  17.778  0.00  0.00    +0.000 A 
ATOM     12  C   UNL     1       2.320   7.893  18.829  0.00  0.00    +0.000 A 
ATOM     13  C   UNL     1      -0.085   8.999  22.176  0.00  0.00    +0.000 C 
ATOM     14  C   UNL     1      -0.393  10.484  22.319  0.00  0.00    +0.000 C 
ATOM     15  C   UNL     1      -0.889  11.030  20.990  0.00  0.00    +0.000 C 
ATOM     16  C   UNL     1       0.203  10.909  19.930  0.00  0.00    +0.000 C 
ENDROOT
BRANCH   1  17
ATOM     17  N   UNL     1       1.785  10.004  17.673  0.00  0.00    +0.000 N 
ATOM     18  H   UNL     1       2.649  10.526  17.575  0.00  0.00    +0.000 HD
ATOM     19  H   UNL     1       1.550   9.537  16.804  0.00  0.00    +0.000 HD
ENDBRANCH   1  17
TORSDOF 1
ENDMDL
MODEL 3
REMARK VINA RESULT:      -6.5      4.266      6.107
REMARK  Name = 
REMARK  1 active torsions:
REMARK  status: ('A' for Active; 'I' for Inactive)
REMARK    1  A    between atoms: N_1  and  C_2
REMARK                            x       y       z     vdW  Elec       q    Type
REMARK                         _______ _______ _______ _____ _____    ______ ____
ROOT
ATOM      1  C   UNL     1       3.897   3.152  17.937  0.00  0.00    +0.000 A 
ATOM      2  C   UNL     1       3.076   3.273  19.076  0.00  0.00    +0.000 A 
ATOM      3  C   UNL     1       3.142   4.462  19.808  0.00  0.00    +0.000 A 
ATOM      4  N   UNL     1       4.008   5.459  19.516  0.00  0.00    +0.000 NA
ATOM      5  C   UNL     1       4.836   5.320  18.479  0.00  0.00    +0.000 A 
ATOM      6  C   UNL     1       5.729   6.351  18.227  0.00  0.00    +0.000 A 
ATOM      7  C   UNL     1       6.630   6.300  17.161  0.00  0.00    +0.000 A 
ATOM      8 CL   UNL     1       7.695   7.641  16.936  0.00  0.00    +0.000 Cl
ATOM      9  C   UNL     1       6.641   5.188  16.324  0.00  0.00    +0.000 A 
ATOM     10 CL   UNL     1       7.705   5.050  14.972  0.00  0.00    +0.000 Cl
ATOM     11  C   UNL     1       5.759   4.136  16.571  0.00  0.00    +0.000 A 
ATOM     12  C   UNL     1       4.837   4.181  17.647  0.00  0.00    +0.000 A 
ATOM     13  C   UNL     1       2.292   4.692  21.032  0.00  0.00    +0.000 C 
ATOM     14  C   UNL     1       1.074   3.780  21.101  0.00  0.00    +0.000 C 
ATOM     15  C   UNL     1       1.503   2.342  20.857  0.00  0.00    +0.000 C 
ATOM     16  C   UNL     1       2.083   2.195  19.452  0.00  0.00    +0.000 C 
ENDROOT
BRANCH   1  17
ATOM     17  N   UNL     1       3.932   1.926  17.232  0.00  0.00    +0.000 N 
ATOM     18  H   UNL     1       4.792   1.402  17.346  0.00  0.00    +0.000 HD
ATOM     19  H   UNL     1       3.127   1.326  17.376  0.00  0.00    +0.000 HD
ENDBRANCH   1  17
TORSDOF 1
ENDMDL
MODEL 4
REMARK VINA RESULT:      -6.4      4.163      6.007
REMARK  Name = 
REMARK  1 active torsions:
REMARK  status: ('A' for Active; 'I' for Inactive)
REMARK    1  A    between atoms: N_1  and  C_2
REMARK                            x       y       z     vdW  Elec       q    Type
REMARK                         _______ _______ _______ _____ _____    ______ ____
ROOT
ATOM      1  C   UNL     1       3.585   5.292  19.164  0.00  0.00    +0.000 A 
ATOM      2  C   UNL     1       2.617   4.268  19.173  0.00  0.00    +0.000 A 
ATOM      3  C   UNL     1       2.732   3.249  18.222  0.00  0.00    +0.000 A 
ATOM      4  N   UNL     1       3.680   3.248  17.257  0.00  0.00    +0.000 NA
ATOM      5  C   UNL     1       4.557   4.253  17.203  0.00  0.00    +0.000 A 
ATOM      6  C   UNL     1       5.495   4.231  16.182  0.00  0.00    +0.000 A 
ATOM      7  C   UNL     1       6.458   5.234  16.046  0.00  0.00    +0.000 A 
ATOM      8 CL   UNL     1       7.582   5.107  14.741  0.00  0.00    +0.000 Cl
ATOM      9  C   UNL     1       6.482   6.288  16.954  0.00  0.00    +0.000 A 
ATOM     10 CL   UNL     1       7.649   7.559  16.876  0.00  0.00    +0.000 Cl
ATOM     11  C   UNL     1       5.537   6.332  17.979  0.00  0.00    +0.000 A 
ATOM     12  C   UNL     1       4.560   5.317  18.128  0.00  0.00    +0.000 A 
ATOM     13  C   UNL     1       1.756   2.102  18.160  0.00  0.00    +0.000 C 
ATOM     14  C   UNL     1       0.982   1.899  19.457  0.00  0.00    +0.000 C 
ATOM     15  C   UNL     1       0.408   3.229  19.920  0.00  0.00    +0.000 C 
ATOM     16  C   UNL     1       1.536   4.210  20.230  0.00  0.00    +0.000 C 
ENDROOT
BRANCH   1  17
ATOM     17  N   UNL     1       3.442   6.391  20.045  0.00  0.00    +0.000 N 
ATOM     18  H   UNL     1       2.856   6.206  20.851  0.00  0.00    +0.000 HD
ATOM     19  H   UNL     1       4.310   6.829  20.328  0.00  0.00    +0.000 HD
ENDBRANCH   1  17
TORSDOF 1
ENDMDL
MODEL 5
REMARK VINA RESULT:      -6.2      1.576      3.452
REMARK  Name = 
REMARK  1 active torsions:
REMARK  status: ('A' for Active; 'I' for Inactive)
REMARK    1  A    between atoms: N_1  and  C_2
REMARK                            x       y       z     vdW  Elec       q    Type
REMARK                         _______ _______ _______ _____ _____    ______ ____
ROOT
ATOM      1  C   UNL     1       1.731   9.085  18.562  0.00  0.00    +0.000 A 
ATOM      2  C   UNL     1       2.401   7.848  18.650  0.00  0.00    +0.000 A 
ATOM      3  C   UNL     1       2.200   7.075  19.797  0.00  0.00    +0.000 A 
ATOM      4  N   UNL     1       1.459   7.496  20.847  0.00  0.00    +0.000 NA
ATOM      5  C   UNL     1       0.879   8.697  20.797  0.00  0.00    +0.000 A 
ATOM      6  C   UNL     1       0.151   9.106  21.904  0.00  0.00    +0.000 A 
ATOM      7  C   UNL     1      -0.497  10.342  21.943  0.00  0.00    +0.000 A 
ATOM      8 CL   UNL     1      -1.381  10.750  23.370  0.00  0.00    +0.000 Cl
ATOM      9  C   UNL     1      -0.414  11.195  20.846  0.00  0.00    +0.000 A 
ATOM     10 CL   UNL     1      -1.200  12.731  20.798  0.00  0.00    +0.000 Cl
ATOM     11  C   UNL     1       0.326  10.805  19.729  0.00  0.00    +0.000 A 
ATOM     12  C   UNL     1       0.982   9.550  19.678  0.00  0.00    +0.000 A 
ATOM     13  C   UNL     1       2.859   5.731  19.978  0.00  0.00    +0.000 C 
ATOM     14  C   UNL     1       3.328   5.109  18.669  0.00  0.00    +0.000 C 
ATOM     15  C   UNL     1       4.126   6.133  17.877  0.00  0.00    +0.000 C 
ATOM     16  C   UNL     1       3.239   7.320  17.507  0.00  0.00    +0.000 C 
ENDROOT
BRANCH   1  17
ATOM     17  N   UNL     1       1.991   9.938  17.463  0.00  0.00    +0.000 N 
ATOM     18  H   UNL     1       1.253  10.606  17.268  0.00  0.00    +0.000 HD
ATOM     19  H   UNL     1       2.893  10.400  17.482  0.00  0.00    +0.000 HD
ENDBRANCH   1  17
TORSDOF 1
ENDMDL
MODEL 6
REMARK VINA RESULT:      -6.2      2.526      3.717
REMARK  Name = 
REMARK  1 active torsions:
REMARK  status: ('A' for Active; 'I' for Inactive)
REMARK    1  A    between atoms: N_1  and  C_2
REMARK                            x       y       z     vdW  Elec       q    Type
REMARK                         _______ _______ _______ _____ _____    ______ ____
ROOT
ATOM      1  C   UNL     1       4.311   3.313  17.443  0.00  0.00    +0.000 A 
ATOM      2  C   UNL     1       4.965   3.993  16.396  0.00  0.00    +0.000 A 
ATOM      3  C   UNL     1       4.911   5.391  16.390  0.00  0.00    +0.000 A 
ATOM      4  N   UNL     1       4.202   6.104  17.294  0.00  0.00    +0.000 NA
ATOM      5  C   UNL     1       3.525   5.460  18.247  0.00  0.00    +0.000 A 
ATOM      6  C   UNL     1       2.787   6.224  19.138  0.00  0.00    +0.000 A 
ATOM      7  C   UNL     1       2.051   5.641  20.173  0.00  0.00    +0.000 A 
ATOM      8 CL   UNL     1       1.170   6.686  21.229  0.00  0.00    +0.000 Cl
ATOM      9  C   UNL     1       2.052   4.257  20.320  0.00  0.00    +0.000 A 
ATOM     10 CL   UNL     1       1.190   3.454  21.582  0.00  0.00    +0.000 Cl
ATOM     11  C   UNL     1       2.778   3.473  19.424  0.00  0.00    +0.000 A 
ATOM     12  C   UNL     1       3.532   4.055  18.375  0.00  0.00    +0.000 A 
ATOM     13  C   UNL     1       5.591   6.209  15.321  0.00  0.00    +0.000 C 
ATOM     14  C   UNL     1       6.688   5.449  14.587  0.00  0.00    +0.000 C 
ATOM     15  C   UNL     1       6.158   4.095  14.143  0.00  0.00    +0.000 C 
ATOM     16  C   UNL     1       5.778   3.253  15.359  0.00  0.00    +0.000 C 
ENDROOT
BRANCH   1  17
ATOM     17  N   UNL     1       4.258   1.899  17.426  0.00  0.00    +0.000 N 
ATOM     18  H   UNL     1       4.658   1.455  18.245  0.00  0.00    +0.000 HD
ATOM     19  H   UNL     1       3.347   1.507  17.216  0.00  0.00    +0.000 HD
ENDBRANCH   1  17
TORSDOF 1
ENDMDL
MODEL 7
REMARK VINA RESULT:      -6.2      4.392      4.836
REMARK  Name = 
REMARK  1 active torsions:
REMARK  status: ('A' for Active; 'I' for Inactive)
REMARK    1  A    between atoms: N_1  and  C_2
REMARK                            x       y       z     vdW  Elec       q    Type
REMARK                         _______ _______ _______ _____ _____    ______ ____
ROOT
ATOM      1  C   UNL     1       5.528   4.698  18.340  0.00  0.00    +0.000 A 
ATOM      2  C   UNL     1       5.975   4.713  17.003  0.00  0.00    +0.000 A 
ATOM      3  C   UNL     1       5.106   4.234  16.017  0.00  0.00    +0.000 A 
ATOM      4  N   UNL     1       3.899   3.693  16.300  0.00  0.00    +0.000 NA
ATOM      5  C   UNL     1       3.501   3.614  17.572  0.00  0.00    +0.000 A 
ATOM      6  C   UNL     1       2.270   3.027  17.824  0.00  0.00    +0.000 A 
ATOM      7  C   UNL     1       1.766   2.905  19.121  0.00  0.00    +0.000 A 
ATOM      8 CL   UNL     1       0.220   2.161  19.322  0.00  0.00    +0.000 Cl
ATOM      9  C   UNL     1       2.512   3.381  20.195  0.00  0.00    +0.000 A 
ATOM     10 CL   UNL     1       1.957   3.292  21.827  0.00  0.00    +0.000 Cl
ATOM     11  C   UNL     1       3.758   3.962  19.960  0.00  0.00    +0.000 A 
ATOM     12  C   UNL     1       4.276   4.095  18.647  0.00  0.00    +0.000 A 
ATOM     13  C   UNL     1       5.486   4.222  14.558  0.00  0.00    +0.000 C 
ATOM     14  C   UNL     1       6.622   5.180  14.224  0.00  0.00    +0.000 C 
ATOM     15  C   UNL     1       7.765   4.974  15.204  0.00  0.00    +0.000 C 
ATOM     16  C   UNL     1       7.311   5.310  16.622  0.00  0.00    +0.000 C 
ENDROOT
BRANCH   1  17
ATOM     17  N   UNL     1       6.417   5.080  19.373  0.00  0.00    +0.000 N 
ATOM     18  H   UNL     1       6.177   5.953  19.829  0.00  0.00    +0.000 HD
ATOM     19  H   UNL     1       6.610   4.360  20.059  0.00  0.00    +0.000 HD
ENDBRANCH   1  17
TORSDOF 1
ENDMDL
MODEL 8
REMARK VINA RESULT:      -6.1      1.597      1.991
REMARK  Name = 
REMARK  1 active torsions:
REMARK  status: ('A' for Active; 'I' for Inactive)
REMARK    1  A    between atoms: N_1  and  C_2
REMARK                            x       y       z     vdW  Elec       q    Type
REMARK                         _______ _______ _______ _____ _____    ______ ____
ROOT
ATOM      1  C   UNL     1       2.522   5.101  20.289  0.00  0.00    +0.000 A 
ATOM      2  C   UNL     1       2.978   4.198  19.308  0.00  0.00    +0.000 A 
ATOM      3  C   UNL     1       3.208   4.692  18.020  0.00  0.00    +0.000 A 
ATOM      4  N   UNL     1       2.940   5.968  17.663  0.00  0.00    +0.000 NA
ATOM      5  C   UNL     1       2.442   6.809  18.572  0.00  0.00    +0.000 A 
ATOM      6  C   UNL     1       2.153   8.102  18.161  0.00  0.00    +0.000 A 
ATOM      7  C   UNL     1       1.637   9.055  19.041  0.00  0.00    +0.000 A 
ATOM      8 CL   UNL     1       1.317  10.637  18.426  0.00  0.00    +0.000 Cl
ATOM      9  C   UNL     1       1.399   8.707  20.368  0.00  0.00    +0.000 A 
ATOM     10 CL   UNL     1       0.782   9.826  21.529  0.00  0.00    +0.000 Cl
ATOM     11  C   UNL     1       1.672   7.407  20.794  0.00  0.00    +0.000 A 
ATOM     12  C   UNL     1       2.201   6.434  19.911  0.00  0.00    +0.000 A 
ATOM     13  C   UNL     1       3.711   3.809  16.906  0.00  0.00    +0.000 C 
ATOM     14  C   UNL     1       4.381   2.534  17.403  0.00  0.00    +0.000 C 
ATOM     15  C   UNL     1       3.486   1.857  18.428  0.00  0.00    +0.000 C 
ATOM     16  C   UNL     1       3.301   2.760  19.646  0.00  0.00    +0.000 C 
ENDROOT
BRANCH   1  17
ATOM     17  N   UNL     1       2.182   4.616  21.574  0.00  0.00    +0.000 N 
ATOM     18  H   UNL     1       1.794   3.679  21.579  0.00  0.00    +0.000 HD
ATOM     19  H   UNL     1       2.912   4.703  22.272  0.00  0.00    +0.000 HD
ENDBRANCH   1  17
TORSDOF 1
ENDMDL
MODEL 9
REMARK VINA RESULT:      -6.0      3.275      6.875
REMARK  Name = 
REMARK  1 active torsions:
REMARK  status: ('A' for Active; 'I' for Inactive)
REMARK    1  A    between atoms: N_1  and  C_2
REMARK                            x       y       z     vdW  Elec       q    Type
REMARK                         _______ _______ _______ _____ _____    ______ ____
ROOT
ATOM      1  C   UNL     1       0.493  10.616  19.488  0.00  0.00    +0.000 A 
ATOM      2  C   UNL     1      -0.276  11.027  20.596  0.00  0.00    +0.000 A 
ATOM      3  C   UNL     1      -0.264  10.219  21.737  0.00  0.00    +0.000 A 
ATOM      4  N   UNL     1       0.385   9.034  21.793  0.00  0.00    +0.000 NA
ATOM      5  C   UNL     1       1.058   8.608  20.721  0.00  0.00    +0.000 A 
ATOM      6  C   UNL     1       1.687   7.375  20.807  0.00  0.00    +0.000 A 
ATOM      7  C   UNL     1       2.420   6.847  19.741  0.00  0.00    +0.000 A 
ATOM      8 CL   UNL     1       3.166   5.305  19.956  0.00  0.00    +0.000 Cl
ATOM      9  C   UNL     1       2.525   7.570  18.557  0.00  0.00    +0.000 A 
ATOM     10 CL   UNL     1       3.427   7.006  17.197  0.00  0.00    +0.000 Cl
ATOM     11  C   UNL     1       1.887   8.806  18.449  0.00  0.00    +0.000 A 
ATOM     12  C   UNL     1       1.146   9.352  19.527  0.00  0.00    +0.000 A 
ATOM     13  C   UNL     1      -1.040  10.581  22.978  0.00  0.00    +0.000 C 
ATOM     14  C   UNL     1      -1.407  12.058  23.049  0.00  0.00    +0.000 C 
ATOM     15  C   UNL     1      -2.030  12.492  21.732  0.00  0.00    +0.000 C 
ATOM     16  C   UNL     1      -1.019  12.344  20.597  0.00  0.00    +0.000 C 
ENDROOT
BRANCH   1  17
ATOM     17  N   UNL     1       0.424  11.354  18.283  0.00  0.00    +0.000 N 
ATOM     18  H   UNL     1       0.202  10.799  17.464  0.00  0.00    +0.000 HD
ATOM     19  H   UNL     1      -0.158  12.183  18.321  0.00  0.00    +0.000 HD
ENDBRANCH   1  17
TORSDOF 1
ENDMDL
