MODEL 1
REMARK VINA RESULT:      -6.8      0.000      0.000
REMARK  Name = 
REMARK  10 active torsions:
REMARK  status: ('A' for Active; 'I' for Inactive)
REMARK    1  A    between atoms: C_1  and  O_2
REMARK    2  A    between atoms: O_2  and  C_3
REMARK    3  A    between atoms: C_6  and  N_7
REMARK    4  A    between atoms: C_8  and  C_10
REMARK    5  A    between atoms: C_13  and  O_14
REMARK    6  A    between atoms: O_14  and  C_15
REMARK    7  A    between atoms: C_16  and  O_17
REMARK    8  A    between atoms: O_17  and  C_18
REMARK    9  A    between atoms: C_21  and  O_22
REMARK   10  A    between atoms: O_22  and  C_23
REMARK                            x       y       z     vdW  Elec       q    Type
REMARK                         _______ _______ _______ _____ _____    ______ ____
ROOT
ATOM      1  N   UNL     1       2.864   6.893  18.755  0.00  0.00    +0.000 N 
ATOM      2  C   UNL     1       2.351   8.106  18.301  0.00  0.00    +0.000 C 
ATOM      3  O   UNL     1       2.504   8.567  17.180  0.00  0.00    +0.000 OA
ATOM      4  H   UNL     1       2.520   6.521  19.629  0.00  0.00    +0.000 HD
ENDROOT
BRANCH   1   8
ATOM      5  C   UNL     1       5.418   4.500  16.351  0.00  0.00    +0.000 A 
ATOM      6  C   UNL     1       4.202   3.994  16.834  0.00  0.00    +0.000 A 
ATOM      7  C   UNL     1       3.347   4.775  17.604  0.00  0.00    +0.000 A 
ATOM      8  C   UNL     1       3.716   6.059  17.997  0.00  0.00    +0.000 A 
ATOM      9  C   UNL     1       4.971   6.529  17.600  0.00  0.00    +0.000 A 
ATOM     10  C   UNL     1       5.837   5.765  16.789  0.00  0.00    +0.000 A 
BRANCH   5  12
ATOM     11  C   UNL     1       5.918   4.119  14.080  0.00  0.00    +0.000 C 
ATOM     12  O   UNL     1       6.152   3.767  15.453  0.00  0.00    +0.000 OA
ENDBRANCH   5  12
BRANCH  10  13
ATOM     13  O   UNL     1       6.993   6.453  16.530  0.00  0.00    +0.000 OA
ATOM     14  C   UNL     1       7.508   7.379  17.468  0.00  0.00    +0.000 C 
ENDBRANCH  10  13
ENDBRANCH   1   8
BRANCH   2  15
ATOM     15  C   UNL     1       1.486   8.885  19.219  0.00  0.00    +0.000 A 
ATOM     16  C   UNL     1       1.445   8.478  20.558  0.00  0.00    +0.000 A 
ATOM     17  C   UNL     1       0.555   9.078  21.444  0.00  0.00    +0.000 A 
ATOM     18  C   UNL     1      -0.321  10.091  21.002  0.00  0.00    +0.000 A 
ATOM     19  C   UNL     1      -0.283  10.497  19.656  0.00  0.00    +0.000 A 
ATOM     20  C   UNL     1       0.632   9.892  18.771  0.00  0.00    +0.000 A 
BRANCH  18  21
ATOM     21  O   UNL     1      -1.118  10.535  22.022  0.00  0.00    +0.000 OA
ATOM     22  C   UNL     1      -0.815  11.776  22.640  0.00  0.00    +0.000 C 
ENDBRANCH  18  21
BRANCH  19  23
ATOM     23  O   UNL     1      -1.178  11.453  19.260  0.00  0.00    +0.000 OA
ATOM     24  C   UNL     1      -2.106  11.137  18.231  0.00  0.00    +0.000 C 
ENDBRANCH  19  23
ENDBRANCH   2  15
TORSDOF 6
ENDMDL
MODEL 2
REMARK VINA RESULT:      -6.7      1.666      1.865
REMARK  Name = 
REMARK  10 active torsions:
REMARK  status: ('A' for Active; 'I' for Inactive)
REMARK    1  A    between atoms: C_1  and  O_2
REMARK    2  A    between atoms: O_2  and  C_3
REMARK    3  A    between atoms: C_6  and  N_7
REMARK    4  A    between atoms: C_8  and  C_10
REMARK    5  A    between atoms: C_13  and  O_14
REMARK    6  A    between atoms: O_14  and  C_15
REMARK    7  A    between atoms: C_16  and  O_17
REMARK    8  A    between atoms: O_17  and  C_18
REMARK    9  A    between atoms: C_21  and  O_22
REMARK   10  A    between atoms: O_22  and  C_23
REMARK                            x       y       z     vdW  Elec       q    Type
REMARK                         _______ _______ _______ _____ _____    ______ ____
ROOT
ATOM      1  N   UNL     1       2.211   6.958  20.106  0.00  0.00    +0.000 N 
ATOM      2  C   UNL     1       1.804   8.197  19.617  0.00  0.00    +0.000 C 
ATOM      3  O   UNL     1       1.863   8.555  18.451  0.00  0.00    +0.000 OA
ATOM      4  H   UNL     1       1.944   6.698  21.046  0.00  0.00    +0.000 HD
ENDROOT
BRANCH   1   8
ATOM      5  C   UNL     1       4.203   4.086  17.695  0.00  0.00    +0.000 A 
ATOM      6  C   UNL     1       2.837   4.349  17.520  0.00  0.00    +0.000 A 
ATOM      7  C   UNL     1       2.178   5.303  18.288  0.00  0.00    +0.000 A 
ATOM      8  C   UNL     1       2.837   5.963  19.322  0.00  0.00    +0.000 A 
ATOM      9  C   UNL     1       4.173   5.630  19.564  0.00  0.00    +0.000 A 
ATOM     10  C   UNL     1       4.868   4.691  18.773  0.00  0.00    +0.000 A 
BRANCH   5  12
ATOM     11  C   UNL     1       5.640   3.978  15.831  0.00  0.00    +0.000 C 
ATOM     12  O   UNL     1       4.859   3.270  16.808  0.00  0.00    +0.000 OA
ENDBRANCH   5  12
BRANCH  10  13
ATOM     13  O   UNL     1       6.162   4.555  19.204  0.00  0.00    +0.000 OA
ATOM     14  C   UNL     1       7.108   5.584  18.987  0.00  0.00    +0.000 C 
ENDBRANCH  10  13
ENDBRANCH   1   8
BRANCH   2  15
ATOM     15  C   UNL     1       1.180   9.150  20.567  0.00  0.00    +0.000 A 
ATOM     16  C   UNL     1       0.831   8.659  21.830  0.00  0.00    +0.000 A 
ATOM     17  C   UNL     1       0.123   9.460  22.721  0.00  0.00    +0.000 A 
ATOM     18  C   UNL     1      -0.262  10.767  22.357  0.00  0.00    +0.000 A 
ATOM     19  C   UNL     1       0.085  11.259  21.086  0.00  0.00    +0.000 A 
ATOM     20  C   UNL     1       0.815  10.444  20.197  0.00  0.00    +0.000 A 
BRANCH  18  21
ATOM     21  O   UNL     1      -0.957  11.376  23.366  0.00  0.00    +0.000 OA
ATOM     22  C   UNL     1      -2.314  11.731  23.150  0.00  0.00    +0.000 C 
ENDBRANCH  18  21
BRANCH  19  23
ATOM     23  O   UNL     1      -0.344  12.517  20.758  0.00  0.00    +0.000 OA
ATOM     24  C   UNL     1      -1.241  12.671  19.669  0.00  0.00    +0.000 C 
ENDBRANCH  19  23
ENDBRANCH   2  15
TORSDOF 6
ENDMDL
MODEL 3
REMARK VINA RESULT:      -6.7      2.017      8.482
REMARK  Name = 
REMARK  10 active torsions:
REMARK  status: ('A' for Active; 'I' for Inactive)
REMARK    1  A    between atoms: C_1  and  O_2
REMARK    2  A    between atoms: O_2  and  C_3
REMARK    3  A    between atoms: C_6  and  N_7
REMARK    4  A    between atoms: C_8  and  C_10
REMARK    5  A    between atoms: C_13  and  O_14
REMARK    6  A    between atoms: O_14  and  C_15
REMARK    7  A    between atoms: C_16  and  O_17
REMARK    8  A    between atoms: O_17  and  C_18
REMARK    9  A    between atoms: C_21  and  O_22
REMARK   10  A    between atoms: O_22  and  C_23
REMARK                            x       y       z     vdW  Elec       q    Type
REMARK                         _______ _______ _______ _____ _____    ______ ____
ROOT
ATOM      1  N   UNL     1       2.171   8.575  17.636  0.00  0.00    +0.000 N 
ATOM      2  C   UNL     1       2.570   7.545  18.485  0.00  0.00    +0.000 C 
ATOM      3  O   UNL     1       2.207   7.397  19.642  0.00  0.00    +0.000 OA
ATOM      4  H   UNL     1       2.379   8.496  16.651  0.00  0.00    +0.000 HD
ENDROOT
BRANCH   1   8
ATOM      5  C   UNL     1      -0.369  11.820  18.661  0.00  0.00    +0.000 A 
ATOM      6  C   UNL     1       1.023  11.923  18.802  0.00  0.00    +0.000 A 
ATOM      7  C   UNL     1       1.867  10.875  18.450  0.00  0.00    +0.000 A 
ATOM      8  C   UNL     1       1.347   9.653  18.030  0.00  0.00    +0.000 A 
ATOM      9  C   UNL     1      -0.043   9.515  17.984  0.00  0.00    +0.000 A 
ATOM     10  C   UNL     1      -0.915  10.578  18.303  0.00  0.00    +0.000 A 
BRANCH   5  12
ATOM     11  C   UNL     1      -1.676  13.052  20.185  0.00  0.00    +0.000 C 
ATOM     12  O   UNL     1      -1.157  12.927  18.851  0.00  0.00    +0.000 OA
ENDBRANCH   5  12
BRANCH  10  13
ATOM     13  O   UNL     1      -2.222  10.193  18.166  0.00  0.00    +0.000 OA
ATOM     14  C   UNL     1      -2.792  10.018  16.882  0.00  0.00    +0.000 C 
ENDBRANCH  10  13
ENDBRANCH   1   8
BRANCH   2  15
ATOM     15  C   UNL     1       3.457   6.492  17.934  0.00  0.00    +0.000 A 
ATOM     16  C   UNL     1       4.429   6.893  17.011  0.00  0.00    +0.000 A 
ATOM     17  C   UNL     1       5.205   5.942  16.355  0.00  0.00    +0.000 A 
ATOM     18  C   UNL     1       5.012   4.567  16.602  0.00  0.00    +0.000 A 
ATOM     19  C   UNL     1       4.032   4.164  17.527  0.00  0.00    +0.000 A 
ATOM     20  C   UNL     1       3.262   5.136  18.196  0.00  0.00    +0.000 A 
BRANCH  18  21
ATOM     21  O   UNL     1       5.864   3.805  15.849  0.00  0.00    +0.000 OA
ATOM     22  C   UNL     1       5.985   4.077  14.462  0.00  0.00    +0.000 C 
ENDBRANCH  18  21
BRANCH  19  23
ATOM     23  O   UNL     1       3.849   2.820  17.706  0.00  0.00    +0.000 OA
ATOM     24  C   UNL     1       2.527   2.302  17.695  0.00  0.00    +0.000 C 
ENDBRANCH  19  23
ENDBRANCH   2  15
TORSDOF 6
ENDMDL
MODEL 4
REMARK VINA RESULT:      -6.6      0.971      1.915
REMARK  Name = 
REMARK  10 active torsions:
REMARK  status: ('A' for Active; 'I' for Inactive)
REMARK    1  A    between atoms: C_1  and  O_2
REMARK    2  A    between atoms: O_2  and  C_3
REMARK    3  A    between atoms: C_6  and  N_7
REMARK    4  A    between atoms: C_8  and  C_10
REMARK    5  A    between atoms: C_13  and  O_14
REMARK    6  A    between atoms: O_14  and  C_15
REMARK    7  A    between atoms: C_16  and  O_17
REMARK    8  A    between atoms: O_17  and  C_18
REMARK    9  A    between atoms: C_21  and  O_22
REMARK   10  A    between atoms: O_22  and  C_23
REMARK                            x       y       z     vdW  Elec       q    Type
REMARK                         _______ _______ _______ _____ _____    ______ ____
ROOT
ATOM      1  N   UNL     1       2.791   7.097  18.706  0.00  0.00    +0.000 N 
ATOM      2  C   UNL     1       2.280   8.271  18.159  0.00  0.00    +0.000 C 
ATOM      3  O   UNL     1       2.422   8.637  17.001  0.00  0.00    +0.000 OA
ATOM      4  H   UNL     1       2.456   6.802  19.613  0.00  0.00    +0.000 HD
ENDROOT
BRANCH   1   8
ATOM      5  C   UNL     1       5.305   4.496  16.481  0.00  0.00    +0.000 A 
ATOM      6  C   UNL     1       4.066   4.056  16.970  0.00  0.00    +0.000 A 
ATOM      7  C   UNL     1       3.224   4.904  17.681  0.00  0.00    +0.000 A 
ATOM      8  C   UNL     1       3.628   6.196  18.010  0.00  0.00    +0.000 A 
ATOM      9  C   UNL     1       4.903   6.604  17.609  0.00  0.00    +0.000 A 
ATOM     10  C   UNL     1       5.757   5.770  16.857  0.00  0.00    +0.000 A 
BRANCH   5  12
ATOM     11  C   UNL     1       5.927   4.056  14.252  0.00  0.00    +0.000 C 
ATOM     12  O   UNL     1       6.029   3.692  15.638  0.00  0.00    +0.000 OA
ENDBRANCH   5  12
BRANCH  10  13
ATOM     13  O   UNL     1       6.938   6.407  16.580  0.00  0.00    +0.000 OA
ATOM     14  C   UNL     1       7.500   7.320  17.504  0.00  0.00    +0.000 C 
ENDBRANCH  10  13
ENDBRANCH   1   8
BRANCH   2  15
ATOM     15  C   UNL     1       1.433   9.131  19.020  0.00  0.00    +0.000 A 
ATOM     16  C   UNL     1       0.679  10.125  18.387  0.00  0.00    +0.000 A 
ATOM     17  C   UNL     1      -0.033  11.052  19.143  0.00  0.00    +0.000 A 
ATOM     18  C   UNL     1       0.009  11.008  20.552  0.00  0.00    +0.000 A 
ATOM     19  C   UNL     1       0.770  10.012  21.189  0.00  0.00    +0.000 A 
ATOM     20  C   UNL     1       1.476   9.070  20.413  0.00  0.00    +0.000 A 
BRANCH  18  21
ATOM     21  O   UNL     1      -0.745  12.010  21.101  0.00  0.00    +0.000 OA
ATOM     22  C   UNL     1      -2.077  12.195  20.648  0.00  0.00    +0.000 C 
ENDBRANCH  18  21
BRANCH  19  23
ATOM     23  O   UNL     1       0.817  10.031  22.556  0.00  0.00    +0.000 OA
ATOM     24  C   UNL     1      -0.277   9.497  23.286  0.00  0.00    +0.000 C 
ENDBRANCH  19  23
ENDBRANCH   2  15
TORSDOF 6
ENDMDL
MODEL 5
REMARK VINA RESULT:      -6.6      1.961      8.205
REMARK  Name = 
REMARK  10 active torsions:
REMARK  status: ('A' for Active; 'I' for Inactive)
REMARK    1  A    between atoms: C_1  and  O_2
REMARK    2  A    between atoms: O_2  and  C_3
REMARK    3  A    between atoms: C_6  and  N_7
REMARK    4  A    between atoms: C_8  and  C_10
REMARK    5  A    between atoms: C_13  and  O_14
REMARK    6  A    between atoms: O_14  and  C_15
REMARK    7  A    between atoms: C_16  and  O_17
REMARK    8  A    between atoms: O_17  and  C_18
REMARK    9  A    between atoms: C_21  and  O_22
REMARK   10  A    between atoms: O_22  and  C_23
REMARK                            x       y       z     vdW  Elec       q    Type
REMARK                         _______ _______ _______ _____ _____    ______ ____
ROOT
ATOM      1  N   UNL     1       2.190   8.523  17.572  0.00  0.00    +0.000 N 
ATOM      2  C   UNL     1       2.612   7.516  18.437  0.00  0.00    +0.000 C 
ATOM      3  O   UNL     1       2.306   7.416  19.616  0.00  0.00    +0.000 OA
ATOM      4  H   UNL     1       2.346   8.405  16.581  0.00  0.00    +0.000 HD
ENDROOT
BRANCH   1   8
ATOM      5  C   UNL     1      -0.092  11.842  18.916  0.00  0.00    +0.000 A 
ATOM      6  C   UNL     1      -0.720  10.693  18.414  0.00  0.00    +0.000 A 
ATOM      7  C   UNL     1       0.015   9.591  17.991  0.00  0.00    +0.000 A 
ATOM      8  C   UNL     1       1.407   9.631  17.968  0.00  0.00    +0.000 A 
ATOM      9  C   UNL     1       2.034  10.812  18.374  0.00  0.00    +0.000 A 
ATOM     10  C   UNL     1       1.306  11.927  18.840  0.00  0.00    +0.000 A 
BRANCH   5  12
ATOM     11  C   UNL     1      -1.429  12.479  20.748  0.00  0.00    +0.000 C 
ATOM     12  O   UNL     1      -0.847  12.838  19.485  0.00  0.00    +0.000 OA
ENDBRANCH   5  12
BRANCH  10  13
ATOM     13  O   UNL     1       2.151  12.948  19.190  0.00  0.00    +0.000 OA
ATOM     14  C   UNL     1       2.469  13.971  18.265  0.00  0.00    +0.000 C 
ENDBRANCH  10  13
ENDBRANCH   1   8
BRANCH   2  15
ATOM     15  C   UNL     1       3.451   6.426  17.881  0.00  0.00    +0.000 A 
ATOM     16  C   UNL     1       4.490   6.795  17.019  0.00  0.00    +0.000 A 
ATOM     17  C   UNL     1       5.229   5.819  16.358  0.00  0.00    +0.000 A 
ATOM     18  C   UNL     1       4.932   4.452  16.538  0.00  0.00    +0.000 A 
ATOM     19  C   UNL     1       3.885   4.082  17.400  0.00  0.00    +0.000 A 
ATOM     20  C   UNL     1       3.152   5.078  18.076  0.00  0.00    +0.000 A 
BRANCH  18  21
ATOM     21  O   UNL     1       5.765   3.663  15.790  0.00  0.00    +0.000 OA
ATOM     22  C   UNL     1       6.297   4.178  14.580  0.00  0.00    +0.000 C 
ENDBRANCH  18  21
BRANCH  19  23
ATOM     23  O   UNL     1       3.604   2.748  17.514  0.00  0.00    +0.000 OA
ATOM     24  C   UNL     1       2.305   2.356  17.934  0.00  0.00    +0.000 C 
ENDBRANCH  19  23
ENDBRANCH   2  15
TORSDOF 6
ENDMDL
MODEL 6
REMARK VINA RESULT:      -6.6      1.553      2.966
REMARK  Name = 
REMARK  10 active torsions:
REMARK  status: ('A' for Active; 'I' for Inactive)
REMARK    1  A    between atoms: C_1  and  O_2
REMARK    2  A    between atoms: O_2  and  C_3
REMARK    3  A    between atoms: C_6  and  N_7
REMARK    4  A    between atoms: C_8  and  C_10
REMARK    5  A    between atoms: C_13  and  O_14
REMARK    6  A    between atoms: O_14  and  C_15
REMARK    7  A    between atoms: C_16  and  O_17
REMARK    8  A    between atoms: O_17  and  C_18
REMARK    9  A    between atoms: C_21  and  O_22
REMARK   10  A    between atoms: O_22  and  C_23
REMARK                            x       y       z     vdW  Elec       q    Type
REMARK                         _______ _______ _______ _____ _____    ______ ____
ROOT
ATOM      1  N   UNL     1       2.088   7.480  18.764  0.00  0.00    +0.000 N 
ATOM      2  C   UNL     1       1.759   8.757  18.316  0.00  0.00    +0.000 C 
ATOM      3  O   UNL     1       2.097   9.244  17.248  0.00  0.00    +0.000 OA
ATOM      4  H   UNL     1       1.602   7.111  19.570  0.00  0.00    +0.000 HD
ENDROOT
BRANCH   1   8
ATOM      5  C   UNL     1       4.672   4.721  16.830  0.00  0.00    +0.000 A 
ATOM      6  C   UNL     1       4.990   6.085  16.888  0.00  0.00    +0.000 A 
ATOM      7  C   UNL     1       4.163   6.996  17.537  0.00  0.00    +0.000 A 
ATOM      8  C   UNL     1       2.942   6.592  18.073  0.00  0.00    +0.000 A 
ATOM      9  C   UNL     1       2.577   5.250  17.929  0.00  0.00    +0.000 A 
ATOM     10  C   UNL     1       3.418   4.305  17.305  0.00  0.00    +0.000 A 
BRANCH   5  12
ATOM     11  C   UNL     1       6.043   4.129  15.008  0.00  0.00    +0.000 C 
ATOM     12  O   UNL     1       5.589   3.827  16.337  0.00  0.00    +0.000 OA
ENDBRANCH   5  12
BRANCH  10  13
ATOM     13  O   UNL     1       2.839   3.064  17.305  0.00  0.00    +0.000 OA
ATOM     14  C   UNL     1       3.206   2.095  18.269  0.00  0.00    +0.000 C 
ENDBRANCH  10  13
ENDBRANCH   1   8
BRANCH   2  15
ATOM     15  C   UNL     1       0.867   9.585  19.163  0.00  0.00    +0.000 A 
ATOM     16  C   UNL     1      -0.003  10.464  18.508  0.00  0.00    +0.000 A 
ATOM     17  C   UNL     1      -0.771  11.364  19.240  0.00  0.00    +0.000 A 
ATOM     18  C   UNL     1      -0.670  11.411  20.646  0.00  0.00    +0.000 A 
ATOM     19  C   UNL     1       0.207  10.531  21.305  0.00  0.00    +0.000 A 
ATOM     20  C   UNL     1       0.969   9.613  20.554  0.00  0.00    +0.000 A 
BRANCH  18  21
ATOM     21  O   UNL     1      -1.495  12.370  21.169  0.00  0.00    +0.000 OA
ATOM     22  C   UNL     1      -2.733  12.637  20.528  0.00  0.00    +0.000 C 
ENDBRANCH  18  21
BRANCH  19  23
ATOM     23  O   UNL     1       0.304  10.638  22.665  0.00  0.00    +0.000 OA
ATOM     24  C   UNL     1       0.053   9.490  23.462  0.00  0.00    +0.000 C 
ENDBRANCH  19  23
ENDBRANCH   2  15
TORSDOF 6
ENDMDL
MODEL 7
REMARK VINA RESULT:      -6.6      1.116      2.211
REMARK  Name = 
REMARK  10 active torsions:
REMARK  status: ('A' for Active; 'I' for Inactive)
REMARK    1  A    between atoms: C_1  and  O_2
REMARK    2  A    between atoms: O_2  and  C_3
REMARK    3  A    between atoms: C_6  and  N_7
REMARK    4  A    between atoms: C_8  and  C_10
REMARK    5  A    between atoms: C_13  and  O_14
REMARK    6  A    between atoms: O_14  and  C_15
REMARK    7  A    between atoms: C_16  and  O_17
REMARK    8  A    between atoms: O_17  and  C_18
REMARK    9  A    between atoms: C_21  and  O_22
REMARK   10  A    between atoms: O_22  and  C_23
REMARK                            x       y       z     vdW  Elec       q    Type
REMARK                         _______ _______ _______ _____ _____    ______ ____
ROOT
ATOM      1  N   UNL     1       2.598   7.263  18.786  0.00  0.00    +0.000 N 
ATOM      2  C   UNL     1       2.068   8.452  18.292  0.00  0.00    +0.000 C 
ATOM      3  O   UNL     1       2.143   8.836  17.134  0.00  0.00    +0.000 OA
ATOM      4  H   UNL     1       2.317   6.955  19.707  0.00  0.00    +0.000 HD
ENDROOT
BRANCH   1   8
ATOM      5  C   UNL     1       4.982   4.479  16.641  0.00  0.00    +0.000 A 
ATOM      6  C   UNL     1       5.287   5.848  16.628  0.00  0.00    +0.000 A 
ATOM      7  C   UNL     1       4.527   6.767  17.344  0.00  0.00    +0.000 A 
ATOM      8  C   UNL     1       3.380   6.365  18.025  0.00  0.00    +0.000 A 
ATOM      9  C   UNL     1       3.018   5.017  17.957  0.00  0.00    +0.000 A 
ATOM     10  C   UNL     1       3.795   4.064  17.265  0.00  0.00    +0.000 A 
BRANCH   5  12
ATOM     11  C   UNL     1       6.334   3.981  14.778  0.00  0.00    +0.000 C 
ATOM     12  O   UNL     1       5.849   3.582  16.070  0.00  0.00    +0.000 OA
ENDBRANCH   5  12
BRANCH  10  13
ATOM     13  O   UNL     1       3.235   2.817  17.362  0.00  0.00    +0.000 OA
ATOM     14  C   UNL     1       2.005   2.628  18.035  0.00  0.00    +0.000 C 
ENDBRANCH  10  13
ENDBRANCH   1   8
BRANCH   2  15
ATOM     15  C   UNL     1       1.286   9.305  19.219  0.00  0.00    +0.000 A 
ATOM     16  C   UNL     1       1.169   8.870  20.544  0.00  0.00    +0.000 A 
ATOM     17  C   UNL     1       0.341   9.549  21.432  0.00  0.00    +0.000 A 
ATOM     18  C   UNL     1      -0.399  10.672  21.005  0.00  0.00    +0.000 A 
ATOM     19  C   UNL     1      -0.285  11.107  19.673  0.00  0.00    +0.000 A 
ATOM     20  C   UNL     1       0.568  10.420  18.785  0.00  0.00    +0.000 A 
BRANCH  18  21
ATOM     21  O   UNL     1      -1.156  11.182  22.025  0.00  0.00    +0.000 OA
ATOM     22  C   UNL     1      -1.118  10.548  23.293  0.00  0.00    +0.000 C 
ENDBRANCH  18  21
BRANCH  19  23
ATOM     23  O   UNL     1      -1.051  12.173  19.289  0.00  0.00    +0.000 OA
ATOM     24  C   UNL     1      -2.115  11.958  18.373  0.00  0.00    +0.000 C 
ENDBRANCH  19  23
ENDBRANCH   2  15
TORSDOF 6
ENDMDL
MODEL 8
REMARK VINA RESULT:      -6.6      1.161      2.065
REMARK  Name = 
REMARK  10 active torsions:
REMARK  status: ('A' for Active; 'I' for Inactive)
REMARK    1  A    between atoms: C_1  and  O_2
REMARK    2  A    between atoms: O_2  and  C_3
REMARK    3  A    between atoms: C_6  and  N_7
REMARK    4  A    between atoms: C_8  and  C_10
REMARK    5  A    between atoms: C_13  and  O_14
REMARK    6  A    between atoms: O_14  and  C_15
REMARK    7  A    between atoms: C_16  and  O_17
REMARK    8  A    between atoms: O_17  and  C_18
REMARK    9  A    between atoms: C_21  and  O_22
REMARK   10  A    between atoms: O_22  and  C_23
REMARK                            x       y       z     vdW  Elec       q    Type
REMARK                         _______ _______ _______ _____ _____    ______ ____
ROOT
ATOM      1  N   UNL     1       3.001   7.786  18.038  0.00  0.00    +0.000 N 
ATOM      2  C   UNL     1       2.230   7.712  19.195  0.00  0.00    +0.000 C 
ATOM      3  O   UNL     1       2.259   6.803  20.011  0.00  0.00    +0.000 OA
ATOM      4  H   UNL     1       3.037   8.663  17.537  0.00  0.00    +0.000 HD
ENDROOT
BRANCH   1   8
ATOM      5  C   UNL     1       5.640   4.801  16.569  0.00  0.00    +0.000 A 
ATOM      6  C   UNL     1       4.323   4.483  16.930  0.00  0.00    +0.000 A 
ATOM      7  C   UNL     1       3.442   5.455  17.392  0.00  0.00    +0.000 A 
ATOM      8  C   UNL     1       3.872   6.764  17.597  0.00  0.00    +0.000 A 
ATOM      9  C   UNL     1       5.211   7.062  17.333  0.00  0.00    +0.000 A 
ATOM     10  C   UNL     1       6.110   6.097  16.831  0.00  0.00    +0.000 A 
BRANCH   5  12
ATOM     11  C   UNL     1       6.393   3.915  14.520  0.00  0.00    +0.000 C 
ATOM     12  O   UNL     1       6.426   3.858  15.956  0.00  0.00    +0.000 OA
ENDBRANCH   5  12
BRANCH  10  13
ATOM     13  O   UNL     1       7.353   6.642  16.643  0.00  0.00    +0.000 OA
ATOM     14  C   UNL     1       7.794   7.727  17.439  0.00  0.00    +0.000 C 
ENDBRANCH  10  13
ENDBRANCH   1   8
BRANCH   2  15
ATOM     15  C   UNL     1       1.343   8.856  19.517  0.00  0.00    +0.000 A 
ATOM     16  C   UNL     1       0.884   9.630  18.445  0.00  0.00    +0.000 A 
ATOM     17  C   UNL     1       0.160  10.794  18.683  0.00  0.00    +0.000 A 
ATOM     18  C   UNL     1      -0.107  11.213  20.003  0.00  0.00    +0.000 A 
ATOM     19  C   UNL     1       0.358  10.438  21.080  0.00  0.00    +0.000 A 
ATOM     20  C   UNL     1       1.078   9.253  20.827  0.00  0.00    +0.000 A 
BRANCH  18  21
ATOM     21  O   UNL     1      -0.818  12.383  20.016  0.00  0.00    +0.000 OA
ATOM     22  C   UNL     1      -2.235  12.327  20.052  0.00  0.00    +0.000 C 
ENDBRANCH  18  21
BRANCH  19  23
ATOM     23  O   UNL     1       0.113  10.902  22.344  0.00  0.00    +0.000 OA
ATOM     24  C   UNL     1      -0.842  10.226  23.149  0.00  0.00    +0.000 C 
ENDBRANCH  19  23
ENDBRANCH   2  15
TORSDOF 6
ENDMDL
MODEL 9
REMARK VINA RESULT:      -6.5      1.023      8.424
REMARK  Name = 
REMARK  10 active torsions:
REMARK  status: ('A' for Active; 'I' for Inactive)
REMARK    1  A    between atoms: C_1  and  O_2
REMARK    2  A    between atoms: O_2  and  C_3
REMARK    3  A    between atoms: C_6  and  N_7
REMARK    4  A    between atoms: C_8  and  C_10
REMARK    5  A    between atoms: C_13  and  O_14
REMARK    6  A    between atoms: O_14  and  C_15
REMARK    7  A    between atoms: C_16  and  O_17
REMARK    8  A    between atoms: O_17  and  C_18
REMARK    9  A    between atoms: C_21  and  O_22
REMARK   10  A    between atoms: O_22  and  C_23
REMARK                            x       y       z     vdW  Elec       q    Type
REMARK                         _______ _______ _______ _____ _____    ______ ____
ROOT
ATOM      1  N   UNL     1       2.395   7.951  18.850  0.00  0.00    +0.000 N 
ATOM      2  C   UNL     1       2.622   6.577  18.870  0.00  0.00    +0.000 C 
ATOM      3  O   UNL     1       2.016   5.766  19.554  0.00  0.00    +0.000 OA
ATOM      4  H   UNL     1       2.819   8.500  18.115  0.00  0.00    +0.000 HD
ENDROOT
BRANCH   1   8
ATOM      5  C   UNL     1      -0.296  10.097  21.337  0.00  0.00    +0.000 A 
ATOM      6  C   UNL     1       0.586   9.151  21.879  0.00  0.00    +0.000 A 
ATOM      7  C   UNL     1       1.487   8.457  21.078  0.00  0.00    +0.000 A 
ATOM      8  C   UNL     1       1.478   8.616  19.695  0.00  0.00    +0.000 A 
ATOM      9  C   UNL     1       0.532   9.484  19.142  0.00  0.00    +0.000 A 
ATOM     10  C   UNL     1      -0.366  10.223  19.941  0.00  0.00    +0.000 A 
BRANCH   5  12
ATOM     11  C   UNL     1      -0.566  12.236  22.288  0.00  0.00    +0.000 C 
ATOM     12  O   UNL     1      -1.046  10.886  22.172  0.00  0.00    +0.000 OA
ENDBRANCH   5  12
BRANCH  10  13
ATOM     13  O   UNL     1      -1.176  11.007  19.163  0.00  0.00    +0.000 OA
ATOM     14  C   UNL     1      -0.677  12.186  18.559  0.00  0.00    +0.000 C 
ENDBRANCH  10  13
ENDBRANCH   1   8
BRANCH   2  15
ATOM     15  C   UNL     1       3.636   6.024  17.938  0.00  0.00    +0.000 A 
ATOM     16  C   UNL     1       3.458   4.704  17.510  0.00  0.00    +0.000 A 
ATOM     17  C   UNL     1       4.438   4.079  16.745  0.00  0.00    +0.000 A 
ATOM     18  C   UNL     1       5.624   4.763  16.405  0.00  0.00    +0.000 A 
ATOM     19  C   UNL     1       5.805   6.088  16.838  0.00  0.00    +0.000 A 
ATOM     20  C   UNL     1       4.799   6.716  17.601  0.00  0.00    +0.000 A 
BRANCH  18  21
ATOM     21  O   UNL     1       6.457   3.969  15.664  0.00  0.00    +0.000 OA
ATOM     22  C   UNL     1       6.363   4.004  14.249  0.00  0.00    +0.000 C 
ENDBRANCH  18  21
BRANCH  19  23
ATOM     23  O   UNL     1       6.987   6.700  16.522  0.00  0.00    +0.000 OA
ATOM     24  C   UNL     1       7.566   7.596  17.459  0.00  0.00    +0.000 C 
ENDBRANCH  19  23
ENDBRANCH   2  15
TORSDOF 6
ENDMDL
