MODEL 1
REMARK VINA RESULT:      -7.3      0.000      0.000
REMARK  Name = 
REMARK  6 active torsions:
REMARK  status: ('A' for Active; 'I' for Inactive)
REMARK    1  A    between atoms: C_1  and  O_2
REMARK    2  A    between atoms: O_2  and  C_3
REMARK    3  A    between atoms: C_5  and  C_6
REMARK    4  A    between atoms: C_7  and  C_8
REMARK    5  A    between atoms: C_10  and  N_11
REMARK    6  A    between atoms: C_15  and  O_16
REMARK                            x       y       z     vdW  Elec       q    Type
REMARK                         _______ _______ _______ _____ _____    ______ ____
ROOT
ATOM      1  C   UNL     1       2.513   5.695  18.372  0.00  0.00    +0.000 C 
ATOM      2  C   UNL     1       2.299   7.060  18.976  0.00  0.00    +0.000 C 
ATOM      3  C   UNL     1       2.038   7.243  20.282  0.00  0.00    +0.000 C 
ATOM      4  O   UNL     1       1.986   6.172  21.175  0.00  0.00    +0.000 OA
ATOM      5  C   UNL     1       2.108   4.881  20.714  0.00  0.00    +0.000 A 
ATOM      6  C   UNL     1       1.997   3.855  21.654  0.00  0.00    +0.000 A 
ATOM      7  C   UNL     1       2.102   2.528  21.236  0.00  0.00    +0.000 A 
ATOM      8  C   UNL     1       2.298   2.213  19.899  0.00  0.00    +0.000 A 
ATOM      9  C   UNL     1       2.410   3.236  18.962  0.00  0.00    +0.000 A 
ATOM     10  C   UNL     1       2.335   4.579  19.369  0.00  0.00    +0.000 A 
ENDROOT
BRANCH   1  13
ATOM     11  C   UNL     1       6.261   6.078  17.593  0.00  0.00    +0.000 A 
ATOM     12  C   UNL     1       5.032   6.109  18.265  0.00  0.00    +0.000 A 
ATOM     13  C   UNL     1       3.860   5.614  17.667  0.00  0.00    +0.000 A 
ATOM     14  C   UNL     1       3.941   5.046  16.392  0.00  0.00    +0.000 A 
ATOM     15  C   UNL     1       5.167   4.965  15.740  0.00  0.00    +0.000 A 
ATOM     16  C   UNL     1       6.331   5.497  16.320  0.00  0.00    +0.000 A 
ATOM     17  O   UNL     1       7.545   5.418  15.685  0.00  0.00    +0.000 OA
ATOM     18  C   UNL     1       7.408   5.126  14.292  0.00  0.00    +0.000 C 
ATOM     19  C   UNL     1       6.452   3.966  14.094  0.00  0.00    +0.000 C 
ATOM     20  O   UNL     1       5.139   4.337  14.519  0.00  0.00    +0.000 OA
BRANCH  11  22
ATOM     21  C   UNL     1       7.837   5.781  19.342  0.00  0.00    +0.000 C 
ATOM     22  O   UNL     1       7.295   6.609  18.320  0.00  0.00    +0.000 OA
ENDBRANCH  11  22
ENDBRANCH   1  13
BRANCH   3  23
ATOM     23  N   UNL     1       1.806   8.458  20.881  0.00  0.00    +0.000 N 
ATOM     24  H   UNL     1       2.073   8.530  21.860  0.00  0.00    +0.000 HD
ATOM     25  H   UNL     1       0.871   8.810  20.692  0.00  0.00    +0.000 HD
ENDBRANCH   3  23
BRANCH   2  26
ATOM     26  C   UNL     1       2.384   8.203  17.978  0.00  0.00    +0.000 C 
ATOM     27  N   UNL     1       2.454   9.152  17.149  0.00  0.00    +0.000 NA
ENDBRANCH   2  26
BRANCH   7  28
ATOM     28  O   UNL     1       2.018   1.491  22.116  0.00  0.00    +0.000 OA
ATOM     29  H   UNL     1       1.320   0.885  21.820  0.00  0.00    +0.000 HD
ENDBRANCH   7  28
TORSDOF 5
ENDMDL
MODEL 2
REMARK VINA RESULT:      -6.5      8.726     11.155
REMARK  Name = 
REMARK  6 active torsions:
REMARK  status: ('A' for Active; 'I' for Inactive)
REMARK    1  A    between atoms: C_1  and  O_2
REMARK    2  A    between atoms: O_2  and  C_3
REMARK    3  A    between atoms: C_5  and  C_6
REMARK    4  A    between atoms: C_7  and  C_8
REMARK    5  A    between atoms: C_10  and  N_11
REMARK    6  A    between atoms: C_15  and  O_16
REMARK                            x       y       z     vdW  Elec       q    Type
REMARK                         _______ _______ _______ _____ _____    ______ ____
ROOT
ATOM      1  C   UNL     1      -4.466  13.603  21.104  0.00  0.00    +0.000 C 
ATOM      2  C   UNL     1      -4.976  14.040  22.454  0.00  0.00    +0.000 C 
ATOM      3  C   UNL     1      -6.038  13.468  23.048  0.00  0.00    +0.000 C 
ATOM      4  O   UNL     1      -6.717  12.398  22.462  0.00  0.00    +0.000 OA
ATOM      5  C   UNL     1      -6.368  11.964  21.203  0.00  0.00    +0.000 A 
ATOM      6  C   UNL     1      -7.120  10.924  20.657  0.00  0.00    +0.000 A 
ATOM      7  C   UNL     1      -6.813  10.454  19.379  0.00  0.00    +0.000 A 
ATOM      8  C   UNL     1      -5.784  11.017  18.638  0.00  0.00    +0.000 A 
ATOM      9  C   UNL     1      -5.033  12.054  19.184  0.00  0.00    +0.000 A 
ATOM     10  C   UNL     1      -5.309  12.520  20.480  0.00  0.00    +0.000 A 
ENDROOT
BRANCH   1  13
ATOM     11  C   UNL     1      -1.160  12.027  22.280  0.00  0.00    +0.000 A 
ATOM     12  C   UNL     1      -2.518  12.352  22.187  0.00  0.00    +0.000 A 
ATOM     13  C   UNL     1      -2.998  13.204  21.177  0.00  0.00    +0.000 A 
ATOM     14  C   UNL     1      -2.098  13.700  20.229  0.00  0.00    +0.000 A 
ATOM     15  C   UNL     1      -0.756  13.340  20.285  0.00  0.00    +0.000 A 
ATOM     16  C   UNL     1      -0.269  12.522  21.318  0.00  0.00    +0.000 A 
ATOM     17  O   UNL     1       1.053  12.160  21.379  0.00  0.00    +0.000 OA
ATOM     18  C   UNL     1       1.880  12.994  20.564  0.00  0.00    +0.000 C 
ATOM     19  C   UNL     1       1.271  13.142  19.184  0.00  0.00    +0.000 C 
ATOM     20  O   UNL     1       0.026  13.838  19.271  0.00  0.00    +0.000 OA
BRANCH  11  22
ATOM     21  C   UNL     1      -0.659   9.824  23.006  0.00  0.00    +0.000 C 
ATOM     22  O   UNL     1      -0.868  11.193  23.329  0.00  0.00    +0.000 OA
ENDBRANCH  11  22
ENDBRANCH   1  13
BRANCH   3  23
ATOM     23  N   UNL     1      -6.564  13.843  24.261  0.00  0.00    +0.000 N 
ATOM     24  H   UNL     1      -6.194  14.703  24.659  0.00  0.00    +0.000 HD
ATOM     25  H   UNL     1      -6.595  13.073  24.924  0.00  0.00    +0.000 HD
ENDBRANCH   3  23
BRANCH   2  26
ATOM     26  C   UNL     1      -4.200  15.191  23.071  0.00  0.00    +0.000 C 
ATOM     27  N   UNL     1      -3.555  16.147  23.583  0.00  0.00    +0.000 NA
ENDBRANCH   2  26
BRANCH   7  28
ATOM     28  O   UNL     1      -7.506   9.430  18.807  0.00  0.00    +0.000 OA
ATOM     29  H   UNL     1      -8.279   9.227  19.359  0.00  0.00    +0.000 HD
ENDBRANCH   7  28
TORSDOF 5
ENDMDL
MODEL 3
REMARK VINA RESULT:      -6.4      6.449     10.041
REMARK  Name = 
REMARK  6 active torsions:
REMARK  status: ('A' for Active; 'I' for Inactive)
REMARK    1  A    between atoms: C_1  and  O_2
REMARK    2  A    between atoms: O_2  and  C_3
REMARK    3  A    between atoms: C_5  and  C_6
REMARK    4  A    between atoms: C_7  and  C_8
REMARK    5  A    between atoms: C_10  and  N_11
REMARK    6  A    between atoms: C_15  and  O_16
REMARK                            x       y       z     vdW  Elec       q    Type
REMARK                         _______ _______ _______ _____ _____    ______ ____
ROOT
ATOM      1  C   UNL     1      -0.350  12.107  20.095  0.00  0.00    +0.000 C 
ATOM      2  C   UNL     1       0.457  12.852  19.062  0.00  0.00    +0.000 C 
ATOM      3  C   UNL     1       1.497  12.298  18.415  0.00  0.00    +0.000 C 
ATOM      4  O   UNL     1       1.874  10.972  18.635  0.00  0.00    +0.000 OA
ATOM      5  C   UNL     1       1.240  10.225  19.602  0.00  0.00    +0.000 A 
ATOM      6  C   UNL     1       1.699   8.923  19.804  0.00  0.00    +0.000 A 
ATOM      7  C   UNL     1       1.098   8.127  20.779  0.00  0.00    +0.000 A 
ATOM      8  C   UNL     1       0.062   8.617  21.562  0.00  0.00    +0.000 A 
ATOM      9  C   UNL     1      -0.397   9.915  21.359  0.00  0.00    +0.000 A 
ATOM     10  C   UNL     1       0.177  10.720  20.362  0.00  0.00    +0.000 A 
ENDROOT
BRANCH   1  13
ATOM     11  C   UNL     1      -3.627  11.559  18.156  0.00  0.00    +0.000 A 
ATOM     12  C   UNL     1      -2.274  11.530  18.514  0.00  0.00    +0.000 A 
ATOM     13  C   UNL     1      -1.828  12.087  19.726  0.00  0.00    +0.000 A 
ATOM     14  C   UNL     1      -2.766  12.644  20.600  0.00  0.00    +0.000 A 
ATOM     15  C   UNL     1      -4.118  12.630  20.273  0.00  0.00    +0.000 A 
ATOM     16  C   UNL     1      -4.560  12.110  19.044  0.00  0.00    +0.000 A 
ATOM     17  O   UNL     1      -5.892  12.089  18.716  0.00  0.00    +0.000 OA
ATOM     18  C   UNL     1      -6.664  12.971  19.534  0.00  0.00    +0.000 C 
ATOM     19  C   UNL     1      -6.314  12.768  20.995  0.00  0.00    +0.000 C 
ATOM     20  O   UNL     1      -4.956  13.149  21.229  0.00  0.00    +0.000 OA
BRANCH  11  22
ATOM     21  C   UNL     1      -2.786  10.899  16.037  0.00  0.00    +0.000 C 
ATOM     22  O   UNL     1      -3.883  10.979  16.940  0.00  0.00    +0.000 OA
ENDBRANCH  11  22
ENDBRANCH   1  13
BRANCH   3  23
ATOM     23  N   UNL     1       2.285  12.937  17.487  0.00  0.00    +0.000 N 
ATOM     24  H   UNL     1       1.847  13.128  16.589  0.00  0.00    +0.000 HD
ATOM     25  H   UNL     1       3.206  12.515  17.406  0.00  0.00    +0.000 HD
ENDBRANCH   3  23
BRANCH   2  26
ATOM     26  C   UNL     1       0.004  14.285  18.833  0.00  0.00    +0.000 C 
ATOM     27  N   UNL     1      -0.372  15.474  18.643  0.00  0.00    +0.000 NA
ENDBRANCH   2  26
BRANCH   7  28
ATOM     28  O   UNL     1       1.499   6.845  21.004  0.00  0.00    +0.000 OA
ATOM     29  H   UNL     1       0.713   6.288  21.126  0.00  0.00    +0.000 HD
ENDBRANCH   7  28
TORSDOF 5
ENDMDL
MODEL 4
REMARK VINA RESULT:      -6.3      6.519      9.941
REMARK  Name = 
REMARK  6 active torsions:
REMARK  status: ('A' for Active; 'I' for Inactive)
REMARK    1  A    between atoms: C_1  and  O_2
REMARK    2  A    between atoms: O_2  and  C_3
REMARK    3  A    between atoms: C_5  and  C_6
REMARK    4  A    between atoms: C_7  and  C_8
REMARK    5  A    between atoms: C_10  and  N_11
REMARK    6  A    between atoms: C_15  and  O_16
REMARK                            x       y       z     vdW  Elec       q    Type
REMARK                         _______ _______ _______ _____ _____    ______ ____
ROOT
ATOM      1  C   UNL     1      -0.295  12.235  20.281  0.00  0.00    +0.000 C 
ATOM      2  C   UNL     1       0.466  12.943  19.189  0.00  0.00    +0.000 C 
ATOM      3  C   UNL     1       1.434  12.344  18.474  0.00  0.00    +0.000 C 
ATOM      4  O   UNL     1       1.771  11.004  18.677  0.00  0.00    +0.000 OA
ATOM      5  C   UNL     1       1.177  10.288  19.691  0.00  0.00    +0.000 A 
ATOM      6  C   UNL     1       1.597   8.969  19.869  0.00  0.00    +0.000 A 
ATOM      7  C   UNL     1       1.034   8.203  20.890  0.00  0.00    +0.000 A 
ATOM      8  C   UNL     1       0.077   8.738  21.741  0.00  0.00    +0.000 A 
ATOM      9  C   UNL     1      -0.342  10.052  21.561  0.00  0.00    +0.000 A 
ATOM     10  C   UNL     1       0.193  10.829  20.521  0.00  0.00    +0.000 A 
ENDROOT
BRANCH   1  13
ATOM     11  C   UNL     1      -4.074  12.801  20.735  0.00  0.00    +0.000 A 
ATOM     12  C   UNL     1      -2.692  12.811  20.958  0.00  0.00    +0.000 A 
ATOM     13  C   UNL     1      -1.795  12.275  20.017  0.00  0.00    +0.000 A 
ATOM     14  C   UNL     1      -2.301  11.759  18.821  0.00  0.00    +0.000 A 
ATOM     15  C   UNL     1      -3.669  11.792  18.569  0.00  0.00    +0.000 A 
ATOM     16  C   UNL     1      -4.568  12.290  19.527  0.00  0.00    +0.000 A 
ATOM     17  O   UNL     1      -5.919  12.329  19.285  0.00  0.00    +0.000 OA
ATOM     18  C   UNL     1      -6.297  11.483  18.197  0.00  0.00    +0.000 C 
ATOM     19  C   UNL     1      -5.381  11.714  17.013  0.00  0.00    +0.000 C 
ATOM     20  O   UNL     1      -4.049  11.312  17.340  0.00  0.00    +0.000 OA
BRANCH  11  22
ATOM     21  C   UNL     1      -4.424  12.969  23.075  0.00  0.00    +0.000 C 
ATOM     22  O   UNL     1      -4.798  13.355  21.758  0.00  0.00    +0.000 OA
ENDBRANCH  11  22
ENDBRANCH   1  13
BRANCH   3  23
ATOM     23  N   UNL     1       2.180  12.946  17.489  0.00  0.00    +0.000 N 
ATOM     24  H   UNL     1       2.669  12.319  16.855  0.00  0.00    +0.000 HD
ATOM     25  H   UNL     1       2.767  13.692  17.851  0.00  0.00    +0.000 HD
ENDBRANCH   3  23
BRANCH   2  26
ATOM     26  C   UNL     1       0.057  14.392  18.982  0.00  0.00    +0.000 C 
ATOM     27  N   UNL     1      -0.283  15.595  18.811  0.00  0.00    +0.000 NA
ENDBRANCH   2  26
BRANCH   7  28
ATOM     28  O   UNL     1       1.397   6.906  21.096  0.00  0.00    +0.000 OA
ATOM     29  H   UNL     1       1.482   6.464  20.235  0.00  0.00    +0.000 HD
ENDBRANCH   7  28
TORSDOF 5
ENDMDL
MODEL 5
REMARK VINA RESULT:      -6.3      4.939      7.557
REMARK  Name = 
REMARK  6 active torsions:
REMARK  status: ('A' for Active; 'I' for Inactive)
REMARK    1  A    between atoms: C_1  and  O_2
REMARK    2  A    between atoms: O_2  and  C_3
REMARK    3  A    between atoms: C_5  and  C_6
REMARK    4  A    between atoms: C_7  and  C_8
REMARK    5  A    between atoms: C_10  and  N_11
REMARK    6  A    between atoms: C_15  and  O_16
REMARK                            x       y       z     vdW  Elec       q    Type
REMARK                         _______ _______ _______ _____ _____    ______ ____
ROOT
ATOM      1  C   UNL     1      -0.220  11.433  18.290  0.00  0.00    +0.000 C 
ATOM      2  C   UNL     1       0.179  12.665  19.061  0.00  0.00    +0.000 C 
ATOM      3  C   UNL     1      -0.716  13.459  19.675  0.00  0.00    +0.000 C 
ATOM      4  O   UNL     1      -2.080  13.165  19.667  0.00  0.00    +0.000 OA
ATOM      5  C   UNL     1      -2.554  12.097  18.941  0.00  0.00    +0.000 A 
ATOM      6  C   UNL     1      -3.934  11.890  18.937  0.00  0.00    +0.000 A 
ATOM      7  C   UNL     1      -4.466  10.827  18.207  0.00  0.00    +0.000 A 
ATOM      8  C   UNL     1      -3.645   9.983  17.472  0.00  0.00    +0.000 A 
ATOM      9  C   UNL     1      -2.269  10.188  17.478  0.00  0.00    +0.000 A 
ATOM     10  C   UNL     1      -1.713  11.236  18.230  0.00  0.00    +0.000 A 
ENDROOT
BRANCH   1  13
ATOM     11  C   UNL     1       1.076   8.707  20.676  0.00  0.00    +0.000 A 
ATOM     12  C   UNL     1       0.381   9.815  20.175  0.00  0.00    +0.000 A 
ATOM     13  C   UNL     1       0.491  10.197  18.827  0.00  0.00    +0.000 A 
ATOM     14  C   UNL     1       1.282   9.427  17.969  0.00  0.00    +0.000 A 
ATOM     15  C   UNL     1       1.934   8.296  18.448  0.00  0.00    +0.000 A 
ATOM     16  C   UNL     1       1.857   7.937  19.805  0.00  0.00    +0.000 A 
ATOM     17  O   UNL     1       2.495   6.821  20.285  0.00  0.00    +0.000 OA
ATOM     18  C   UNL     1       3.503   6.348  19.389  0.00  0.00    +0.000 C 
ATOM     19  C   UNL     1       2.954   6.271  17.979  0.00  0.00    +0.000 C 
ATOM     20  O   UNL     1       2.635   7.582  17.508  0.00  0.00    +0.000 OA
BRANCH  11  22
ATOM     21  C   UNL     1      -0.115   9.310  22.638  0.00  0.00    +0.000 C 
ATOM     22  O   UNL     1       0.859   8.485  22.012  0.00  0.00    +0.000 OA
ENDBRANCH  11  22
ENDBRANCH   1  13
BRANCH   3  23
ATOM     23  N   UNL     1      -0.413  14.608  20.366  0.00  0.00    +0.000 N 
ATOM     24  H   UNL     1      -0.365  14.518  21.378  0.00  0.00    +0.000 HD
ATOM     25  H   UNL     1      -0.968  15.402  20.058  0.00  0.00    +0.000 HD
ENDBRANCH   3  23
BRANCH   2  26
ATOM     26  C   UNL     1       1.674  12.940  19.066  0.00  0.00    +0.000 C 
ATOM     27  N   UNL     1       2.915  13.168  19.070  0.00  0.00    +0.000 NA
ENDBRANCH   2  26
BRANCH   7  28
ATOM     28  O   UNL     1      -5.804  10.573  18.183  0.00  0.00    +0.000 OA
ATOM     29  H   UNL     1      -6.257  11.227  18.739  0.00  0.00    +0.000 HD
ENDBRANCH   7  28
TORSDOF 5
ENDMDL
MODEL 6
REMARK VINA RESULT:      -6.2      5.803      8.786
REMARK  Name = 
REMARK  6 active torsions:
REMARK  status: ('A' for Active; 'I' for Inactive)
REMARK    1  A    between atoms: C_1  and  O_2
REMARK    2  A    between atoms: O_2  and  C_3
REMARK    3  A    between atoms: C_5  and  C_6
REMARK    4  A    between atoms: C_7  and  C_8
REMARK    5  A    between atoms: C_10  and  N_11
REMARK    6  A    between atoms: C_15  and  O_16
REMARK                            x       y       z     vdW  Elec       q    Type
REMARK                         _______ _______ _______ _____ _____    ______ ____
ROOT
ATOM      1  C   UNL     1      -0.098  10.994  20.327  0.00  0.00    +0.000 C 
ATOM      2  C   UNL     1      -0.472  10.688  21.755  0.00  0.00    +0.000 C 
ATOM      3  C   UNL     1      -0.056   9.580  22.393  0.00  0.00    +0.000 C 
ATOM      4  O   UNL     1       0.788   8.655  21.777  0.00  0.00    +0.000 OA
ATOM      5  C   UNL     1       1.138   8.811  20.455  0.00  0.00    +0.000 A 
ATOM      6  C   UNL     1       1.944   7.823  19.888  0.00  0.00    +0.000 A 
ATOM      7  C   UNL     1       2.318   7.929  18.548  0.00  0.00    +0.000 A 
ATOM      8  C   UNL     1       1.888   8.992  17.768  0.00  0.00    +0.000 A 
ATOM      9  C   UNL     1       1.085   9.978  18.334  0.00  0.00    +0.000 A 
ATOM     10  C   UNL     1       0.722   9.903  19.689  0.00  0.00    +0.000 A 
ENDROOT
BRANCH   1  13
ATOM     11  C   UNL     1       0.678  14.628  19.331  0.00  0.00    +0.000 A 
ATOM     12  C   UNL     1       0.023  13.398  19.469  0.00  0.00    +0.000 A 
ATOM     13  C   UNL     1       0.586  12.351  20.219  0.00  0.00    +0.000 A 
ATOM     14  C   UNL     1       1.806  12.565  20.868  0.00  0.00    +0.000 A 
ATOM     15  C   UNL     1       2.437  13.800  20.777  0.00  0.00    +0.000 A 
ATOM     16  C   UNL     1       1.895  14.834  19.994  0.00  0.00    +0.000 A 
ATOM     17  O   UNL     1       2.511  16.057  19.902  0.00  0.00    +0.000 OA
ATOM     18  C   UNL     1       3.874  16.009  20.330  0.00  0.00    +0.000 C 
ATOM     19  C   UNL     1       3.979  15.286  21.658  0.00  0.00    +0.000 C 
ATOM     20  O   UNL     1       3.599  13.918  21.500  0.00  0.00    +0.000 OA
BRANCH  11  22
ATOM     21  C   UNL     1      -0.847  16.444  19.256  0.00  0.00    +0.000 C 
ATOM     22  O   UNL     1      -0.008  15.530  18.560  0.00  0.00    +0.000 OA
ENDBRANCH  11  22
ENDBRANCH   1  13
BRANCH   3  23
ATOM     23  N   UNL     1      -0.388   9.235  23.681  0.00  0.00    +0.000 N 
ATOM     24  H   UNL     1       0.376   9.236  24.353  0.00  0.00    +0.000 HD
ATOM     25  H   UNL     1      -0.959   8.395  23.722  0.00  0.00    +0.000 HD
ENDBRANCH   3  23
BRANCH   2  26
ATOM     26  C   UNL     1      -1.373  11.728  22.400  0.00  0.00    +0.000 C 
ATOM     27  N   UNL     1      -2.121  12.592  22.935  0.00  0.00    +0.000 NA
ENDBRANCH   2  26
BRANCH   7  28
ATOM     28  O   UNL     1       3.117   7.000  17.952  0.00  0.00    +0.000 OA
ATOM     29  H   UNL     1       3.849   7.455  17.506  0.00  0.00    +0.000 HD
ENDBRANCH   7  28
TORSDOF 5
ENDMDL
MODEL 7
REMARK VINA RESULT:      -6.2      5.858      8.715
REMARK  Name = 
REMARK  6 active torsions:
REMARK  status: ('A' for Active; 'I' for Inactive)
REMARK    1  A    between atoms: C_1  and  O_2
REMARK    2  A    between atoms: O_2  and  C_3
REMARK    3  A    between atoms: C_5  and  C_6
REMARK    4  A    between atoms: C_7  and  C_8
REMARK    5  A    between atoms: C_10  and  N_11
REMARK    6  A    between atoms: C_15  and  O_16
REMARK                            x       y       z     vdW  Elec       q    Type
REMARK                         _______ _______ _______ _____ _____    ______ ____
ROOT
ATOM      1  C   UNL     1      -0.167  10.968  20.393  0.00  0.00    +0.000 C 
ATOM      2  C   UNL     1      -0.424  10.696  21.853  0.00  0.00    +0.000 C 
ATOM      3  C   UNL     1       0.085   9.630  22.494  0.00  0.00    +0.000 C 
ATOM      4  O   UNL     1       0.924   8.720  21.848  0.00  0.00    +0.000 OA
ATOM      5  C   UNL     1       1.172   8.845  20.500  0.00  0.00    +0.000 A 
ATOM      6  C   UNL     1       1.979   7.872  19.907  0.00  0.00    +0.000 A 
ATOM      7  C   UNL     1       2.251   7.947  18.541  0.00  0.00    +0.000 A 
ATOM      8  C   UNL     1       1.719   8.964  17.761  0.00  0.00    +0.000 A 
ATOM      9  C   UNL     1       0.916   9.934  18.352  0.00  0.00    +0.000 A 
ATOM     10  C   UNL     1       0.654   9.890  19.731  0.00  0.00    +0.000 A 
ENDROOT
BRANCH   1  13
ATOM     11  C   UNL     1       2.326  13.898  20.403  0.00  0.00    +0.000 A 
ATOM     12  C   UNL     1       1.781  12.615  20.542  0.00  0.00    +0.000 A 
ATOM     13  C   UNL     1       0.446  12.348  20.192  0.00  0.00    +0.000 A 
ATOM     14  C   UNL     1      -0.332  13.380  19.660  0.00  0.00    +0.000 A 
ATOM     15  C   UNL     1       0.218  14.643  19.471  0.00  0.00    +0.000 A 
ATOM     16  C   UNL     1       1.540  14.921  19.859  0.00  0.00    +0.000 A 
ATOM     17  O   UNL     1       2.092  16.164  19.673  0.00  0.00    +0.000 OA
ATOM     18  C   UNL     1       1.099  17.166  19.441  0.00  0.00    +0.000 C 
ATOM     19  C   UNL     1       0.111  16.690  18.394  0.00  0.00    +0.000 C 
ATOM     20  O   UNL     1      -0.617  15.564  18.888  0.00  0.00    +0.000 OA
BRANCH  11  22
ATOM     21  C   UNL     1       3.872  14.545  22.083  0.00  0.00    +0.000 C 
ATOM     22  O   UNL     1       3.636  13.980  20.799  0.00  0.00    +0.000 OA
ENDBRANCH  11  22
ENDBRANCH   1  13
BRANCH   3  23
ATOM     23  N   UNL     1      -0.139   9.317  23.813  0.00  0.00    +0.000 N 
ATOM     24  H   UNL     1      -1.081   9.013  24.044  0.00  0.00    +0.000 HD
ATOM     25  H   UNL     1       0.222  10.026  24.445  0.00  0.00    +0.000 HD
ENDBRANCH   3  23
BRANCH   2  26
ATOM     26  C   UNL     1      -1.323  11.719  22.528  0.00  0.00    +0.000 C 
ATOM     27  N   UNL     1      -2.069  12.569  23.089  0.00  0.00    +0.000 NA
ENDBRANCH   2  26
BRANCH   7  28
ATOM     28  O   UNL     1       3.046   7.032  17.919  0.00  0.00    +0.000 OA
ATOM     29  H   UNL     1       2.508   6.528  17.287  0.00  0.00    +0.000 HD
ENDBRANCH   7  28
TORSDOF 5
ENDMDL
MODEL 8
REMARK VINA RESULT:      -6.2     11.284     14.239
REMARK  Name = 
REMARK  6 active torsions:
REMARK  status: ('A' for Active; 'I' for Inactive)
REMARK    1  A    between atoms: C_1  and  O_2
REMARK    2  A    between atoms: O_2  and  C_3
REMARK    3  A    between atoms: C_5  and  C_6
REMARK    4  A    between atoms: C_7  and  C_8
REMARK    5  A    between atoms: C_10  and  N_11
REMARK    6  A    between atoms: C_15  and  O_16
REMARK                            x       y       z     vdW  Elec       q    Type
REMARK                         _______ _______ _______ _____ _____    ______ ____
ROOT
ATOM      1  C   UNL     1      -7.251  13.399  21.114  0.00  0.00    +0.000 C 
ATOM      2  C   UNL     1      -7.528  11.920  21.213  0.00  0.00    +0.000 C 
ATOM      3  C   UNL     1      -7.627  11.126  20.133  0.00  0.00    +0.000 C 
ATOM      4  O   UNL     1      -7.438  11.621  18.841  0.00  0.00    +0.000 OA
ATOM      5  C   UNL     1      -7.240  12.968  18.639  0.00  0.00    +0.000 A 
ATOM      6  C   UNL     1      -7.109  13.401  17.319  0.00  0.00    +0.000 A 
ATOM      7  C   UNL     1      -6.918  14.758  17.059  0.00  0.00    +0.000 A 
ATOM      8  C   UNL     1      -6.873  15.684  18.091  0.00  0.00    +0.000 A 
ATOM      9  C   UNL     1      -7.003  15.252  19.407  0.00  0.00    +0.000 A 
ATOM     10  C   UNL     1      -7.167  13.885  19.689  0.00  0.00    +0.000 A 
ENDROOT
BRANCH   1  13
ATOM     11  C   UNL     1      -4.907  15.148  23.613  0.00  0.00    +0.000 A 
ATOM     12  C   UNL     1      -6.059  14.766  22.914  0.00  0.00    +0.000 A 
ATOM     13  C   UNL     1      -6.012  13.779  21.914  0.00  0.00    +0.000 A 
ATOM     14  C   UNL     1      -4.795  13.146  21.646  0.00  0.00    +0.000 A 
ATOM     15  C   UNL     1      -3.658  13.484  22.372  0.00  0.00    +0.000 A 
ATOM     16  C   UNL     1      -3.695  14.499  23.344  0.00  0.00    +0.000 A 
ATOM     17  O   UNL     1      -2.578  14.836  24.067  0.00  0.00    +0.000 OA
ATOM     18  C   UNL     1      -1.377  14.353  23.461  0.00  0.00    +0.000 C 
ATOM     19  C   UNL     1      -1.534  12.894  23.081  0.00  0.00    +0.000 C 
ATOM     20  O   UNL     1      -2.532  12.759  22.067  0.00  0.00    +0.000 OA
BRANCH  11  22
ATOM     21  C   UNL     1      -5.801  17.295  24.083  0.00  0.00    +0.000 C 
ATOM     22  O   UNL     1      -5.134  16.127  24.545  0.00  0.00    +0.000 OA
ENDBRANCH  11  22
ENDBRANCH   1  13
BRANCH   3  23
ATOM     23  N   UNL     1      -7.906   9.780  20.162  0.00  0.00    +0.000 N 
ATOM     24  H   UNL     1      -8.753   9.492  19.679  0.00  0.00    +0.000 HD
ATOM     25  H   UNL     1      -7.821   9.388  21.096  0.00  0.00    +0.000 HD
ENDBRANCH   3  23
BRANCH   2  26
ATOM     26  C   UNL     1      -7.706  11.414  22.635  0.00  0.00    +0.000 C 
ATOM     27  N   UNL     1      -7.853  10.994  23.816  0.00  0.00    +0.000 NA
ENDBRANCH   2  26
BRANCH   7  28
ATOM     28  O   UNL     1      -6.767  15.230  15.789  0.00  0.00    +0.000 OA
ATOM     29  H   UNL     1      -6.456  16.148  15.831  0.00  0.00    +0.000 HD
ENDBRANCH   7  28
TORSDOF 5
ENDMDL
MODEL 9
REMARK VINA RESULT:      -6.1      7.827     10.810
REMARK  Name = 
REMARK  6 active torsions:
REMARK  status: ('A' for Active; 'I' for Inactive)
REMARK    1  A    between atoms: C_1  and  O_2
REMARK    2  A    between atoms: O_2  and  C_3
REMARK    3  A    between atoms: C_5  and  C_6
REMARK    4  A    between atoms: C_7  and  C_8
REMARK    5  A    between atoms: C_10  and  N_11
REMARK    6  A    between atoms: C_15  and  O_16
REMARK                            x       y       z     vdW  Elec       q    Type
REMARK                         _______ _______ _______ _____ _____    ______ ____
ROOT
ATOM      1  C   UNL     1      -2.675  13.839  22.251  0.00  0.00    +0.000 C 
ATOM      2  C   UNL     1      -1.982  14.524  23.401  0.00  0.00    +0.000 C 
ATOM      3  C   UNL     1      -2.560  14.686  24.604  0.00  0.00    +0.000 C 
ATOM      4  O   UNL     1      -3.837  14.191  24.875  0.00  0.00    +0.000 OA
ATOM      5  C   UNL     1      -4.577  13.603  23.874  0.00  0.00    +0.000 A 
ATOM      6  C   UNL     1      -5.864  13.174  24.202  0.00  0.00    +0.000 A 
ATOM      7  C   UNL     1      -6.660  12.582  23.221  0.00  0.00    +0.000 A 
ATOM      8  C   UNL     1      -6.197  12.428  21.922  0.00  0.00    +0.000 A 
ATOM      9  C   UNL     1      -4.913  12.854  21.596  0.00  0.00    +0.000 A 
ATOM     10  C   UNL     1      -4.087  13.427  22.578  0.00  0.00    +0.000 A 
ENDROOT
BRANCH   1  13
ATOM     11  C   UNL     1      -1.010  11.299  19.889  0.00  0.00    +0.000 A 
ATOM     12  C   UNL     1      -1.728  12.406  20.358  0.00  0.00    +0.000 A 
ATOM     13  C   UNL     1      -1.850  12.667  21.734  0.00  0.00    +0.000 A 
ATOM     14  C   UNL     1      -1.206  11.821  22.642  0.00  0.00    +0.000 A 
ATOM     15  C   UNL     1      -0.449  10.749  22.181  0.00  0.00    +0.000 A 
ATOM     16  C   UNL     1      -0.361  10.464  20.808  0.00  0.00    +0.000 A 
ATOM     17  O   UNL     1       0.387   9.410  20.345  0.00  0.00    +0.000 OA
ATOM     18  C   UNL     1       0.695   8.471  21.378  0.00  0.00    +0.000 C 
ATOM     19  C   UNL     1       1.214   9.195  22.604  0.00  0.00    +0.000 C 
ATOM     20  O   UNL     1       0.186  10.020  23.156  0.00  0.00    +0.000 OA
BRANCH  11  22
ATOM     21  C   UNL     1      -1.940  10.287  17.955  0.00  0.00    +0.000 C 
ATOM     22  O   UNL     1      -1.001  11.192  18.522  0.00  0.00    +0.000 OA
ENDBRANCH  11  22
ENDBRANCH   1  13
BRANCH   3  23
ATOM     23  N   UNL     1      -1.989  15.327  25.678  0.00  0.00    +0.000 N 
ATOM     24  H   UNL     1      -2.425  15.156  26.581  0.00  0.00    +0.000 HD
ATOM     25  H   UNL     1      -1.817  16.311  25.493  0.00  0.00    +0.000 HD
ENDBRANCH   3  23
BRANCH   2  26
ATOM     26  C   UNL     1      -0.586  15.031  23.075  0.00  0.00    +0.000 C 
ATOM     27  N   UNL     1       0.572  15.451  22.805  0.00  0.00    +0.000 NA
ENDBRANCH   2  26
BRANCH   7  28
ATOM     28  O   UNL     1      -7.917  12.132  23.494  0.00  0.00    +0.000 OA
ATOM     29  H   UNL     1      -8.547  12.597  22.920  0.00  0.00    +0.000 HD
ENDBRANCH   7  28
TORSDOF 5
ENDMDL
