MODEL 1
REMARK VINA RESULT:      -7.4      0.000      0.000
REMARK  Name = 
REMARK  6 active torsions:
REMARK  status: ('A' for Active; 'I' for Inactive)
REMARK    1  A    between atoms: C_1  and  C_2
REMARK    2  A    between atoms: N_8  and  C_9
REMARK    3  A    between atoms: C_9  and  C_10
REMARK    4  A    between atoms: N_17  and  C_18
REMARK    5  A    between atoms: C_18  and  C_19
REMARK    6  A    between atoms: C_18  and  C_20
REMARK                            x       y       z     vdW  Elec       q    Type
REMARK                         _______ _______ _______ _____ _____    ______ ____
ROOT
ATOM      1  C   UNL     1      -0.174   9.304  21.690  0.00  0.00    +0.000 C 
ATOM      2  C   UNL     1       0.611   9.326  20.404  0.00  0.00    +0.000 A 
ATOM      3  C   UNL     1       0.586  10.500  19.628  0.00  0.00    +0.000 A 
ATOM      4  C   UNL     1       1.351  10.594  18.481  0.00  0.00    +0.000 A 
ATOM      5  C   UNL     1       2.148   9.522  18.114  0.00  0.00    +0.000 A 
ATOM      6  C   UNL     1       2.154   8.310  18.861  0.00  0.00    +0.000 A 
ATOM      7  C   UNL     1       2.893   7.162  18.519  0.00  0.00    +0.000 A 
ATOM      8  N   UNL     1       3.820   7.244  17.462  0.00  0.00    +0.000 N 
ATOM      9  N   UNL     1       2.842   6.033  19.244  0.00  0.00    +0.000 NA
ATOM     10  C   UNL     1       2.079   6.031  20.342  0.00  0.00    +0.000 A 
ATOM     11  N   UNL     1       2.042   4.926  21.175  0.00  0.00    +0.000 N 
ATOM     12  N   UNL     1       1.346   7.075  20.746  0.00  0.00    +0.000 NA
ATOM     13  C   UNL     1       1.370   8.205  20.018  0.00  0.00    +0.000 A 
ATOM     14  H   UNL     1       3.495   7.856  16.726  0.00  0.00    +0.000 HD
ATOM     15  H   UNL     1       1.272   5.050  21.822  0.00  0.00    +0.000 HD
ENDROOT
BRANCH  11  16
ATOM     16  C   UNL     1       2.213   3.600  20.604  0.00  0.00    +0.000 C 
ATOM     17  C   UNL     1       2.511   2.620  21.742  0.00  0.00    +0.000 C 
ATOM     18  C   UNL     1       0.945   3.167  19.868  0.00  0.00    +0.000 C 
ENDBRANCH  11  16
BRANCH   8  19
ATOM     19  C   UNL     1       4.239   5.989  16.853  0.00  0.00    +0.000 C 
BRANCH  19  20
ATOM     20  C   UNL     1       5.646   5.671  17.246  0.00  0.00    +0.000 A 
ATOM     21  C   UNL     1       6.383   4.506  17.243  0.00  0.00    +0.000 A 
ATOM     22  C   UNL     1       7.629   4.820  17.838  0.00  0.00    +0.000 A 
ATOM     23  C   UNL     1       7.570   6.153  18.172  0.00  0.00    +0.000 A 
ATOM     24  O   UNL     1       6.369   6.680  17.819  0.00  0.00    +0.000 OA
ENDBRANCH  19  20
ENDBRANCH   8  19
TORSDOF 3
ENDMDL
MODEL 2
REMARK VINA RESULT:      -7.3      1.349      1.521
REMARK  Name = 
REMARK  6 active torsions:
REMARK  status: ('A' for Active; 'I' for Inactive)
REMARK    1  A    between atoms: C_1  and  C_2
REMARK    2  A    between atoms: N_8  and  C_9
REMARK    3  A    between atoms: C_9  and  C_10
REMARK    4  A    between atoms: N_17  and  C_18
REMARK    5  A    between atoms: C_18  and  C_19
REMARK    6  A    between atoms: C_18  and  C_20
REMARK                            x       y       z     vdW  Elec       q    Type
REMARK                         _______ _______ _______ _____ _____    ______ ____
ROOT
ATOM      1  C   UNL     1       0.330   9.238  21.256  0.00  0.00    +0.000 C 
ATOM      2  C   UNL     1       1.096   9.002  19.979  0.00  0.00    +0.000 A 
ATOM      3  C   UNL     1       1.218  10.069  19.069  0.00  0.00    +0.000 A 
ATOM      4  C   UNL     1       1.976   9.923  17.921  0.00  0.00    +0.000 A 
ATOM      5  C   UNL     1       2.617   8.717  17.688  0.00  0.00    +0.000 A 
ATOM      6  C   UNL     1       2.470   7.613  18.573  0.00  0.00    +0.000 A 
ATOM      7  C   UNL     1       3.045   6.344  18.373  0.00  0.00    +0.000 A 
ATOM      8  N   UNL     1       3.962   6.175  17.318  0.00  0.00    +0.000 N 
ATOM      9  N   UNL     1       2.853   5.325  19.228  0.00  0.00    +0.000 NA
ATOM     10  C   UNL     1       2.110   5.556  20.315  0.00  0.00    +0.000 A 
ATOM     11  N   UNL     1       1.936   4.573  21.274  0.00  0.00    +0.000 N 
ATOM     12  N   UNL     1       1.528   6.729  20.589  0.00  0.00    +0.000 NA
ATOM     13  C   UNL     1       1.694   7.752  19.732  0.00  0.00    +0.000 A 
ATOM     14  H   UNL     1       3.712   6.734  16.513  0.00  0.00    +0.000 HD
ATOM     15  H   UNL     1       1.197   4.874  21.898  0.00  0.00    +0.000 HD
ENDROOT
BRANCH  11  16
ATOM     16  C   UNL     1       1.921   3.177  20.865  0.00  0.00    +0.000 C 
ATOM     17  C   UNL     1       1.618   2.318  22.095  0.00  0.00    +0.000 C 
ATOM     18  C   UNL     1       0.853   2.944  19.796  0.00  0.00    +0.000 C 
ENDBRANCH  11  16
BRANCH   8  19
ATOM     19  C   UNL     1       4.202   4.812  16.864  0.00  0.00    +0.000 C 
BRANCH  19  20
ATOM     20  C   UNL     1       5.303   4.793  15.853  0.00  0.00    +0.000 A 
ATOM     21  C   UNL     1       5.383   4.330  14.557  0.00  0.00    +0.000 A 
ATOM     22  C   UNL     1       6.731   4.494  14.156  0.00  0.00    +0.000 A 
ATOM     23  C   UNL     1       7.388   5.039  15.234  0.00  0.00    +0.000 A 
ATOM     24  O   UNL     1       6.531   5.223  16.272  0.00  0.00    +0.000 OA
ENDBRANCH  19  20
ENDBRANCH   8  19
TORSDOF 3
ENDMDL
MODEL 3
REMARK VINA RESULT:      -7.3      1.995      6.296
REMARK  Name = 
REMARK  6 active torsions:
REMARK  status: ('A' for Active; 'I' for Inactive)
REMARK    1  A    between atoms: C_1  and  C_2
REMARK    2  A    between atoms: N_8  and  C_9
REMARK    3  A    between atoms: C_9  and  C_10
REMARK    4  A    between atoms: N_17  and  C_18
REMARK    5  A    between atoms: C_18  and  C_19
REMARK    6  A    between atoms: C_18  and  C_20
REMARK                            x       y       z     vdW  Elec       q    Type
REMARK                         _______ _______ _______ _____ _____    ______ ____
ROOT
ATOM      1  C   UNL     1       4.447   1.760  20.646  0.00  0.00    +0.000 C 
ATOM      2  C   UNL     1       3.359   2.786  20.458  0.00  0.00    +0.000 A 
ATOM      3  C   UNL     1       2.078   2.498  20.967  0.00  0.00    +0.000 A 
ATOM      4  C   UNL     1       1.068   3.439  20.887  0.00  0.00    +0.000 A 
ATOM      5  C   UNL     1       1.340   4.669  20.310  0.00  0.00    +0.000 A 
ATOM      6  C   UNL     1       2.615   4.963  19.751  0.00  0.00    +0.000 A 
ATOM      7  C   UNL     1       2.946   6.167  19.101  0.00  0.00    +0.000 A 
ATOM      8  N   UNL     1       2.023   7.229  19.132  0.00  0.00    +0.000 N 
ATOM      9  N   UNL     1       4.159   6.384  18.566  0.00  0.00    +0.000 NA
ATOM     10  C   UNL     1       5.078   5.421  18.693  0.00  0.00    +0.000 A 
ATOM     11  N   UNL     1       6.369   5.611  18.233  0.00  0.00    +0.000 N 
ATOM     12  N   UNL     1       4.855   4.248  19.297  0.00  0.00    +0.000 NA
ATOM     13  C   UNL     1       3.638   4.008  19.819  0.00  0.00    +0.000 A 
ATOM     14  H   UNL     1       1.068   6.896  19.094  0.00  0.00    +0.000 HD
ATOM     15  H   UNL     1       6.839   4.713  18.244  0.00  0.00    +0.000 HD
ENDROOT
BRANCH  11  16
ATOM     16  C   UNL     1       6.591   6.454  17.068  0.00  0.00    +0.000 C 
ATOM     17  C   UNL     1       7.687   7.466  17.409  0.00  0.00    +0.000 C 
ATOM     18  C   UNL     1       7.024   5.607  15.870  0.00  0.00    +0.000 C 
ENDBRANCH  11  16
BRANCH   8  19
ATOM     19  C   UNL     1       2.179   8.269  18.124  0.00  0.00    +0.000 C 
BRANCH  19  20
ATOM     20  C   UNL     1       1.570   9.547  18.606  0.00  0.00    +0.000 A 
ATOM     21  C   UNL     1       0.462   9.829  19.376  0.00  0.00    +0.000 A 
ATOM     22  C   UNL     1       0.336  11.239  19.395  0.00  0.00    +0.000 A 
ATOM     23  C   UNL     1       1.370  11.727  18.630  0.00  0.00    +0.000 A 
ATOM     24  O   UNL     1       2.125  10.707  18.143  0.00  0.00    +0.000 OA
ENDBRANCH  19  20
ENDBRANCH   8  19
TORSDOF 3
ENDMDL
MODEL 4
REMARK VINA RESULT:      -7.3      2.240      6.725
REMARK  Name = 
REMARK  6 active torsions:
REMARK  status: ('A' for Active; 'I' for Inactive)
REMARK    1  A    between atoms: C_1  and  C_2
REMARK    2  A    between atoms: N_8  and  C_9
REMARK    3  A    between atoms: C_9  and  C_10
REMARK    4  A    between atoms: N_17  and  C_18
REMARK    5  A    between atoms: C_18  and  C_19
REMARK    6  A    between atoms: C_18  and  C_20
REMARK                            x       y       z     vdW  Elec       q    Type
REMARK                         _______ _______ _______ _____ _____    ______ ____
ROOT
ATOM      1  C   UNL     1       3.723   1.200  18.472  0.00  0.00    +0.000 C 
ATOM      2  C   UNL     1       2.767   2.206  19.060  0.00  0.00    +0.000 A 
ATOM      3  C   UNL     1       1.560   1.735  19.609  0.00  0.00    +0.000 A 
ATOM      4  C   UNL     1       0.687   2.611  20.229  0.00  0.00    +0.000 A 
ATOM      5  C   UNL     1       1.026   3.953  20.309  0.00  0.00    +0.000 A 
ATOM      6  C   UNL     1       2.221   4.455  19.722  0.00  0.00    +0.000 A 
ATOM      7  C   UNL     1       2.602   5.810  19.717  0.00  0.00    +0.000 A 
ATOM      8  N   UNL     1       1.849   6.728  20.472  0.00  0.00    +0.000 N 
ATOM      9  N   UNL     1       3.730   6.236  19.124  0.00  0.00    +0.000 NA
ATOM     10  C   UNL     1       4.518   5.319  18.552  0.00  0.00    +0.000 A 
ATOM     11  N   UNL     1       5.731   5.681  17.991  0.00  0.00    +0.000 N 
ATOM     12  N   UNL     1       4.239   4.011  18.512  0.00  0.00    +0.000 NA
ATOM     13  C   UNL     1       3.102   3.573  19.083  0.00  0.00    +0.000 A 
ATOM     14  H   UNL     1       0.865   6.494  20.472  0.00  0.00    +0.000 HD
ATOM     15  H   UNL     1       6.070   4.895  17.450  0.00  0.00    +0.000 HD
ENDROOT
BRANCH  11  16
ATOM     16  C   UNL     1       5.872   7.000  17.395  0.00  0.00    +0.000 C 
ATOM     17  C   UNL     1       7.361   7.352  17.353  0.00  0.00    +0.000 C 
ATOM     18  C   UNL     1       5.298   7.011  15.977  0.00  0.00    +0.000 C 
ENDBRANCH  11  16
BRANCH   8  19
ATOM     19  C   UNL     1       1.978   8.136  20.121  0.00  0.00    +0.000 C 
BRANCH  19  20
ATOM     20  C   UNL     1       0.998   8.952  20.899  0.00  0.00    +0.000 A 
ATOM     21  C   UNL     1       0.087   9.923  20.540  0.00  0.00    +0.000 A 
ATOM     22  C   UNL     1      -0.477  10.408  21.744  0.00  0.00    +0.000 A 
ATOM     23  C   UNL     1       0.130   9.708  22.761  0.00  0.00    +0.000 A 
ATOM     24  O   UNL     1       1.029   8.823  22.259  0.00  0.00    +0.000 OA
ENDBRANCH  19  20
ENDBRANCH   8  19
TORSDOF 3
ENDMDL
MODEL 5
REMARK VINA RESULT:      -7.2      1.602      1.952
REMARK  Name = 
REMARK  6 active torsions:
REMARK  status: ('A' for Active; 'I' for Inactive)
REMARK    1  A    between atoms: C_1  and  C_2
REMARK    2  A    between atoms: N_8  and  C_9
REMARK    3  A    between atoms: C_9  and  C_10
REMARK    4  A    between atoms: N_17  and  C_18
REMARK    5  A    between atoms: C_18  and  C_19
REMARK    6  A    between atoms: C_18  and  C_20
REMARK                            x       y       z     vdW  Elec       q    Type
REMARK                         _______ _______ _______ _____ _____    ______ ____
ROOT
ATOM      1  C   UNL     1       0.479   8.891  21.472  0.00  0.00    +0.000 C 
ATOM      2  C   UNL     1       1.174   8.672  20.152  0.00  0.00    +0.000 A 
ATOM      3  C   UNL     1       1.199   9.734  19.229  0.00  0.00    +0.000 A 
ATOM      4  C   UNL     1       1.890   9.606  18.038  0.00  0.00    +0.000 A 
ATOM      5  C   UNL     1       2.564   8.424  17.775  0.00  0.00    +0.000 A 
ATOM      6  C   UNL     1       2.514   7.323  18.676  0.00  0.00    +0.000 A 
ATOM      7  C   UNL     1       3.125   6.076  18.451  0.00  0.00    +0.000 A 
ATOM      8  N   UNL     1       3.982   5.932  17.343  0.00  0.00    +0.000 N 
ATOM      9  N   UNL     1       3.025   5.059  19.323  0.00  0.00    +0.000 NA
ATOM     10  C   UNL     1       2.341   5.272  20.452  0.00  0.00    +0.000 A 
ATOM     11  N   UNL     1       2.264   4.292  21.427  0.00  0.00    +0.000 N 
ATOM     12  N   UNL     1       1.731   6.424  20.752  0.00  0.00    +0.000 NA
ATOM     13  C   UNL     1       1.805   7.444  19.879  0.00  0.00    +0.000 A 
ATOM     14  H   UNL     1       3.662   6.473  16.550  0.00  0.00    +0.000 HD
ATOM     15  H   UNL     1       1.554   4.571  22.093  0.00  0.00    +0.000 HD
ENDROOT
BRANCH  11  16
ATOM     16  C   UNL     1       2.280   2.892  21.031  0.00  0.00    +0.000 C 
ATOM     17  C   UNL     1       1.166   2.671  20.005  0.00  0.00    +0.000 C 
ATOM     18  C   UNL     1       3.630   2.526  20.414  0.00  0.00    +0.000 C 
ENDBRANCH  11  16
BRANCH   8  19
ATOM     19  C   UNL     1       4.248   4.575  16.885  0.00  0.00    +0.000 C 
BRANCH  19  20
ATOM     20  C   UNL     1       5.408   4.567  15.944  0.00  0.00    +0.000 A 
ATOM     21  C   UNL     1       6.691   5.068  16.027  0.00  0.00    +0.000 A 
ATOM     22  C   UNL     1       7.290   4.845  14.764  0.00  0.00    +0.000 A 
ATOM     23  C   UNL     1       6.334   4.230  13.989  0.00  0.00    +0.000 A 
ATOM     24  O   UNL     1       5.186   4.058  14.695  0.00  0.00    +0.000 OA
ENDBRANCH  19  20
ENDBRANCH   8  19
TORSDOF 3
ENDMDL
MODEL 6
REMARK VINA RESULT:      -6.9      2.225      6.533
REMARK  Name = 
REMARK  6 active torsions:
REMARK  status: ('A' for Active; 'I' for Inactive)
REMARK    1  A    between atoms: C_1  and  C_2
REMARK    2  A    between atoms: N_8  and  C_9
REMARK    3  A    between atoms: C_9  and  C_10
REMARK    4  A    between atoms: N_17  and  C_18
REMARK    5  A    between atoms: C_18  and  C_19
REMARK    6  A    between atoms: C_18  and  C_20
REMARK                            x       y       z     vdW  Elec       q    Type
REMARK                         _______ _______ _______ _____ _____    ______ ____
ROOT
ATOM      1  C   UNL     1       3.838   1.014  18.912  0.00  0.00    +0.000 C 
ATOM      2  C   UNL     1       2.897   2.174  19.115  0.00  0.00    +0.000 A 
ATOM      3  C   UNL     1       1.601   1.905  19.594  0.00  0.00    +0.000 A 
ATOM      4  C   UNL     1       0.730   2.942  19.869  0.00  0.00    +0.000 A 
ATOM      5  C   UNL     1       1.155   4.247  19.674  0.00  0.00    +0.000 A 
ATOM      6  C   UNL     1       2.445   4.538  19.148  0.00  0.00    +0.000 A 
ATOM      7  C   UNL     1       2.924   5.832  18.873  0.00  0.00    +0.000 A 
ATOM      8  N   UNL     1       2.157   6.939  19.283  0.00  0.00    +0.000 N 
ATOM      9  N   UNL     1       4.142   6.052  18.351  0.00  0.00    +0.000 NA
ATOM     10  C   UNL     1       4.922   4.990  18.121  0.00  0.00    +0.000 A 
ATOM     11  N   UNL     1       6.216   5.150  17.656  0.00  0.00    +0.000 N 
ATOM     12  N   UNL     1       4.553   3.725  18.355  0.00  0.00    +0.000 NA
ATOM     13  C   UNL     1       3.328   3.489  18.857  0.00  0.00    +0.000 A 
ATOM     14  H   UNL     1       1.165   6.756  19.208  0.00  0.00    +0.000 HD
ATOM     15  H   UNL     1       6.557   4.242  17.365  0.00  0.00    +0.000 HD
ENDROOT
BRANCH  11  16
ATOM     16  C   UNL     1       6.524   6.277  16.789  0.00  0.00    +0.000 C 
ATOM     17  C   UNL     1       7.568   7.150  17.488  0.00  0.00    +0.000 C 
ATOM     18  C   UNL     1       7.074   5.785  15.449  0.00  0.00    +0.000 C 
ENDBRANCH  11  16
BRANCH   8  19
ATOM     19  C   UNL     1       2.431   8.212  18.629  0.00  0.00    +0.000 C 
BRANCH  19  20
ATOM     20  C   UNL     1       1.319   9.175  18.891  0.00  0.00    +0.000 A 
ATOM     21  C   UNL     1       0.597  10.023  18.078  0.00  0.00    +0.000 A 
ATOM     22  C   UNL     1      -0.252  10.769  18.931  0.00  0.00    +0.000 A 
ATOM     23  C   UNL     1       0.010  10.334  20.209  0.00  0.00    +0.000 A 
ATOM     24  O   UNL     1       0.965   9.368  20.197  0.00  0.00    +0.000 OA
ENDBRANCH  19  20
ENDBRANCH   8  19
TORSDOF 3
ENDMDL
MODEL 7
REMARK VINA RESULT:      -6.8      4.310      6.763
REMARK  Name = 
REMARK  6 active torsions:
REMARK  status: ('A' for Active; 'I' for Inactive)
REMARK    1  A    between atoms: C_1  and  C_2
REMARK    2  A    between atoms: N_8  and  C_9
REMARK    3  A    between atoms: C_9  and  C_10
REMARK    4  A    between atoms: N_17  and  C_18
REMARK    5  A    between atoms: C_18  and  C_19
REMARK    6  A    between atoms: C_18  and  C_20
REMARK                            x       y       z     vdW  Elec       q    Type
REMARK                         _______ _______ _______ _____ _____    ______ ____
ROOT
ATOM      1  C   UNL     1      -5.503  12.299  17.795  0.00  0.00    +0.000 C 
ATOM      2  C   UNL     1      -4.298  11.469  17.431  0.00  0.00    +0.000 A 
ATOM      3  C   UNL     1      -4.356  10.693  16.258  0.00  0.00    +0.000 A 
ATOM      4  C   UNL     1      -3.249   9.977  15.841  0.00  0.00    +0.000 A 
ATOM      5  C   UNL     1      -2.085  10.043  16.590  0.00  0.00    +0.000 A 
ATOM      6  C   UNL     1      -2.021  10.786  17.801  0.00  0.00    +0.000 A 
ATOM      7  C   UNL     1      -0.893  10.854  18.641  0.00  0.00    +0.000 A 
ATOM      8  N   UNL     1       0.317  10.289  18.195  0.00  0.00    +0.000 N 
ATOM      9  N   UNL     1      -0.893  11.550  19.790  0.00  0.00    +0.000 NA
ATOM     10  C   UNL     1      -2.006  12.218  20.113  0.00  0.00    +0.000 A 
ATOM     11  N   UNL     1      -2.048  13.015  21.244  0.00  0.00    +0.000 N 
ATOM     12  N   UNL     1      -3.123  12.214  19.376  0.00  0.00    +0.000 NA
ATOM     13  C   UNL     1      -3.144  11.504  18.234  0.00  0.00    +0.000 A 
ATOM     14  H   UNL     1       0.161   9.452  17.649  0.00  0.00    +0.000 HD
ATOM     15  H   UNL     1      -3.015  13.265  21.412  0.00  0.00    +0.000 HD
ENDROOT
BRANCH  11  16
ATOM     16  C   UNL     1      -1.253  12.644  22.404  0.00  0.00    +0.000 C 
ATOM     17  C   UNL     1      -1.190  13.847  23.348  0.00  0.00    +0.000 C 
ATOM     18  C   UNL     1      -1.884  11.454  23.126  0.00  0.00    +0.000 C 
ENDBRANCH  11  16
BRANCH   8  19
ATOM     19  C   UNL     1       1.317   9.985  19.210  0.00  0.00    +0.000 C 
BRANCH  19  20
ATOM     20  C   UNL     1       1.922   8.643  18.950  0.00  0.00    +0.000 A 
ATOM     21  C   UNL     1       2.369   8.018  17.806  0.00  0.00    +0.000 A 
ATOM     22  C   UNL     1       2.733   6.703  18.184  0.00  0.00    +0.000 A 
ATOM     23  C   UNL     1       2.479   6.608  19.533  0.00  0.00    +0.000 A 
ATOM     24  O   UNL     1       1.984   7.780  20.008  0.00  0.00    +0.000 OA
ENDBRANCH  19  20
ENDBRANCH   8  19
TORSDOF 3
ENDMDL
MODEL 8
REMARK VINA RESULT:      -6.7      1.822      4.471
REMARK  Name = 
REMARK  6 active torsions:
REMARK  status: ('A' for Active; 'I' for Inactive)
REMARK    1  A    between atoms: C_1  and  C_2
REMARK    2  A    between atoms: N_8  and  C_9
REMARK    3  A    between atoms: C_9  and  C_10
REMARK    4  A    between atoms: N_17  and  C_18
REMARK    5  A    between atoms: C_18  and  C_19
REMARK    6  A    between atoms: C_18  and  C_20
REMARK                            x       y       z     vdW  Elec       q    Type
REMARK                         _______ _______ _______ _____ _____    ______ ____
ROOT
ATOM      1  C   UNL     1       1.336  11.018  18.240  0.00  0.00    +0.000 C 
ATOM      2  C   UNL     1       1.183   9.972  19.315  0.00  0.00    +0.000 A 
ATOM      3  C   UNL     1       0.361  10.268  20.419  0.00  0.00    +0.000 A 
ATOM      4  C   UNL     1       0.129   9.313  21.391  0.00  0.00    +0.000 A 
ATOM      5  C   UNL     1       0.709   8.062  21.256  0.00  0.00    +0.000 A 
ATOM      6  C   UNL     1       1.578   7.758  20.171  0.00  0.00    +0.000 A 
ATOM      7  C   UNL     1       2.245   6.531  19.998  0.00  0.00    +0.000 A 
ATOM      8  N   UNL     1       1.925   5.461  20.855  0.00  0.00    +0.000 N 
ATOM      9  N   UNL     1       3.078   6.304  18.969  0.00  0.00    +0.000 NA
ATOM     10  C   UNL     1       3.240   7.283  18.072  0.00  0.00    +0.000 A 
ATOM     11  N   UNL     1       4.023   7.088  16.947  0.00  0.00    +0.000 N 
ATOM     12  N   UNL     1       2.646   8.478  18.152  0.00  0.00    +0.000 NA
ATOM     13  C   UNL     1       1.826   8.727  19.189  0.00  0.00    +0.000 A 
ATOM     14  H   UNL     1       1.719   5.780  21.792  0.00  0.00    +0.000 HD
ATOM     15  H   UNL     1       4.174   7.990  16.513  0.00  0.00    +0.000 HD
ENDROOT
BRANCH  11  16
ATOM     16  C   UNL     1       5.171   6.197  17.027  0.00  0.00    +0.000 C 
ATOM     17  C   UNL     1       5.262   5.413  15.716  0.00  0.00    +0.000 C 
ATOM     18  C   UNL     1       6.456   6.998  17.241  0.00  0.00    +0.000 C 
ENDBRANCH  11  16
BRANCH   8  19
ATOM     19  C   UNL     1       2.896   4.378  20.951  0.00  0.00    +0.000 C 
BRANCH  19  20
ATOM     20  C   UNL     1       2.594   3.325  19.935  0.00  0.00    +0.000 A 
ATOM     21  C   UNL     1       3.391   2.518  19.150  0.00  0.00    +0.000 A 
ATOM     22  C   UNL     1       2.517   1.798  18.300  0.00  0.00    +0.000 A 
ATOM     23  C   UNL     1       1.245   2.216  18.615  0.00  0.00    +0.000 A 
ATOM     24  O   UNL     1       1.280   3.145  19.605  0.00  0.00    +0.000 OA
ENDBRANCH  19  20
ENDBRANCH   8  19
TORSDOF 3
ENDMDL
MODEL 9
REMARK VINA RESULT:      -6.7      0.701      1.029
REMARK  Name = 
REMARK  6 active torsions:
REMARK  status: ('A' for Active; 'I' for Inactive)
REMARK    1  A    between atoms: C_1  and  C_2
REMARK    2  A    between atoms: N_8  and  C_9
REMARK    3  A    between atoms: C_9  and  C_10
REMARK    4  A    between atoms: N_17  and  C_18
REMARK    5  A    between atoms: C_18  and  C_19
REMARK    6  A    between atoms: C_18  and  C_20
REMARK                            x       y       z     vdW  Elec       q    Type
REMARK                         _______ _______ _______ _____ _____    ______ ____
ROOT
ATOM      1  C   UNL     1      -0.200   9.192  21.727  0.00  0.00    +0.000 C 
ATOM      2  C   UNL     1       0.562   9.251  20.427  0.00  0.00    +0.000 A 
ATOM      3  C   UNL     1       0.469  10.424  19.654  0.00  0.00    +0.000 A 
ATOM      4  C   UNL     1       1.210  10.554  18.494  0.00  0.00    +0.000 A 
ATOM      5  C   UNL     1       2.049   9.519  18.112  0.00  0.00    +0.000 A 
ATOM      6  C   UNL     1       2.122   8.308  18.856  0.00  0.00    +0.000 A 
ATOM      7  C   UNL     1       2.907   7.195  18.499  0.00  0.00    +0.000 A 
ATOM      8  N   UNL     1       3.810   7.321  17.427  0.00  0.00    +0.000 N 
ATOM      9  N   UNL     1       2.920   6.064  19.223  0.00  0.00    +0.000 NA
ATOM     10  C   UNL     1       2.176   6.026  20.333  0.00  0.00    +0.000 A 
ATOM     11  N   UNL     1       2.204   4.920  21.165  0.00  0.00    +0.000 N 
ATOM     12  N   UNL     1       1.404   7.035  20.752  0.00  0.00    +0.000 NA
ATOM     13  C   UNL     1       1.364   8.166  20.026  0.00  0.00    +0.000 A 
ATOM     14  H   UNL     1       3.445   7.918  16.697  0.00  0.00    +0.000 HD
ATOM     15  H   UNL     1       1.440   5.008  21.825  0.00  0.00    +0.000 HD
ENDROOT
BRANCH  11  16
ATOM     16  C   UNL     1       2.425   3.603  20.588  0.00  0.00    +0.000 C 
ATOM     17  C   UNL     1       3.920   3.452  20.295  0.00  0.00    +0.000 C 
ATOM     18  C   UNL     1       1.976   2.511  21.559  0.00  0.00    +0.000 C 
ENDBRANCH  11  16
BRANCH   8  19
ATOM     19  C   UNL     1       4.276   6.087  16.808  0.00  0.00    +0.000 C 
BRANCH  19  20
ATOM     20  C   UNL     1       5.629   5.727  17.331  0.00  0.00    +0.000 A 
ATOM     21  C   UNL     1       6.549   6.403  18.105  0.00  0.00    +0.000 A 
ATOM     22  C   UNL     1       7.697   5.579  18.174  0.00  0.00    +0.000 A 
ATOM     23  C   UNL     1       7.408   4.456  17.433  0.00  0.00    +0.000 A 
ATOM     24  O   UNL     1       6.155   4.537  16.914  0.00  0.00    +0.000 OA
ENDBRANCH  19  20
ENDBRANCH   8  19
TORSDOF 3
ENDMDL
