MODEL 1
REMARK VINA RESULT:      -8.2      0.000      0.000
REMARK  Name = 
REMARK  8 active torsions:
REMARK  status: ('A' for Active; 'I' for Inactive)
REMARK    1  A    between atoms: C_1  and  C_2
REMARK    2  A    between atoms: C_5  and  N_6
REMARK    3  A    between atoms: C_7  and  C_9
REMARK    4  A    between atoms: C_9  and  N_10
REMARK    5  A    between atoms: C_11  and  C_13
REMARK    6  A    between atoms: C_19  and  S_20
REMARK    7  A    between atoms: S_20  and  N_23
REMARK    8  A    between atoms: N_23  and  C_24
REMARK                            x       y       z     vdW  Elec       q    Type
REMARK                         _______ _______ _______ _____ _____    ______ ____
ROOT
ATOM      1  C   UNL     1       2.816   2.321  20.782  0.00  0.00    +0.000 C 
ATOM      2  C   UNL     1       2.554   3.731  20.333  0.00  0.00    +0.000 A 
ATOM      3  C   UNL     1       2.404   4.702  21.332  0.00  0.00    +0.000 A 
ATOM      4  C   UNL     1       2.187   6.046  21.018  0.00  0.00    +0.000 A 
ATOM      5  C   UNL     1       2.101   6.462  19.693  0.00  0.00    +0.000 A 
ATOM      6  C   UNL     1       2.218   5.503  18.681  0.00  0.00    +0.000 A 
ATOM      7  C   UNL     1       2.457   4.149  18.990  0.00  0.00    +0.000 A 
ENDROOT
BRANCH   5   8
ATOM      8  N   UNL     1       1.906   7.807  19.318  0.00  0.00    +0.000 N 
ATOM      9  C   UNL     1       2.377   8.413  18.163  0.00  0.00    +0.000 C 
ATOM     10  O   UNL     1       3.055   7.881  17.284  0.00  0.00    +0.000 OA
ATOM     11  H   UNL     1       1.337   8.378  19.939  0.00  0.00    +0.000 HD
BRANCH   9  12
ATOM     12  C   UNL     1       2.064   9.903  18.083  0.00  0.00    +0.000 C 
BRANCH  12  13
ATOM     13  N   UNL     1       0.705  10.067  17.620  0.00  0.00    +0.000 N 
ATOM     14  C   UNL     1      -0.343  10.260  18.492  0.00  0.00    +0.000 C 
ATOM     15  O   UNL     1      -0.164  10.225  19.709  0.00  0.00    +0.000 OA
ATOM     16  H   UNL     1       0.558  10.308  16.646  0.00  0.00    +0.000 HD
BRANCH  14  17
ATOM     17  C   UNL     1      -1.639  10.511  17.874  0.00  0.00    +0.000 A 
ATOM     18  C   UNL     1      -2.127   9.953  16.706  0.00  0.00    +0.000 A 
ATOM     19  C   UNL     1      -3.431  10.426  16.374  0.00  0.00    +0.000 A 
ATOM     20  C   UNL     1      -3.902  11.329  17.300  0.00  0.00    +0.000 A 
ATOM     21  S   UNL     1      -2.780  11.598  18.558  0.00  0.00    +0.000 S 
ENDBRANCH  14  17
ENDBRANCH  12  13
ENDBRANCH   9  12
ENDBRANCH   5   8
BRANCH   7  22
ATOM     22  S   UNL     1       2.756   3.051  17.601  0.00  0.00    +0.000 S 
ATOM     23  O   UNL     1       2.306   1.728  17.981  0.00  0.00    +0.000 OA
ATOM     24  O   UNL     1       2.254   3.676  16.397  0.00  0.00    +0.000 OA
BRANCH  22  25
ATOM     25  N   UNL     1       4.428   3.031  17.449  0.00  0.00    +0.000 N 
ATOM     26  H   UNL     1       4.779   2.263  16.879  0.00  0.00    +0.000 HD
BRANCH  25  27
ATOM     27  C   UNL     1       5.180   4.228  17.516  0.00  0.00    +0.000 A 
ATOM     28  C   UNL     1       5.911   4.538  18.662  0.00  0.00    +0.000 A 
ATOM     29  C   UNL     1       6.707   5.690  18.690  0.00  0.00    +0.000 A 
ATOM     30  C   UNL     1       6.741   6.532  17.578  0.00  0.00    +0.000 A 
ATOM     31 CL   UNL     1       7.737   7.935  17.595  0.00  0.00    +0.000 Cl
ATOM     32  C   UNL     1       5.984   6.239  16.446  0.00  0.00    +0.000 A 
ATOM     33  C   UNL     1       5.203   5.081  16.412  0.00  0.00    +0.000 A 
ENDBRANCH  25  27
ENDBRANCH  22  25
ENDBRANCH   7  22
TORSDOF 7
ENDMDL
MODEL 2
REMARK VINA RESULT:      -7.8      2.350      2.717
REMARK  Name = 
REMARK  8 active torsions:
REMARK  status: ('A' for Active; 'I' for Inactive)
REMARK    1  A    between atoms: C_1  and  C_2
REMARK    2  A    between atoms: C_5  and  N_6
REMARK    3  A    between atoms: C_7  and  C_9
REMARK    4  A    between atoms: C_9  and  N_10
REMARK    5  A    between atoms: C_11  and  C_13
REMARK    6  A    between atoms: C_19  and  S_20
REMARK    7  A    between atoms: S_20  and  N_23
REMARK    8  A    between atoms: N_23  and  C_24
REMARK                            x       y       z     vdW  Elec       q    Type
REMARK                         _______ _______ _______ _____ _____    ______ ____
ROOT
ATOM      1  C   UNL     1       3.946   3.014  20.296  0.00  0.00    +0.000 C 
ATOM      2  C   UNL     1       3.380   4.386  20.056  0.00  0.00    +0.000 A 
ATOM      3  C   UNL     1       2.127   4.667  20.616  0.00  0.00    +0.000 A 
ATOM      4  C   UNL     1       1.529   5.922  20.476  0.00  0.00    +0.000 A 
ATOM      5  C   UNL     1       2.160   6.935  19.760  0.00  0.00    +0.000 A 
ATOM      6  C   UNL     1       3.399   6.666  19.169  0.00  0.00    +0.000 A 
ATOM      7  C   UNL     1       4.017   5.408  19.323  0.00  0.00    +0.000 A 
ENDROOT
BRANCH   5   8
ATOM      8  N   UNL     1       1.614   8.225  19.606  0.00  0.00    +0.000 N 
ATOM      9  C   UNL     1       1.756   9.048  18.498  0.00  0.00    +0.000 C 
ATOM     10  O   UNL     1       2.393   8.794  17.477  0.00  0.00    +0.000 OA
ATOM     11  H   UNL     1       1.034   8.572  20.365  0.00  0.00    +0.000 HD
BRANCH   9  12
ATOM     12  C   UNL     1       1.109  10.418  18.667  0.00  0.00    +0.000 C 
BRANCH  12  13
ATOM     13  N   UNL     1      -0.151  10.426  17.960  0.00  0.00    +0.000 N 
ATOM     14  C   UNL     1      -1.281  11.009  18.491  0.00  0.00    +0.000 C 
ATOM     15  O   UNL     1      -1.271  11.481  19.627  0.00  0.00    +0.000 OA
ATOM     16  H   UNL     1      -0.141  10.241  16.964  0.00  0.00    +0.000 HD
BRANCH  14  17
ATOM     17  C   UNL     1      -2.449  11.028  17.619  0.00  0.00    +0.000 A 
ATOM     18  C   UNL     1      -2.493  10.697  16.277  0.00  0.00    +0.000 A 
ATOM     19  C   UNL     1      -3.797  10.839  15.718  0.00  0.00    +0.000 A 
ATOM     20  C   UNL     1      -4.713  11.270  16.651  0.00  0.00    +0.000 A 
ATOM     21  S   UNL     1      -4.001  11.498  18.187  0.00  0.00    +0.000 S 
ENDBRANCH  14  17
ENDBRANCH  12  13
ENDBRANCH   9  12
ENDBRANCH   5   8
BRANCH   7  22
ATOM     22  S   UNL     1       5.678   5.245  18.660  0.00  0.00    +0.000 S 
ATOM     23  O   UNL     1       5.989   6.464  17.945  0.00  0.00    +0.000 OA
ATOM     24  O   UNL     1       6.554   4.767  19.708  0.00  0.00    +0.000 OA
BRANCH  22  25
ATOM     25  N   UNL     1       5.553   3.987  17.554  0.00  0.00    +0.000 N 
ATOM     26  H   UNL     1       4.812   3.322  17.771  0.00  0.00    +0.000 HD
BRANCH  25  27
ATOM     27  C   UNL     1       5.935   4.164  16.203  0.00  0.00    +0.000 A 
ATOM     28  C   UNL     1       7.167   4.735  15.888  0.00  0.00    +0.000 A 
ATOM     29  C   UNL     1       7.564   4.840  14.548  0.00  0.00    +0.000 A 
ATOM     30  C   UNL     1       6.710   4.397  13.539  0.00  0.00    +0.000 A 
ATOM     31 CL   UNL     1       7.202   4.499  11.893  0.00  0.00    +0.000 Cl
ATOM     32  C   UNL     1       5.465   3.857  13.853  0.00  0.00    +0.000 A 
ATOM     33  C   UNL     1       5.076   3.736  15.190  0.00  0.00    +0.000 A 
ENDBRANCH  25  27
ENDBRANCH  22  25
ENDBRANCH   7  22
TORSDOF 7
ENDMDL
MODEL 3
REMARK VINA RESULT:      -7.7      2.231      2.778
REMARK  Name = 
REMARK  8 active torsions:
REMARK  status: ('A' for Active; 'I' for Inactive)
REMARK    1  A    between atoms: C_1  and  C_2
REMARK    2  A    between atoms: C_5  and  N_6
REMARK    3  A    between atoms: C_7  and  C_9
REMARK    4  A    between atoms: C_9  and  N_10
REMARK    5  A    between atoms: C_11  and  C_13
REMARK    6  A    between atoms: C_19  and  S_20
REMARK    7  A    between atoms: S_20  and  N_23
REMARK    8  A    between atoms: N_23  and  C_24
REMARK                            x       y       z     vdW  Elec       q    Type
REMARK                         _______ _______ _______ _____ _____    ______ ____
ROOT
ATOM      1  C   UNL     1       2.248   2.871  21.056  0.00  0.00    +0.000 C 
ATOM      2  C   UNL     1       2.225   4.171  20.303  0.00  0.00    +0.000 A 
ATOM      3  C   UNL     1       2.088   5.344  21.058  0.00  0.00    +0.000 A 
ATOM      4  C   UNL     1       2.085   6.604  20.455  0.00  0.00    +0.000 A 
ATOM      5  C   UNL     1       2.208   6.733  19.075  0.00  0.00    +0.000 A 
ATOM      6  C   UNL     1       2.316   5.573  18.301  0.00  0.00    +0.000 A 
ATOM      7  C   UNL     1       2.340   4.299  18.904  0.00  0.00    +0.000 A 
ENDROOT
BRANCH   5   8
ATOM      8  N   UNL     1       2.233   7.979  18.416  0.00  0.00    +0.000 N 
ATOM      9  C   UNL     1       1.593   9.138  18.830  0.00  0.00    +0.000 C 
ATOM     10  O   UNL     1       0.885   9.264  19.829  0.00  0.00    +0.000 OA
ATOM     11  H   UNL     1       2.802   8.042  17.576  0.00  0.00    +0.000 HD
BRANCH   9  12
ATOM     12  C   UNL     1       1.750  10.303  17.859  0.00  0.00    +0.000 C 
BRANCH  12  13
ATOM     13  N   UNL     1       1.095  11.463  18.417  0.00  0.00    +0.000 N 
ATOM     14  C   UNL     1       1.720  12.688  18.489  0.00  0.00    +0.000 C 
ATOM     15  O   UNL     1       2.895  12.817  18.145  0.00  0.00    +0.000 OA
ATOM     16  H   UNL     1       0.086  11.444  18.510  0.00  0.00    +0.000 HD
BRANCH  14  17
ATOM     17  C   UNL     1       0.900  13.787  18.983  0.00  0.00    +0.000 A 
ATOM     18  C   UNL     1       1.264  15.118  19.088  0.00  0.00    +0.000 A 
ATOM     19  C   UNL     1       0.225  15.931  19.626  0.00  0.00    +0.000 A 
ATOM     20  C   UNL     1      -0.905  15.199  19.915  0.00  0.00    +0.000 A 
ATOM     21  S   UNL     1      -0.709  13.546  19.535  0.00  0.00    +0.000 S 
ENDBRANCH  14  17
ENDBRANCH  12  13
ENDBRANCH   9  12
ENDBRANCH   5   8
BRANCH   7  22
ATOM     22  S   UNL     1       2.653   2.904  17.819  0.00  0.00    +0.000 S 
ATOM     23  O   UNL     1       2.058   1.731  18.425  0.00  0.00    +0.000 OA
ATOM     24  O   UNL     1       2.310   3.281  16.464  0.00  0.00    +0.000 OA
BRANCH  22  25
ATOM     25  N   UNL     1       4.324   2.736  17.841  0.00  0.00    +0.000 N 
ATOM     26  H   UNL     1       4.652   1.848  17.465  0.00  0.00    +0.000 HD
BRANCH  25  27
ATOM     27  C   UNL     1       5.171   3.866  17.755  0.00  0.00    +0.000 A 
ATOM     28  C   UNL     1       5.435   4.456  16.520  0.00  0.00    +0.000 A 
ATOM     29  C   UNL     1       6.217   5.616  16.455  0.00  0.00    +0.000 A 
ATOM     30  C   UNL     1       6.749   6.156  17.626  0.00  0.00    +0.000 A 
ATOM     31 CL   UNL     1       7.689   7.596  17.557  0.00  0.00    +0.000 Cl
ATOM     32  C   UNL     1       6.512   5.546  18.856  0.00  0.00    +0.000 A 
ATOM     33  C   UNL     1       5.717   4.399  18.922  0.00  0.00    +0.000 A 
ENDBRANCH  25  27
ENDBRANCH  22  25
ENDBRANCH   7  22
TORSDOF 7
ENDMDL
MODEL 4
REMARK VINA RESULT:      -7.7      1.993      2.341
REMARK  Name = 
REMARK  8 active torsions:
REMARK  status: ('A' for Active; 'I' for Inactive)
REMARK    1  A    between atoms: C_1  and  C_2
REMARK    2  A    between atoms: C_5  and  N_6
REMARK    3  A    between atoms: C_7  and  C_9
REMARK    4  A    between atoms: C_9  and  N_10
REMARK    5  A    between atoms: C_11  and  C_13
REMARK    6  A    between atoms: C_19  and  S_20
REMARK    7  A    between atoms: S_20  and  N_23
REMARK    8  A    between atoms: N_23  and  C_24
REMARK                            x       y       z     vdW  Elec       q    Type
REMARK                         _______ _______ _______ _____ _____    ______ ____
ROOT
ATOM      1  C   UNL     1       2.944   2.598  20.753  0.00  0.00    +0.000 C 
ATOM      2  C   UNL     1       2.703   4.011  20.298  0.00  0.00    +0.000 A 
ATOM      3  C   UNL     1       1.730   4.746  20.988  0.00  0.00    +0.000 A 
ATOM      4  C   UNL     1       1.453   6.076  20.661  0.00  0.00    +0.000 A 
ATOM      5  C   UNL     1       2.131   6.712  19.626  0.00  0.00    +0.000 A 
ATOM      6  C   UNL     1       3.086   5.985  18.905  0.00  0.00    +0.000 A 
ATOM      7  C   UNL     1       3.385   4.649  19.242  0.00  0.00    +0.000 A 
ENDROOT
BRANCH   5   8
ATOM      8  N   UNL     1       1.907   8.056  19.269  0.00  0.00    +0.000 N 
ATOM      9  C   UNL     1       2.339   8.678  18.106  0.00  0.00    +0.000 C 
ATOM     10  O   UNL     1       3.000   8.163  17.205  0.00  0.00    +0.000 OA
ATOM     11  H   UNL     1       1.349   8.614  19.909  0.00  0.00    +0.000 HD
BRANCH   9  12
ATOM     12  C   UNL     1       2.003  10.164  18.047  0.00  0.00    +0.000 C 
BRANCH  12  13
ATOM     13  N   UNL     1       0.596  10.310  17.757  0.00  0.00    +0.000 N 
ATOM     14  C   UNL     1      -0.349  10.394  18.755  0.00  0.00    +0.000 C 
ATOM     15  O   UNL     1      -0.030  10.270  19.936  0.00  0.00    +0.000 OA
ATOM     16  H   UNL     1       0.329  10.622  16.829  0.00  0.00    +0.000 HD
BRANCH  14  17
ATOM     17  C   UNL     1      -1.715  10.641  18.311  0.00  0.00    +0.000 A 
ATOM     18  C   UNL     1      -2.397   9.982  17.303  0.00  0.00    +0.000 A 
ATOM     19  C   UNL     1      -3.718  10.482  17.114  0.00  0.00    +0.000 A 
ATOM     20  C   UNL     1      -4.010  11.508  17.985  0.00  0.00    +0.000 A 
ATOM     21  S   UNL     1      -2.698  11.857  19.022  0.00  0.00    +0.000 S 
ENDBRANCH  14  17
ENDBRANCH  12  13
ENDBRANCH   9  12
ENDBRANCH   5   8
BRANCH   7  22
ATOM     22  S   UNL     1       4.744   3.884  18.353  0.00  0.00    +0.000 S 
ATOM     23  O   UNL     1       5.760   3.530  19.322  0.00  0.00    +0.000 OA
ATOM     24  O   UNL     1       4.210   2.884  17.455  0.00  0.00    +0.000 OA
BRANCH  22  25
ATOM     25  N   UNL     1       5.335   5.114  17.375  0.00  0.00    +0.000 N 
ATOM     26  H   UNL     1       5.756   5.884  17.892  0.00  0.00    +0.000 HD
BRANCH  25  27
ATOM     27  C   UNL     1       5.794   4.845  16.063  0.00  0.00    +0.000 A 
ATOM     28  C   UNL     1       4.968   4.193  15.148  0.00  0.00    +0.000 A 
ATOM     29  C   UNL     1       5.406   3.995  13.832  0.00  0.00    +0.000 A 
ATOM     30  C   UNL     1       6.678   4.429  13.456  0.00  0.00    +0.000 A 
ATOM     31 CL   UNL     1       7.213   4.213  11.835  0.00  0.00    +0.000 Cl
ATOM     32  C   UNL     1       7.515   5.050  14.380  0.00  0.00    +0.000 A 
ATOM     33  C   UNL     1       7.071   5.263  15.688  0.00  0.00    +0.000 A 
ENDBRANCH  25  27
ENDBRANCH  22  25
ENDBRANCH   7  22
TORSDOF 7
ENDMDL
MODEL 5
REMARK VINA RESULT:      -7.6      2.655      3.239
REMARK  Name = 
REMARK  8 active torsions:
REMARK  status: ('A' for Active; 'I' for Inactive)
REMARK    1  A    between atoms: C_1  and  C_2
REMARK    2  A    between atoms: C_5  and  N_6
REMARK    3  A    between atoms: C_7  and  C_9
REMARK    4  A    between atoms: C_9  and  N_10
REMARK    5  A    between atoms: C_11  and  C_13
REMARK    6  A    between atoms: C_19  and  S_20
REMARK    7  A    between atoms: S_20  and  N_23
REMARK    8  A    between atoms: N_23  and  C_24
REMARK                            x       y       z     vdW  Elec       q    Type
REMARK                         _______ _______ _______ _____ _____    ______ ____
ROOT
ATOM      1  C   UNL     1       3.068   2.729  20.754  0.00  0.00    +0.000 C 
ATOM      2  C   UNL     1       2.788   4.152  20.356  0.00  0.00    +0.000 A 
ATOM      3  C   UNL     1       1.795   4.832  21.072  0.00  0.00    +0.000 A 
ATOM      4  C   UNL     1       1.481   6.166  20.799  0.00  0.00    +0.000 A 
ATOM      5  C   UNL     1       2.144   6.861  19.792  0.00  0.00    +0.000 A 
ATOM      6  C   UNL     1       3.119   6.190  19.045  0.00  0.00    +0.000 A 
ATOM      7  C   UNL     1       3.454   4.851  19.329  0.00  0.00    +0.000 A 
ENDROOT
BRANCH   5   8
ATOM      8  N   UNL     1       1.883   8.212  19.489  0.00  0.00    +0.000 N 
ATOM      9  C   UNL     1       2.054   8.823  18.254  0.00  0.00    +0.000 C 
ATOM     10  O   UNL     1       2.474   8.290  17.228  0.00  0.00    +0.000 OA
ATOM     11  H   UNL     1       1.504   8.786  20.238  0.00  0.00    +0.000 HD
BRANCH   9  12
ATOM     12  C   UNL     1       1.758  10.319  18.267  0.00  0.00    +0.000 C 
BRANCH  12  13
ATOM     13  N   UNL     1       1.024  10.636  19.470  0.00  0.00    +0.000 N 
ATOM     14  C   UNL     1      -0.045  11.504  19.464  0.00  0.00    +0.000 C 
ATOM     15  O   UNL     1      -0.366  12.100  18.437  0.00  0.00    +0.000 OA
ATOM     16  H   UNL     1       1.124  10.017  20.267  0.00  0.00    +0.000 HD
BRANCH  14  17
ATOM     17  C   UNL     1      -0.748  11.647  20.733  0.00  0.00    +0.000 A 
ATOM     18  C   UNL     1      -0.370  11.129  21.959  0.00  0.00    +0.000 A 
ATOM     19  C   UNL     1      -1.293  11.444  22.998  0.00  0.00    +0.000 A 
ATOM     20  C   UNL     1      -2.350  12.197  22.536  0.00  0.00    +0.000 A 
ATOM     21  S   UNL     1      -2.222  12.520  20.864  0.00  0.00    +0.000 S 
ENDBRANCH  14  17
ENDBRANCH  12  13
ENDBRANCH   9  12
ENDBRANCH   5   8
BRANCH   7  22
ATOM     22  S   UNL     1       4.835   4.160  18.413  0.00  0.00    +0.000 S 
ATOM     23  O   UNL     1       5.961   4.064  19.319  0.00  0.00    +0.000 OA
ATOM     24  O   UNL     1       4.378   2.994  17.689  0.00  0.00    +0.000 OA
BRANCH  22  25
ATOM     25  N   UNL     1       5.175   5.322  17.249  0.00  0.00    +0.000 N 
ATOM     26  H   UNL     1       5.439   6.226  17.637  0.00  0.00    +0.000 HD
BRANCH  25  27
ATOM     27  C   UNL     1       5.676   4.954  15.977  0.00  0.00    +0.000 A 
ATOM     28  C   UNL     1       4.824   4.416  15.014  0.00  0.00    +0.000 A 
ATOM     29  C   UNL     1       5.316   4.122  13.735  0.00  0.00    +0.000 A 
ATOM     30  C   UNL     1       6.663   4.346  13.446  0.00  0.00    +0.000 A 
ATOM     31 CL   UNL     1       7.268   4.012  11.871  0.00  0.00    +0.000 Cl
ATOM     32  C   UNL     1       7.520   4.852  14.420  0.00  0.00    +0.000 A 
ATOM     33  C   UNL     1       7.025   5.162  15.690  0.00  0.00    +0.000 A 
ENDBRANCH  25  27
ENDBRANCH  22  25
ENDBRANCH   7  22
TORSDOF 7
ENDMDL
MODEL 6
REMARK VINA RESULT:      -7.4      2.291      2.907
REMARK  Name = 
REMARK  8 active torsions:
REMARK  status: ('A' for Active; 'I' for Inactive)
REMARK    1  A    between atoms: C_1  and  C_2
REMARK    2  A    between atoms: C_5  and  N_6
REMARK    3  A    between atoms: C_7  and  C_9
REMARK    4  A    between atoms: C_9  and  N_10
REMARK    5  A    between atoms: C_11  and  C_13
REMARK    6  A    between atoms: C_19  and  S_20
REMARK    7  A    between atoms: S_20  and  N_23
REMARK    8  A    between atoms: N_23  and  C_24
REMARK                            x       y       z     vdW  Elec       q    Type
REMARK                         _______ _______ _______ _____ _____    ______ ____
ROOT
ATOM      1  C   UNL     1       2.250   2.615  21.446  0.00  0.00    +0.000 C 
ATOM      2  C   UNL     1       2.305   3.874  20.628  0.00  0.00    +0.000 A 
ATOM      3  C   UNL     1       1.562   4.969  21.089  0.00  0.00    +0.000 A 
ATOM      4  C   UNL     1       1.570   6.193  20.416  0.00  0.00    +0.000 A 
ATOM      5  C   UNL     1       2.314   6.360  19.252  0.00  0.00    +0.000 A 
ATOM      6  C   UNL     1       3.039   5.270  18.758  0.00  0.00    +0.000 A 
ATOM      7  C   UNL     1       3.051   4.038  19.443  0.00  0.00    +0.000 A 
ENDROOT
BRANCH   5   8
ATOM      8  N   UNL     1       2.376   7.578  18.545  0.00  0.00    +0.000 N 
ATOM      9  C   UNL     1       1.769   8.770  18.911  0.00  0.00    +0.000 C 
ATOM     10  O   UNL     1       1.065   8.956  19.903  0.00  0.00    +0.000 OA
ATOM     11  H   UNL     1       2.948   7.591  17.704  0.00  0.00    +0.000 HD
BRANCH   9  12
ATOM     12  C   UNL     1       1.961   9.891  17.895  0.00  0.00    +0.000 C 
BRANCH  12  13
ATOM     13  N   UNL     1       1.362  11.097  18.418  0.00  0.00    +0.000 N 
ATOM     14  C   UNL     1       1.998  12.317  18.346  0.00  0.00    +0.000 C 
ATOM     15  O   UNL     1       3.140  12.406  17.897  0.00  0.00    +0.000 OA
ATOM     16  H   UNL     1       0.364  11.097  18.595  0.00  0.00    +0.000 HD
BRANCH  14  17
ATOM     17  C   UNL     1       1.227  13.459  18.822  0.00  0.00    +0.000 A 
ATOM     18  C   UNL     1       1.721  14.613  19.404  0.00  0.00    +0.000 A 
ATOM     19  C   UNL     1       0.691  15.528  19.769  0.00  0.00    +0.000 A 
ATOM     20  C   UNL     1      -0.560  15.049  19.453  0.00  0.00    +0.000 A 
ATOM     21  S   UNL     1      -0.487  13.508  18.720  0.00  0.00    +0.000 S 
ENDBRANCH  14  17
ENDBRANCH  12  13
ENDBRANCH   9  12
ENDBRANCH   5   8
BRANCH   7  22
ATOM     22  S   UNL     1       4.153   2.775  18.800  0.00  0.00    +0.000 S 
ATOM     23  O   UNL     1       5.234   2.608  19.748  0.00  0.00    +0.000 OA
ATOM     24  O   UNL     1       3.363   1.636  18.384  0.00  0.00    +0.000 OA
BRANCH  22  25
ATOM     25  N   UNL     1       4.769   3.449  17.391  0.00  0.00    +0.000 N 
ATOM     26  H   UNL     1       4.180   3.301  16.573  0.00  0.00    +0.000 HD
BRANCH  25  27
ATOM     27  C   UNL     1       5.597   4.596  17.434  0.00  0.00    +0.000 A 
ATOM     28  C   UNL     1       5.277   5.724  16.678  0.00  0.00    +0.000 A 
ATOM     29  C   UNL     1       6.065   6.878  16.782  0.00  0.00    +0.000 A 
ATOM     30  C   UNL     1       7.179   6.879  17.622  0.00  0.00    +0.000 A 
ATOM     31 CL   UNL     1       8.135   8.302  17.775  0.00  0.00    +0.000 Cl
ATOM     32  C   UNL     1       7.516   5.741  18.351  0.00  0.00    +0.000 A 
ATOM     33  C   UNL     1       6.720   4.596  18.260  0.00  0.00    +0.000 A 
ENDBRANCH  25  27
ENDBRANCH  22  25
ENDBRANCH   7  22
TORSDOF 7
ENDMDL
MODEL 7
REMARK VINA RESULT:      -7.4      2.978      3.479
REMARK  Name = 
REMARK  8 active torsions:
REMARK  status: ('A' for Active; 'I' for Inactive)
REMARK    1  A    between atoms: C_1  and  C_2
REMARK    2  A    between atoms: C_5  and  N_6
REMARK    3  A    between atoms: C_7  and  C_9
REMARK    4  A    between atoms: C_9  and  N_10
REMARK    5  A    between atoms: C_11  and  C_13
REMARK    6  A    between atoms: C_19  and  S_20
REMARK    7  A    between atoms: S_20  and  N_23
REMARK    8  A    between atoms: N_23  and  C_24
REMARK                            x       y       z     vdW  Elec       q    Type
REMARK                         _______ _______ _______ _____ _____    ______ ____
ROOT
ATOM      1  C   UNL     1       3.536   2.857  20.629  0.00  0.00    +0.000 C 
ATOM      2  C   UNL     1       3.136   4.262  20.277  0.00  0.00    +0.000 A 
ATOM      3  C   UNL     1       1.895   4.710  20.747  0.00  0.00    +0.000 A 
ATOM      4  C   UNL     1       1.445   6.009  20.499  0.00  0.00    +0.000 A 
ATOM      5  C   UNL     1       2.218   6.901  19.761  0.00  0.00    +0.000 A 
ATOM      6  C   UNL     1       3.448   6.464  19.257  0.00  0.00    +0.000 A 
ATOM      7  C   UNL     1       3.917   5.161  19.521  0.00  0.00    +0.000 A 
ENDROOT
BRANCH   5   8
ATOM      8  N   UNL     1       1.825   8.229  19.500  0.00  0.00    +0.000 N 
ATOM      9  C   UNL     1       1.954   8.899  18.292  0.00  0.00    +0.000 C 
ATOM     10  O   UNL     1       2.448   8.451  17.258  0.00  0.00    +0.000 OA
ATOM     11  H   UNL     1       1.373   8.732  20.259  0.00  0.00    +0.000 HD
BRANCH   9  12
ATOM     12  C   UNL     1       1.504  10.355  18.350  0.00  0.00    +0.000 C 
BRANCH  12  13
ATOM     13  N   UNL     1       0.627  10.524  19.485  0.00  0.00    +0.000 N 
ATOM     14  C   UNL     1       0.582  11.698  20.202  0.00  0.00    +0.000 C 
ATOM     15  O   UNL     1       1.348  12.625  19.942  0.00  0.00    +0.000 OA
ATOM     16  H   UNL     1      -0.147   9.878  19.591  0.00  0.00    +0.000 HD
BRANCH  14  17
ATOM     17  C   UNL     1      -0.423  11.755  21.257  0.00  0.00    +0.000 A 
ATOM     18  C   UNL     1      -1.418  12.705  21.410  0.00  0.00    +0.000 A 
ATOM     19  C   UNL     1      -2.227  12.473  22.560  0.00  0.00    +0.000 A 
ATOM     20  C   UNL     1      -1.829  11.351  23.252  0.00  0.00    +0.000 A 
ATOM     21  S   UNL     1      -0.493  10.586  22.513  0.00  0.00    +0.000 S 
ENDBRANCH  14  17
ENDBRANCH  12  13
ENDBRANCH   9  12
ENDBRANCH   5   8
BRANCH   7  22
ATOM     22  S   UNL     1       5.580   4.780  18.964  0.00  0.00    +0.000 S 
ATOM     23  O   UNL     1       6.496   5.149  20.022  0.00  0.00    +0.000 OA
ATOM     24  O   UNL     1       5.594   3.439  18.420  0.00  0.00    +0.000 OA
BRANCH  22  25
ATOM     25  N   UNL     1       5.819   5.809  17.659  0.00  0.00    +0.000 N 
ATOM     26  H   UNL     1       6.282   6.683  17.904  0.00  0.00    +0.000 HD
BRANCH  25  27
ATOM     27  C   UNL     1       5.980   5.299  16.348  0.00  0.00    +0.000 A 
ATOM     28  C   UNL     1       7.243   5.255  15.760  0.00  0.00    +0.000 A 
ATOM     29  C   UNL     1       7.401   4.684  14.490  0.00  0.00    +0.000 A 
ATOM     30  C   UNL     1       6.286   4.187  13.814  0.00  0.00    +0.000 A 
ATOM     31 CL   UNL     1       6.476   3.460  12.266  0.00  0.00    +0.000 Cl
ATOM     32  C   UNL     1       5.020   4.262  14.389  0.00  0.00    +0.000 A 
ATOM     33  C   UNL     1       4.866   4.816  15.662  0.00  0.00    +0.000 A 
ENDBRANCH  25  27
ENDBRANCH  22  25
ENDBRANCH   7  22
TORSDOF 7
ENDMDL
MODEL 8
REMARK VINA RESULT:      -7.4      2.435      2.963
REMARK  Name = 
REMARK  8 active torsions:
REMARK  status: ('A' for Active; 'I' for Inactive)
REMARK    1  A    between atoms: C_1  and  C_2
REMARK    2  A    between atoms: C_5  and  N_6
REMARK    3  A    between atoms: C_7  and  C_9
REMARK    4  A    between atoms: C_9  and  N_10
REMARK    5  A    between atoms: C_11  and  C_13
REMARK    6  A    between atoms: C_19  and  S_20
REMARK    7  A    between atoms: S_20  and  N_23
REMARK    8  A    between atoms: N_23  and  C_24
REMARK                            x       y       z     vdW  Elec       q    Type
REMARK                         _______ _______ _______ _____ _____    ______ ____
ROOT
ATOM      1  C   UNL     1       2.949   2.580  20.146  0.00  0.00    +0.000 C 
ATOM      2  C   UNL     1       2.682   4.059  20.112  0.00  0.00    +0.000 A 
ATOM      3  C   UNL     1       1.504   4.509  20.722  0.00  0.00    +0.000 A 
ATOM      4  C   UNL     1       1.179   5.867  20.770  0.00  0.00    +0.000 A 
ATOM      5  C   UNL     1       2.018   6.820  20.199  0.00  0.00    +0.000 A 
ATOM      6  C   UNL     1       3.185   6.388  19.560  0.00  0.00    +0.000 A 
ATOM      7  C   UNL     1       3.528   5.022  19.525  0.00  0.00    +0.000 A 
ENDROOT
BRANCH   5   8
ATOM      8  N   UNL     1       1.751   8.203  20.238  0.00  0.00    +0.000 N 
ATOM      9  C   UNL     1       0.747   8.825  20.966  0.00  0.00    +0.000 C 
ATOM     10  O   UNL     1      -0.084   8.270  21.684  0.00  0.00    +0.000 OA
ATOM     11  H   UNL     1       2.374   8.806  19.707  0.00  0.00    +0.000 HD
BRANCH   9  12
ATOM     12  C   UNL     1       0.668  10.330  20.737  0.00  0.00    +0.000 C 
BRANCH  12  13
ATOM     13  N   UNL     1      -0.535  10.622  19.991  0.00  0.00    +0.000 N 
ATOM     14  C   UNL     1      -0.594  10.485  18.622  0.00  0.00    +0.000 C 
ATOM     15  O   UNL     1       0.407  10.177  17.976  0.00  0.00    +0.000 OA
ATOM     16  H   UNL     1      -1.412  10.670  20.497  0.00  0.00    +0.000 HD
BRANCH  14  17
ATOM     17  C   UNL     1      -1.901  10.718  18.021  0.00  0.00    +0.000 A 
ATOM     18  C   UNL     1      -2.894  11.561  18.487  0.00  0.00    +0.000 A 
ATOM     19  C   UNL     1      -4.060  11.544  17.666  0.00  0.00    +0.000 A 
ATOM     20  C   UNL     1      -3.922  10.690  16.594  0.00  0.00    +0.000 A 
ATOM     21  S   UNL     1      -2.398   9.921  16.582  0.00  0.00    +0.000 S 
ENDBRANCH  14  17
ENDBRANCH  12  13
ENDBRANCH   9  12
ENDBRANCH   5   8
BRANCH   7  22
ATOM     22  S   UNL     1       5.131   4.616  18.824  0.00  0.00    +0.000 S 
ATOM     23  O   UNL     1       6.141   4.978  19.795  0.00  0.00    +0.000 OA
ATOM     24  O   UNL     1       5.079   3.273  18.288  0.00  0.00    +0.000 OA
BRANCH  22  25
ATOM     25  N   UNL     1       5.266   5.637  17.497  0.00  0.00    +0.000 N 
ATOM     26  H   UNL     1       5.489   6.600  17.742  0.00  0.00    +0.000 HD
BRANCH  25  27
ATOM     27  C   UNL     1       5.677   5.142  16.236  0.00  0.00    +0.000 A 
ATOM     28  C   UNL     1       4.755   4.537  15.383  0.00  0.00    +0.000 A 
ATOM     29  C   UNL     1       5.159   4.115  14.109  0.00  0.00    +0.000 A 
ATOM     30  C   UNL     1       6.487   4.280  13.716  0.00  0.00    +0.000 A 
ATOM     31 CL   UNL     1       6.983   3.789  12.144  0.00  0.00    +0.000 Cl
ATOM     32  C   UNL     1       7.414   4.854  14.583  0.00  0.00    +0.000 A 
ATOM     33  C   UNL     1       7.008   5.291  15.847  0.00  0.00    +0.000 A 
ENDBRANCH  25  27
ENDBRANCH  22  25
ENDBRANCH   7  22
TORSDOF 7
ENDMDL
MODEL 9
REMARK VINA RESULT:      -7.4      3.055      3.863
REMARK  Name = 
REMARK  8 active torsions:
REMARK  status: ('A' for Active; 'I' for Inactive)
REMARK    1  A    between atoms: C_1  and  C_2
REMARK    2  A    between atoms: C_5  and  N_6
REMARK    3  A    between atoms: C_7  and  C_9
REMARK    4  A    between atoms: C_9  and  N_10
REMARK    5  A    between atoms: C_11  and  C_13
REMARK    6  A    between atoms: C_19  and  S_20
REMARK    7  A    between atoms: S_20  and  N_23
REMARK    8  A    between atoms: N_23  and  C_24
REMARK                            x       y       z     vdW  Elec       q    Type
REMARK                         _______ _______ _______ _____ _____    ______ ____
ROOT
ATOM      1  C   UNL     1       4.330   3.298  17.551  0.00  0.00    +0.000 C 
ATOM      2  C   UNL     1       3.842   4.717  17.632  0.00  0.00    +0.000 A 
ATOM      3  C   UNL     1       2.520   4.915  18.050  0.00  0.00    +0.000 A 
ATOM      4  C   UNL     1       1.981   6.197  18.186  0.00  0.00    +0.000 A 
ATOM      5  C   UNL     1       2.745   7.325  17.897  0.00  0.00    +0.000 A 
ATOM      6  C   UNL     1       4.058   7.147  17.449  0.00  0.00    +0.000 A 
ATOM      7  C   UNL     1       4.615   5.857  17.329  0.00  0.00    +0.000 A 
ENDROOT
BRANCH   5   8
ATOM      8  N   UNL     1       2.260   8.640  18.037  0.00  0.00    +0.000 N 
ATOM      9  C   UNL     1       1.554   9.143  19.120  0.00  0.00    +0.000 C 
ATOM     10  O   UNL     1       1.222   8.520  20.128  0.00  0.00    +0.000 OA
ATOM     11  H   UNL     1       2.477   9.291  17.287  0.00  0.00    +0.000 HD
BRANCH   9  12
ATOM     12  C   UNL     1       1.101  10.587  18.938  0.00  0.00    +0.000 C 
BRANCH  12  13
ATOM     13  N   UNL     1      -0.157  10.591  18.228  0.00  0.00    +0.000 N 
ATOM     14  C   UNL     1      -1.315  11.071  18.799  0.00  0.00    +0.000 C 
ATOM     15  O   UNL     1      -1.330  11.447  19.971  0.00  0.00    +0.000 OA
ATOM     16  H   UNL     1      -0.137  10.492  17.219  0.00  0.00    +0.000 HD
BRANCH  14  17
ATOM     17  C   UNL     1      -2.482  11.105  17.927  0.00  0.00    +0.000 A 
ATOM     18  C   UNL     1      -3.712  11.675  18.202  0.00  0.00    +0.000 A 
ATOM     19  C   UNL     1      -4.642  11.519  17.134  0.00  0.00    +0.000 A 
ATOM     20  C   UNL     1      -4.095  10.836  16.070  0.00  0.00    +0.000 A 
ATOM     21  S   UNL     1      -2.472  10.393  16.364  0.00  0.00    +0.000 S 
ENDBRANCH  14  17
ENDBRANCH  12  13
ENDBRANCH   9  12
ENDBRANCH   5   8
BRANCH   7  22
ATOM     22  S   UNL     1       6.358   5.772  16.909  0.00  0.00    +0.000 S 
ATOM     23  O   UNL     1       7.038   6.825  17.633  0.00  0.00    +0.000 OA
ATOM     24  O   UNL     1       6.800   4.400  17.028  0.00  0.00    +0.000 OA
BRANCH  22  25
ATOM     25  N   UNL     1       6.400   6.130  15.268  0.00  0.00    +0.000 N 
ATOM     26  H   UNL     1       6.902   6.988  15.048  0.00  0.00    +0.000 HD
BRANCH  25  27
ATOM     27  C   UNL     1       6.351   5.101  14.297  0.00  0.00    +0.000 A 
ATOM     28  C   UNL     1       5.217   4.299  14.178  0.00  0.00    +0.000 A 
ATOM     29  C   UNL     1       5.153   3.331  13.167  0.00  0.00    +0.000 A 
ATOM     30  C   UNL     1       6.236   3.161  12.305  0.00  0.00    +0.000 A 
ATOM     31 CL   UNL     1       6.153   1.992  11.044  0.00  0.00    +0.000 Cl
ATOM     32  C   UNL     1       7.381   3.941  12.446  0.00  0.00    +0.000 A 
ATOM     33  C   UNL     1       7.439   4.918  13.444  0.00  0.00    +0.000 A 
ENDBRANCH  25  27
ENDBRANCH  22  25
ENDBRANCH   7  22
TORSDOF 7
ENDMDL
