MODEL 1
REMARK VINA RESULT:      -5.5      0.000      0.000
REMARK  Name = 
REMARK  9 active torsions:
REMARK  status: ('A' for Active; 'I' for Inactive)
REMARK    1  A    between atoms: C_1  and  C_2
REMARK    2  A    between atoms: C_2  and  O_3
REMARK    3  A    between atoms: O_3  and  C_4
REMARK    4  A    between atoms: C_4  and  C_6
REMARK    5  A    between atoms: C_7  and  C_8
REMARK    6  A    between atoms: N_13  and  C_14
REMARK    7  A    between atoms: C_15  and  C_16
REMARK    8  A    between atoms: C_21  and  C_22
REMARK    9  A    between atoms: C_22  and  C_24
REMARK                            x       y       z     vdW  Elec       q    Type
REMARK                         _______ _______ _______ _____ _____    ______ ____
ROOT
ATOM      1  C   UNL     1      -3.988  13.972  22.423  0.00  0.00    +0.000 C 
ATOM      2  C   UNL     1      -4.018  12.829  21.399  0.00  0.00    +0.000 C 
ATOM      3  N   UNL     1      -3.151  13.022  20.207  0.00  0.00    +0.000 NA
ATOM      4  C   UNL     1      -3.281  11.958  19.193  0.00  0.00    +0.000 C 
ATOM      5  C   UNL     1      -1.705  13.216  20.539  0.00  0.00    +0.000 C 
ATOM      6  C   UNL     1      -1.472  14.493  21.332  0.00  0.00    +0.000 C 
ATOM      7  S   UNL     1      -2.368  14.503  22.857  0.00  0.00    +0.000 S 
ATOM      8  O   UNL     1      -2.446  15.886  23.296  0.00  0.00    +0.000 OA
ATOM      9  O   UNL     1      -1.859  13.502  23.781  0.00  0.00    +0.000 OA
ENDROOT
BRANCH   2  10
ATOM     10  C   UNL     1      -5.463  12.536  21.061  0.00  0.00    +0.000 A 
ATOM     11  C   UNL     1      -6.282  12.784  19.977  0.00  0.00    +0.000 A 
ATOM     12  C   UNL     1      -7.578  12.345  20.336  0.00  0.00    +0.000 A 
ATOM     13  C   UNL     1      -7.465  11.823  21.602  0.00  0.00    +0.000 A 
ATOM     14  O   UNL     1      -6.189  11.933  22.050  0.00  0.00    +0.000 OA
ENDBRANCH   2  10
BRANCH   5  15
ATOM     15  C   UNL     1      -0.989  12.002  21.087  0.00  0.00    +0.000 A 
ATOM     16  C   UNL     1      -1.106  11.192  22.201  0.00  0.00    +0.000 A 
ATOM     17  C   UNL     1      -0.050  10.255  22.148  0.00  0.00    +0.000 A 
ATOM     18  C   UNL     1       0.631  10.521  20.987  0.00  0.00    +0.000 A 
ATOM     19  O   UNL     1       0.069  11.568  20.333  0.00  0.00    +0.000 OA
ENDBRANCH   5  15
BRANCH   1  20
ATOM     20  C   UNL     1      -4.818  15.171  22.080  0.00  0.00    +0.000 C 
ATOM     21  O   UNL     1      -4.725  15.764  21.012  0.00  0.00    +0.000 OA
BRANCH  20  22
ATOM     22  O   UNL     1      -5.666  15.526  23.084  0.00  0.00    +0.000 OA
BRANCH  22  24
ATOM     23  C   UNL     1      -7.766  14.613  23.915  0.00  0.00    +0.000 C 
ATOM     24  C   UNL     1      -7.063  15.353  22.791  0.00  0.00    +0.000 C 
ENDBRANCH  22  24
ENDBRANCH  20  22
ENDBRANCH   1  20
BRANCH   6  25
ATOM     25  C   UNL     1      -0.000  14.795  21.547  0.00  0.00    +0.000 C 
ATOM     26  O   UNL     1       0.602  14.523  22.582  0.00  0.00    +0.000 OA
BRANCH  25  27
ATOM     27  C   UNL     1       0.808  15.374  20.423  0.00  0.00    +0.000 A 
ATOM     28  C   UNL     1       0.628  16.675  19.937  0.00  0.00    +0.000 A 
ATOM     29  C   UNL     1       1.381  17.129  18.845  0.00  0.00    +0.000 A 
ATOM     30  C   UNL     1       2.322  16.294  18.246  0.00  0.00    +0.000 A 
ATOM     31 CL   UNL     1       3.211  16.847  16.881  0.00  0.00    +0.000 Cl
ATOM     32  C   UNL     1       2.541  15.015  18.745  0.00  0.00    +0.000 A 
ATOM     33  C   UNL     1       1.789  14.558  19.832  0.00  0.00    +0.000 A 
ENDBRANCH  25  27
ENDBRANCH   6  25
TORSDOF 7
ENDMDL
MODEL 2
REMARK VINA RESULT:      -5.5      3.349      5.624
REMARK  Name = 
REMARK  9 active torsions:
REMARK  status: ('A' for Active; 'I' for Inactive)
REMARK    1  A    between atoms: C_1  and  C_2
REMARK    2  A    between atoms: C_2  and  O_3
REMARK    3  A    between atoms: O_3  and  C_4
REMARK    4  A    between atoms: C_4  and  C_6
REMARK    5  A    between atoms: C_7  and  C_8
REMARK    6  A    between atoms: N_13  and  C_14
REMARK    7  A    between atoms: C_15  and  C_16
REMARK    8  A    between atoms: C_21  and  C_22
REMARK    9  A    between atoms: C_22  and  C_24
REMARK                            x       y       z     vdW  Elec       q    Type
REMARK                         _______ _______ _______ _____ _____    ______ ____
ROOT
ATOM      1  C   UNL     1      -3.152  12.297  18.563  0.00  0.00    +0.000 C 
ATOM      2  C   UNL     1      -3.165  12.786  20.018  0.00  0.00    +0.000 C 
ATOM      3  N   UNL     1      -2.406  11.941  20.978  0.00  0.00    +0.000 NA
ATOM      4  C   UNL     1      -2.524  12.378  22.382  0.00  0.00    +0.000 C 
ATOM      5  C   UNL     1      -0.960  11.784  20.628  0.00  0.00    +0.000 C 
ATOM      6  C   UNL     1      -0.772  11.045  19.312  0.00  0.00    +0.000 C 
ATOM      7  S   UNL     1      -1.552  11.879  17.962  0.00  0.00    +0.000 S 
ATOM      8  O   UNL     1      -1.708  10.908  16.892  0.00  0.00    +0.000 OA
ATOM      9  O   UNL     1      -0.898  13.145  17.669  0.00  0.00    +0.000 OA
ENDROOT
BRANCH   2  10
ATOM     10  C   UNL     1      -4.603  13.026  20.422  0.00  0.00    +0.000 A 
ATOM     11  C   UNL     1      -5.471  14.099  20.352  0.00  0.00    +0.000 A 
ATOM     12  C   UNL     1      -6.658  13.706  21.012  0.00  0.00    +0.000 A 
ATOM     13  C   UNL     1      -6.458  12.407  21.413  0.00  0.00    +0.000 A 
ATOM     14  O   UNL     1      -5.217  11.986  21.061  0.00  0.00    +0.000 OA
ENDBRANCH   2  10
BRANCH   5  15
ATOM     15  C   UNL     1      -0.110  13.027  20.771  0.00  0.00    +0.000 A 
ATOM     16  C   UNL     1      -0.153  14.326  20.299  0.00  0.00    +0.000 A 
ATOM     17  C   UNL     1       1.014  14.975  20.760  0.00  0.00    +0.000 A 
ATOM     18  C   UNL     1       1.686  14.050  21.518  0.00  0.00    +0.000 A 
ATOM     19  O   UNL     1       1.013  12.872  21.540  0.00  0.00    +0.000 OA
ENDBRANCH   5  15
BRANCH   1  20
ATOM     20  C   UNL     1      -4.098  11.180  18.246  0.00  0.00    +0.000 C 
ATOM     21  O   UNL     1      -4.063  10.094  18.813  0.00  0.00    +0.000 OA
BRANCH  20  22
ATOM     22  O   UNL     1      -4.980  11.503  17.262  0.00  0.00    +0.000 OA
BRANCH  22  24
ATOM     23  C   UNL     1      -6.923  12.972  17.208  0.00  0.00    +0.000 C 
ATOM     24  C   UNL     1      -6.344  11.655  17.691  0.00  0.00    +0.000 C 
ENDBRANCH  22  24
ENDBRANCH  20  22
ENDBRANCH   1  20
BRANCH   6  25
ATOM     25  C   UNL     1       0.683  10.734  19.011  0.00  0.00    +0.000 C 
ATOM     26  O   UNL     1       1.487  11.574  18.617  0.00  0.00    +0.000 OA
BRANCH  25  27
ATOM     27  C   UNL     1       1.216   9.358  19.284  0.00  0.00    +0.000 A 
ATOM     28  C   UNL     1       1.064   8.705  20.514  0.00  0.00    +0.000 A 
ATOM     29  C   UNL     1       1.639   7.442  20.716  0.00  0.00    +0.000 A 
ATOM     30  C   UNL     1       2.352   6.823  19.691  0.00  0.00    +0.000 A 
ATOM     31 CL   UNL     1       3.088   5.293  19.963  0.00  0.00    +0.000 Cl
ATOM     32  C   UNL     1       2.474   7.442  18.451  0.00  0.00    +0.000 A 
ATOM     33  C   UNL     1       1.905   8.703  18.248  0.00  0.00    +0.000 A 
ENDBRANCH  25  27
ENDBRANCH   6  25
TORSDOF 7
ENDMDL
MODEL 3
REMARK VINA RESULT:      -5.5      3.308      5.607
REMARK  Name = 
REMARK  9 active torsions:
REMARK  status: ('A' for Active; 'I' for Inactive)
REMARK    1  A    between atoms: C_1  and  C_2
REMARK    2  A    between atoms: C_2  and  O_3
REMARK    3  A    between atoms: O_3  and  C_4
REMARK    4  A    between atoms: C_4  and  C_6
REMARK    5  A    between atoms: C_7  and  C_8
REMARK    6  A    between atoms: N_13  and  C_14
REMARK    7  A    between atoms: C_15  and  C_16
REMARK    8  A    between atoms: C_21  and  C_22
REMARK    9  A    between atoms: C_22  and  C_24
REMARK                            x       y       z     vdW  Elec       q    Type
REMARK                         _______ _______ _______ _____ _____    ______ ____
ROOT
ATOM      1  C   UNL     1      -2.830  12.630  18.954  0.00  0.00    +0.000 C 
ATOM      2  C   UNL     1      -2.622  12.982  20.433  0.00  0.00    +0.000 C 
ATOM      3  N   UNL     1      -1.845  11.988  21.219  0.00  0.00    +0.000 NA
ATOM      4  C   UNL     1      -1.753  12.302  22.657  0.00  0.00    +0.000 C 
ATOM      5  C   UNL     1      -0.473  11.733  20.679  0.00  0.00    +0.000 C 
ATOM      6  C   UNL     1      -0.518  11.103  19.294  0.00  0.00    +0.000 C 
ATOM      7  S   UNL     1      -1.362  12.126  18.124  0.00  0.00    +0.000 S 
ATOM      8  O   UNL     1      -1.740  11.275  17.008  0.00  0.00    +0.000 OA
ATOM      9  O   UNL     1      -0.623  13.348  17.853  0.00  0.00    +0.000 OA
ENDROOT
BRANCH   2  10
ATOM     10  C   UNL     1      -3.971  13.314  21.033  0.00  0.00    +0.000 A 
ATOM     11  C   UNL     1      -4.881  12.638  21.821  0.00  0.00    +0.000 A 
ATOM     12  C   UNL     1      -6.014  13.477  21.946  0.00  0.00    +0.000 A 
ATOM     13  C   UNL     1      -5.712  14.627  21.258  0.00  0.00    +0.000 A 
ATOM     14  O   UNL     1      -4.478  14.539  20.701  0.00  0.00    +0.000 OA
ENDBRANCH   2  10
BRANCH   5  15
ATOM     15  C   UNL     1       0.508  12.875  20.812  0.00  0.00    +0.000 A 
ATOM     16  C   UNL     1       0.482  14.243  20.616  0.00  0.00    +0.000 A 
ATOM     17  C   UNL     1       1.789  14.724  20.856  0.00  0.00    +0.000 A 
ATOM     18  C   UNL     1       2.531  13.630  21.222  0.00  0.00    +0.000 A 
ATOM     19  O   UNL     1       1.768  12.509  21.208  0.00  0.00    +0.000 OA
ENDBRANCH   5  15
BRANCH   1  20
ATOM     20  C   UNL     1      -3.915  11.637  18.670  0.00  0.00    +0.000 C 
ATOM     21  O   UNL     1      -3.785  10.433  18.859  0.00  0.00    +0.000 OA
BRANCH  20  22
ATOM     22  O   UNL     1      -5.041  12.218  18.173  0.00  0.00    +0.000 OA
BRANCH  22  24
ATOM     23  C   UNL     1      -7.254  11.669  19.029  0.00  0.00    +0.000 C 
ATOM     24  C   UNL     1      -6.167  11.336  18.023  0.00  0.00    +0.000 C 
ENDBRANCH  22  24
ENDBRANCH  20  22
ENDBRANCH   1  20
BRANCH   6  25
ATOM     25  C   UNL     1       0.852  10.691  18.788  0.00  0.00    +0.000 C 
ATOM     26  O   UNL     1       1.619  11.456  18.210  0.00  0.00    +0.000 OA
BRANCH  25  27
ATOM     27  C   UNL     1       1.360   9.308  19.073  0.00  0.00    +0.000 A 
ATOM     28  C   UNL     1       1.245   8.690  20.325  0.00  0.00    +0.000 A 
ATOM     29  C   UNL     1       1.793   7.416  20.534  0.00  0.00    +0.000 A 
ATOM     30  C   UNL     1       2.443   6.752  19.496  0.00  0.00    +0.000 A 
ATOM     31 CL   UNL     1       3.149   5.209  19.775  0.00  0.00    +0.000 Cl
ATOM     32  C   UNL     1       2.527   7.337  18.236  0.00  0.00    +0.000 A 
ATOM     33  C   UNL     1       1.983   8.608  18.026  0.00  0.00    +0.000 A 
ENDBRANCH  25  27
ENDBRANCH   6  25
TORSDOF 7
ENDMDL
MODEL 4
REMARK VINA RESULT:      -5.5      3.644      6.426
REMARK  Name = 
REMARK  9 active torsions:
REMARK  status: ('A' for Active; 'I' for Inactive)
REMARK    1  A    between atoms: C_1  and  C_2
REMARK    2  A    between atoms: C_2  and  O_3
REMARK    3  A    between atoms: O_3  and  C_4
REMARK    4  A    between atoms: C_4  and  C_6
REMARK    5  A    between atoms: C_7  and  C_8
REMARK    6  A    between atoms: N_13  and  C_14
REMARK    7  A    between atoms: C_15  and  C_16
REMARK    8  A    between atoms: C_21  and  C_22
REMARK    9  A    between atoms: C_22  and  C_24
REMARK                            x       y       z     vdW  Elec       q    Type
REMARK                         _______ _______ _______ _____ _____    ______ ____
ROOT
ATOM      1  C   UNL     1      -0.851  13.654  21.502  0.00  0.00    +0.000 C 
ATOM      2  C   UNL     1      -0.979  14.003  20.013  0.00  0.00    +0.000 C 
ATOM      3  N   UNL     1      -0.077  13.248  19.105  0.00  0.00    +0.000 NA
ATOM      4  C   UNL     1      -0.149  13.679  17.696  0.00  0.00    +0.000 C 
ATOM      5  C   UNL     1      -0.254  11.764  19.178  0.00  0.00    +0.000 C 
ATOM      6  C   UNL     1       0.118  11.216  20.548  0.00  0.00    +0.000 C 
ATOM      7  S   UNL     1      -0.862  11.927  21.838  0.00  0.00    +0.000 S 
ATOM      8  O   UNL     1      -0.152  11.701  23.086  0.00  0.00    +0.000 OA
ATOM      9  O   UNL     1      -2.253  11.515  21.738  0.00  0.00    +0.000 OA
ENDROOT
BRANCH   2  10
ATOM     10  C   UNL     1      -0.871  15.506  19.870  0.00  0.00    +0.000 A 
ATOM     11  C   UNL     1       0.078  16.372  19.364  0.00  0.00    +0.000 A 
ATOM     12  C   UNL     1      -0.383  17.682  19.631  0.00  0.00    +0.000 A 
ATOM     13  C   UNL     1      -1.601  17.538  20.250  0.00  0.00    +0.000 A 
ATOM     14  O   UNL     1      -1.906  16.224  20.399  0.00  0.00    +0.000 OA
ENDBRANCH   2  10
BRANCH   5  15
ATOM     15  C   UNL     1      -1.556  11.229  18.625  0.00  0.00    +0.000 A 
ATOM     16  C   UNL     1      -1.953  10.122  17.898  0.00  0.00    +0.000 A 
ATOM     17  C   UNL     1      -3.335  10.265  17.642  0.00  0.00    +0.000 A 
ATOM     18  C   UNL     1      -3.713  11.432  18.257  0.00  0.00    +0.000 A 
ATOM     19  O   UNL     1      -2.650  12.019  18.862  0.00  0.00    +0.000 OA
ENDBRANCH   5  15
BRANCH   1  20
ATOM     20  C   UNL     1       0.307  14.280  22.217  0.00  0.00    +0.000 C 
ATOM     21  O   UNL     1       0.172  15.112  23.107  0.00  0.00    +0.000 OA
BRANCH  20  22
ATOM     22  O   UNL     1       1.509  13.834  21.761  0.00  0.00    +0.000 OA
BRANCH  22  24
ATOM     23  C   UNL     1       3.275  14.605  20.271  0.00  0.00    +0.000 C 
ATOM     24  C   UNL     1       2.500  14.855  21.551  0.00  0.00    +0.000 C 
ENDBRANCH  22  24
ENDBRANCH  20  22
ENDBRANCH   1  20
BRANCH   6  25
ATOM     25  C   UNL     1       0.098   9.699  20.603  0.00  0.00    +0.000 C 
ATOM     26  O   UNL     1      -0.745   9.056  21.221  0.00  0.00    +0.000 OA
BRANCH  25  27
ATOM     27  C   UNL     1       1.095   8.917  19.799  0.00  0.00    +0.000 A 
ATOM     28  C   UNL     1       1.525   9.303  18.522  0.00  0.00    +0.000 A 
ATOM     29  C   UNL     1       2.417   8.493  17.806  0.00  0.00    +0.000 A 
ATOM     30  C   UNL     1       2.891   7.307  18.364  0.00  0.00    +0.000 A 
ATOM     31 CL   UNL     1       3.952   6.299  17.459  0.00  0.00    +0.000 Cl
ATOM     32  C   UNL     1       2.506   6.934  19.647  0.00  0.00    +0.000 A 
ATOM     33  C   UNL     1       1.614   7.739  20.363  0.00  0.00    +0.000 A 
ENDBRANCH  25  27
ENDBRANCH   6  25
TORSDOF 7
ENDMDL
MODEL 5
REMARK VINA RESULT:      -5.4      3.791      6.203
REMARK  Name = 
REMARK  9 active torsions:
REMARK  status: ('A' for Active; 'I' for Inactive)
REMARK    1  A    between atoms: C_1  and  C_2
REMARK    2  A    between atoms: C_2  and  O_3
REMARK    3  A    between atoms: O_3  and  C_4
REMARK    4  A    between atoms: C_4  and  C_6
REMARK    5  A    between atoms: C_7  and  C_8
REMARK    6  A    between atoms: N_13  and  C_14
REMARK    7  A    between atoms: C_15  and  C_16
REMARK    8  A    between atoms: C_21  and  C_22
REMARK    9  A    between atoms: C_22  and  C_24
REMARK                            x       y       z     vdW  Elec       q    Type
REMARK                         _______ _______ _______ _____ _____    ______ ____
ROOT
ATOM      1  C   UNL     1      -0.817  13.734  21.515  0.00  0.00    +0.000 C 
ATOM      2  C   UNL     1      -0.932  14.131  20.037  0.00  0.00    +0.000 C 
ATOM      3  N   UNL     1      -0.049  13.378  19.107  0.00  0.00    +0.000 NA
ATOM      4  C   UNL     1      -0.106  13.852  17.712  0.00  0.00    +0.000 C 
ATOM      5  C   UNL     1      -0.266  11.898  19.136  0.00  0.00    +0.000 C 
ATOM      6  C   UNL     1       0.087  11.300  20.490  0.00  0.00    +0.000 C 
ATOM      7  S   UNL     1      -0.876  11.999  21.799  0.00  0.00    +0.000 S 
ATOM      8  O   UNL     1      -0.176  11.717  23.041  0.00  0.00    +0.000 OA
ATOM      9  O   UNL     1      -2.278  11.629  21.685  0.00  0.00    +0.000 OA
ENDROOT
BRANCH   2  10
ATOM     10  C   UNL     1      -0.783  15.633  19.938  0.00  0.00    +0.000 A 
ATOM     11  C   UNL     1      -1.653  16.705  19.974  0.00  0.00    +0.000 A 
ATOM     12  C   UNL     1      -0.884  17.862  19.711  0.00  0.00    +0.000 A 
ATOM     13  C   UNL     1       0.413  17.433  19.567  0.00  0.00    +0.000 A 
ATOM     14  O   UNL     1       0.485  16.084  19.702  0.00  0.00    +0.000 OA
ENDBRANCH   2  10
BRANCH   5  15
ATOM     15  C   UNL     1      -1.581  11.415  18.566  0.00  0.00    +0.000 A 
ATOM     16  C   UNL     1      -2.914  11.757  18.701  0.00  0.00    +0.000 A 
ATOM     17  C   UNL     1      -3.659  10.840  17.927  0.00  0.00    +0.000 A 
ATOM     18  C   UNL     1      -2.740  10.012  17.334  0.00  0.00    +0.000 A 
ATOM     19  O   UNL     1      -1.481  10.354  17.705  0.00  0.00    +0.000 OA
ENDBRANCH   5  15
BRANCH   1  20
ATOM     20  C   UNL     1       0.356  14.307  22.250  0.00  0.00    +0.000 C 
ATOM     21  O   UNL     1       1.518  14.054  21.954  0.00  0.00    +0.000 OA
BRANCH  20  22
ATOM     22  O   UNL     1      -0.015  15.121  23.276  0.00  0.00    +0.000 OA
BRANCH  22  24
ATOM     23  C   UNL     1      -0.433  17.518  23.404  0.00  0.00    +0.000 C 
ATOM     24  C   UNL     1       0.606  16.418  23.280  0.00  0.00    +0.000 C 
ENDBRANCH  22  24
ENDBRANCH  20  22
ENDBRANCH   1  20
BRANCH   6  25
ATOM     25  C   UNL     1       0.026   9.783  20.501  0.00  0.00    +0.000 C 
ATOM     26  O   UNL     1      -0.875   9.146  21.039  0.00  0.00    +0.000 OA
BRANCH  25  27
ATOM     27  C   UNL     1       1.057   8.997  19.747  0.00  0.00    +0.000 A 
ATOM     28  C   UNL     1       1.535   9.368  18.483  0.00  0.00    +0.000 A 
ATOM     29  C   UNL     1       2.458   8.554  17.812  0.00  0.00    +0.000 A 
ATOM     30  C   UNL     1       2.917   7.378  18.404  0.00  0.00    +0.000 A 
ATOM     31 CL   UNL     1       4.017   6.365  17.555  0.00  0.00    +0.000 Cl
ATOM     32  C   UNL     1       2.484   7.020  19.676  0.00  0.00    +0.000 A 
ATOM     33  C   UNL     1       1.560   7.829  20.346  0.00  0.00    +0.000 A 
ENDBRANCH  25  27
ENDBRANCH   6  25
TORSDOF 7
ENDMDL
MODEL 6
REMARK VINA RESULT:      -5.4      3.642      6.126
REMARK  Name = 
REMARK  9 active torsions:
REMARK  status: ('A' for Active; 'I' for Inactive)
REMARK    1  A    between atoms: C_1  and  C_2
REMARK    2  A    between atoms: C_2  and  O_3
REMARK    3  A    between atoms: O_3  and  C_4
REMARK    4  A    between atoms: C_4  and  C_6
REMARK    5  A    between atoms: C_7  and  C_8
REMARK    6  A    between atoms: N_13  and  C_14
REMARK    7  A    between atoms: C_15  and  C_16
REMARK    8  A    between atoms: C_21  and  C_22
REMARK    9  A    between atoms: C_22  and  C_24
REMARK                            x       y       z     vdW  Elec       q    Type
REMARK                         _______ _______ _______ _____ _____    ______ ____
ROOT
ATOM      1  C   UNL     1      -0.887  13.723  21.598  0.00  0.00    +0.000 C 
ATOM      2  C   UNL     1      -0.988  14.069  20.106  0.00  0.00    +0.000 C 
ATOM      3  N   UNL     1      -0.068  13.312  19.216  0.00  0.00    +0.000 NA
ATOM      4  C   UNL     1      -0.113  13.741  17.805  0.00  0.00    +0.000 C 
ATOM      5  C   UNL     1      -0.244  11.828  19.289  0.00  0.00    +0.000 C 
ATOM      6  C   UNL     1       0.102  11.284  20.667  0.00  0.00    +0.000 C 
ATOM      7  S   UNL     1      -0.903  11.996  21.936  0.00  0.00    +0.000 S 
ATOM      8  O   UNL     1      -0.217  11.774  23.198  0.00  0.00    +0.000 OA
ATOM      9  O   UNL     1      -2.291  11.583  21.811  0.00  0.00    +0.000 OA
ENDROOT
BRANCH   2  10
ATOM     10  C   UNL     1      -0.879  15.571  19.961  0.00  0.00    +0.000 A 
ATOM     11  C   UNL     1       0.126  16.446  19.598  0.00  0.00    +0.000 A 
ATOM     12  C   UNL     1      -0.389  17.752  19.773  0.00  0.00    +0.000 A 
ATOM     13  C   UNL     1      -1.686  17.596  20.195  0.00  0.00    +0.000 A 
ATOM     14  O   UNL     1      -1.993  16.279  20.313  0.00  0.00    +0.000 OA
ENDBRANCH   2  10
BRANCH   5  15
ATOM     15  C   UNL     1      -1.534  11.291  18.713  0.00  0.00    +0.000 A 
ATOM     16  C   UNL     1      -1.914  10.190  17.967  0.00  0.00    +0.000 A 
ATOM     17  C   UNL     1      -3.293  10.326  17.694  0.00  0.00    +0.000 A 
ATOM     18  C   UNL     1      -3.688  11.483  18.319  0.00  0.00    +0.000 A 
ATOM     19  O   UNL     1      -2.637  12.070  18.944  0.00  0.00    +0.000 OA
ENDBRANCH   5  15
BRANCH   1  20
ATOM     20  C   UNL     1       0.256  14.352  22.333  0.00  0.00    +0.000 C 
ATOM     21  O   UNL     1       1.426  14.208  21.998  0.00  0.00    +0.000 OA
BRANCH  20  22
ATOM     22  O   UNL     1      -0.150  15.082  23.408  0.00  0.00    +0.000 OA
BRANCH  22  24
ATOM     23  C   UNL     1       0.921  17.065  24.333  0.00  0.00    +0.000 C 
ATOM     24  C   UNL     1      -0.004  16.506  23.268  0.00  0.00    +0.000 C 
ENDBRANCH  22  24
ENDBRANCH  20  22
ENDBRANCH   1  20
BRANCH   6  25
ATOM     25  C   UNL     1       0.083   9.768  20.725  0.00  0.00    +0.000 C 
ATOM     26  O   UNL     1      -0.747   9.125  21.362  0.00  0.00    +0.000 OA
BRANCH  25  27
ATOM     27  C   UNL     1       1.062   8.984  19.901  0.00  0.00    +0.000 A 
ATOM     28  C   UNL     1       1.493   9.386  18.630  0.00  0.00    +0.000 A 
ATOM     29  C   UNL     1       2.367   8.574  17.894  0.00  0.00    +0.000 A 
ATOM     30  C   UNL     1       2.823   7.370  18.427  0.00  0.00    +0.000 A 
ATOM     31 CL   UNL     1       3.862   6.362  17.497  0.00  0.00    +0.000 Cl
ATOM     32  C   UNL     1       2.438   6.980  19.704  0.00  0.00    +0.000 A 
ATOM     33  C   UNL     1       1.563   7.786  20.440  0.00  0.00    +0.000 A 
ENDBRANCH  25  27
ENDBRANCH   6  25
TORSDOF 7
ENDMDL
MODEL 7
REMARK VINA RESULT:      -5.3      3.571      5.716
REMARK  Name = 
REMARK  9 active torsions:
REMARK  status: ('A' for Active; 'I' for Inactive)
REMARK    1  A    between atoms: C_1  and  C_2
REMARK    2  A    between atoms: C_2  and  O_3
REMARK    3  A    between atoms: O_3  and  C_4
REMARK    4  A    between atoms: C_4  and  C_6
REMARK    5  A    between atoms: C_7  and  C_8
REMARK    6  A    between atoms: N_13  and  C_14
REMARK    7  A    between atoms: C_15  and  C_16
REMARK    8  A    between atoms: C_21  and  C_22
REMARK    9  A    between atoms: C_22  and  C_24
REMARK                            x       y       z     vdW  Elec       q    Type
REMARK                         _______ _______ _______ _____ _____    ______ ____
ROOT
ATOM      1  C   UNL     1       0.018  14.521  22.227  0.00  0.00    +0.000 C 
ATOM      2  C   UNL     1      -0.995  13.681  23.018  0.00  0.00    +0.000 C 
ATOM      3  N   UNL     1      -2.000  12.959  22.194  0.00  0.00    +0.000 NA
ATOM      4  C   UNL     1      -3.021  12.247  22.986  0.00  0.00    +0.000 C 
ATOM      5  C   UNL     1      -1.398  12.016  21.200  0.00  0.00    +0.000 C 
ATOM      6  C   UNL     1      -0.573  12.749  20.153  0.00  0.00    +0.000 C 
ATOM      7  S   UNL     1       0.754  13.671  20.874  0.00  0.00    +0.000 S 
ATOM      8  O   UNL     1       1.172  14.656  19.891  0.00  0.00    +0.000 OA
ATOM      9  O   UNL     1       1.756  12.793  21.458  0.00  0.00    +0.000 OA
ENDROOT
BRANCH   2  10
ATOM     10  C   UNL     1      -1.602  14.560  24.089  0.00  0.00    +0.000 A 
ATOM     11  C   UNL     1      -2.847  15.118  24.304  0.00  0.00    +0.000 A 
ATOM     12  C   UNL     1      -2.733  15.939  25.450  0.00  0.00    +0.000 A 
ATOM     13  C   UNL     1      -1.437  15.805  25.887  0.00  0.00    +0.000 A 
ATOM     14  O   UNL     1      -0.744  14.972  25.070  0.00  0.00    +0.000 OA
ENDBRANCH   2  10
BRANCH   5  15
ATOM     15  C   UNL     1      -0.725  10.792  21.778  0.00  0.00    +0.000 A 
ATOM     16  C   UNL     1      -0.363   9.540  21.318  0.00  0.00    +0.000 A 
ATOM     17  C   UNL     1       0.177   8.832  22.416  0.00  0.00    +0.000 A 
ATOM     18  C   UNL     1       0.149   9.704  23.476  0.00  0.00    +0.000 A 
ATOM     19  O   UNL     1      -0.385  10.893  23.102  0.00  0.00    +0.000 OA
ENDBRANCH   5  15
BRANCH   1  20
ATOM     20  C   UNL     1      -0.475  15.854  21.754  0.00  0.00    +0.000 C 
ATOM     21  O   UNL     1      -1.274  15.983  20.833  0.00  0.00    +0.000 OA
BRANCH  20  22
ATOM     22  O   UNL     1       0.070  16.891  22.448  0.00  0.00    +0.000 OA
BRANCH  22  24
ATOM     23  C   UNL     1       1.703  17.992  21.015  0.00  0.00    +0.000 C 
ATOM     24  C   UNL     1       1.474  17.104  22.224  0.00  0.00    +0.000 C 
ENDBRANCH  22  24
ENDBRANCH  20  22
ENDBRANCH   1  20
BRANCH   6  25
ATOM     25  C   UNL     1      -0.081  11.838  19.043  0.00  0.00    +0.000 C 
ATOM     26  O   UNL     1       1.092  11.495  18.919  0.00  0.00    +0.000 OA
BRANCH  25  27
ATOM     27  C   UNL     1      -1.069  11.236  18.088  0.00  0.00    +0.000 A 
ATOM     28  C   UNL     1      -0.909   9.969  17.513  0.00  0.00    +0.000 A 
ATOM     29  C   UNL     1      -1.846   9.494  16.584  0.00  0.00    +0.000 A 
ATOM     30  C   UNL     1      -2.948  10.274  16.237  0.00  0.00    +0.000 A 
ATOM     31 CL   UNL     1      -4.068   9.701  15.064  0.00  0.00    +0.000 Cl
ATOM     32  C   UNL     1      -3.141  11.516  16.832  0.00  0.00    +0.000 A 
ATOM     33  C   UNL     1      -2.206  11.993  17.757  0.00  0.00    +0.000 A 
ENDBRANCH  25  27
ENDBRANCH   6  25
TORSDOF 7
ENDMDL
MODEL 8
REMARK VINA RESULT:      -5.3      3.469      6.012
REMARK  Name = 
REMARK  9 active torsions:
REMARK  status: ('A' for Active; 'I' for Inactive)
REMARK    1  A    between atoms: C_1  and  C_2
REMARK    2  A    between atoms: C_2  and  O_3
REMARK    3  A    between atoms: O_3  and  C_4
REMARK    4  A    between atoms: C_4  and  C_6
REMARK    5  A    between atoms: C_7  and  C_8
REMARK    6  A    between atoms: N_13  and  C_14
REMARK    7  A    between atoms: C_15  and  C_16
REMARK    8  A    between atoms: C_21  and  C_22
REMARK    9  A    between atoms: C_22  and  C_24
REMARK                            x       y       z     vdW  Elec       q    Type
REMARK                         _______ _______ _______ _____ _____    ______ ____
ROOT
ATOM      1  C   UNL     1      -0.810  13.654  21.560  0.00  0.00    +0.000 C 
ATOM      2  C   UNL     1      -0.956  14.006  20.073  0.00  0.00    +0.000 C 
ATOM      3  N   UNL     1      -0.081  13.236  19.150  0.00  0.00    +0.000 NA
ATOM      4  C   UNL     1      -0.167  13.669  17.743  0.00  0.00    +0.000 C 
ATOM      5  C   UNL     1      -0.282  11.755  19.226  0.00  0.00    +0.000 C 
ATOM      6  C   UNL     1       0.101  11.200  20.589  0.00  0.00    +0.000 C 
ATOM      7  S   UNL     1      -0.846  11.927  21.895  0.00  0.00    +0.000 S 
ATOM      8  O   UNL     1      -0.122  11.688  23.132  0.00  0.00    +0.000 OA
ATOM      9  O   UNL     1      -2.246  11.540  21.817  0.00  0.00    +0.000 OA
ENDROOT
BRANCH   2  10
ATOM     10  C   UNL     1      -0.824  15.507  19.928  0.00  0.00    +0.000 A 
ATOM     11  C   UNL     1       0.182  16.364  19.527  0.00  0.00    +0.000 A 
ATOM     12  C   UNL     1      -0.301  17.678  19.726  0.00  0.00    +0.000 A 
ATOM     13  C   UNL     1      -1.583  17.545  20.202  0.00  0.00    +0.000 A 
ATOM     14  O   UNL     1      -1.909  16.234  20.328  0.00  0.00    +0.000 OA
ENDBRANCH   2  10
BRANCH   5  15
ATOM     15  C   UNL     1      -1.601  11.243  18.693  0.00  0.00    +0.000 A 
ATOM     16  C   UNL     1      -2.028  10.145  17.969  0.00  0.00    +0.000 A 
ATOM     17  C   UNL     1      -3.411  10.312  17.736  0.00  0.00    +0.000 A 
ATOM     18  C   UNL     1      -3.760  11.482  18.361  0.00  0.00    +0.000 A 
ATOM     19  O   UNL     1      -2.678  12.049  18.950  0.00  0.00    +0.000 OA
ENDBRANCH   5  15
BRANCH   1  20
ATOM     20  C   UNL     1       0.369  14.260  22.257  0.00  0.00    +0.000 C 
ATOM     21  O   UNL     1       1.528  14.025  21.936  0.00  0.00    +0.000 OA
BRANCH  20  22
ATOM     22  O   UNL     1       0.008  15.081  23.281  0.00  0.00    +0.000 OA
BRANCH  22  24
ATOM     23  C   UNL     1      -1.913  16.462  23.862  0.00  0.00    +0.000 C 
ATOM     24  C   UNL     1      -1.390  15.058  23.617  0.00  0.00    +0.000 C 
ENDBRANCH  22  24
ENDBRANCH  20  22
ENDBRANCH   1  20
BRANCH   6  25
ATOM     25  C   UNL     1       0.056   9.684  20.645  0.00  0.00    +0.000 C 
ATOM     26  O   UNL     1      -0.797   9.054  21.264  0.00  0.00    +0.000 OA
BRANCH  25  27
ATOM     27  C   UNL     1       1.039   8.886  19.839  0.00  0.00    +0.000 A 
ATOM     28  C   UNL     1       1.616   7.693  20.293  0.00  0.00    +0.000 A 
ATOM     29  C   UNL     1       2.570   7.030  19.508  0.00  0.00    +0.000 A 
ATOM     30  C   UNL     1       2.939   7.545  18.267  0.00  0.00    +0.000 A 
ATOM     31 CL   UNL     1       4.141   6.746  17.332  0.00  0.00    +0.000 Cl
ATOM     32  C   UNL     1       2.342   8.705  17.786  0.00  0.00    +0.000 A 
ATOM     33  C   UNL     1       1.393   9.371  18.568  0.00  0.00    +0.000 A 
ENDBRANCH  25  27
ENDBRANCH   6  25
TORSDOF 7
ENDMDL
MODEL 9
REMARK VINA RESULT:      -5.3      1.404      1.746
REMARK  Name = 
REMARK  9 active torsions:
REMARK  status: ('A' for Active; 'I' for Inactive)
REMARK    1  A    between atoms: C_1  and  C_2
REMARK    2  A    between atoms: C_2  and  O_3
REMARK    3  A    between atoms: O_3  and  C_4
REMARK    4  A    between atoms: C_4  and  C_6
REMARK    5  A    between atoms: C_7  and  C_8
REMARK    6  A    between atoms: N_13  and  C_14
REMARK    7  A    between atoms: C_15  and  C_16
REMARK    8  A    between atoms: C_21  and  C_22
REMARK    9  A    between atoms: C_22  and  C_24
REMARK                            x       y       z     vdW  Elec       q    Type
REMARK                         _______ _______ _______ _____ _____    ______ ____
ROOT
ATOM      1  C   UNL     1      -2.952  13.803  23.022  0.00  0.00    +0.000 C 
ATOM      2  C   UNL     1      -3.507  12.909  21.905  0.00  0.00    +0.000 C 
ATOM      3  N   UNL     1      -3.001  13.213  20.540  0.00  0.00    +0.000 NA
ATOM      4  C   UNL     1      -3.630  12.408  19.476  0.00  0.00    +0.000 C 
ATOM      5  C   UNL     1      -1.512  13.121  20.415  0.00  0.00    +0.000 C 
ATOM      6  C   UNL     1      -0.807  14.162  21.272  0.00  0.00    +0.000 C 
ATOM      7  S   UNL     1      -1.203  13.993  22.988  0.00  0.00    +0.000 S 
ATOM      8  O   UNL     1      -0.869  15.253  23.629  0.00  0.00    +0.000 OA
ATOM      9  O   UNL     1      -0.662  12.761  23.540  0.00  0.00    +0.000 OA
ENDROOT
BRANCH   2  10
ATOM     10  C   UNL     1      -5.016  12.906  22.009  0.00  0.00    +0.000 A 
ATOM     11  C   UNL     1      -6.047  13.447  21.266  0.00  0.00    +0.000 A 
ATOM     12  C   UNL     1      -7.244  13.168  21.967  0.00  0.00    +0.000 A 
ATOM     13  C   UNL     1      -6.876  12.444  23.074  0.00  0.00    +0.000 A 
ATOM     14  O   UNL     1      -5.529  12.279  23.109  0.00  0.00    +0.000 OA
ENDBRANCH   2  10
BRANCH   5  15
ATOM     15  C   UNL     1      -0.929  11.730  20.519  0.00  0.00    +0.000 A 
ATOM     16  C   UNL     1      -0.913  10.721  21.464  0.00  0.00    +0.000 A 
ATOM     17  C   UNL     1      -0.107   9.681  20.950  0.00  0.00    +0.000 A 
ATOM     18  C   UNL     1       0.294  10.095  19.705  0.00  0.00    +0.000 A 
ATOM     19  O   UNL     1      -0.203  11.327  19.429  0.00  0.00    +0.000 OA
ENDBRANCH   5  15
BRANCH   1  20
ATOM     20  C   UNL     1      -3.585  15.155  23.145  0.00  0.00    +0.000 C 
ATOM     21  O   UNL     1      -3.508  16.011  22.272  0.00  0.00    +0.000 OA
BRANCH  20  22
ATOM     22  O   UNL     1      -4.237  15.323  24.328  0.00  0.00    +0.000 OA
BRANCH  22  24
ATOM     23  C   UNL     1      -4.963  17.506  25.130  0.00  0.00    +0.000 C 
ATOM     24  C   UNL     1      -3.843  16.483  25.082  0.00  0.00    +0.000 C 
ENDBRANCH  22  24
ENDBRANCH  20  22
ENDBRANCH   1  20
BRANCH   6  25
ATOM     25  C   UNL     1       0.693  14.195  21.046  0.00  0.00    +0.000 C 
ATOM     26  O   UNL     1       1.497  13.591  21.750  0.00  0.00    +0.000 OA
BRANCH  25  27
ATOM     27  C   UNL     1       1.246  14.924  19.856  0.00  0.00    +0.000 A 
ATOM     28  C   UNL     1       2.346  14.468  19.119  0.00  0.00    +0.000 A 
ATOM     29  C   UNL     1       2.843  15.230  18.052  0.00  0.00    +0.000 A 
ATOM     30  C   UNL     1       2.237  16.438  17.710  0.00  0.00    +0.000 A 
ATOM     31 CL   UNL     1       2.880  17.385  16.427  0.00  0.00    +0.000 Cl
ATOM     32  C   UNL     1       1.117  16.881  18.407  0.00  0.00    +0.000 A 
ATOM     33  C   UNL     1       0.622  16.124  19.473  0.00  0.00    +0.000 A 
ENDBRANCH  25  27
ENDBRANCH   6  25
TORSDOF 7
ENDMDL
