MODEL 1
REMARK VINA RESULT:      -7.9      0.000      0.000
REMARK  Name = 
REMARK  5 active torsions:
REMARK  status: ('A' for Active; 'I' for Inactive)
REMARK    1  A    between atoms: C_1  and  O_2
REMARK    2  A    between atoms: O_2  and  C_3
REMARK    3  A    between atoms: C_5  and  C_6
REMARK    4  A    between atoms: N_10  and  C_11
REMARK    5  A    between atoms: C_25  and  O_26
REMARK                            x       y       z     vdW  Elec       q    Type
REMARK                         _______ _______ _______ _____ _____    ______ ____
ROOT
ATOM      1  C   UNL     1       1.228   6.226  21.025  0.00  0.00    +0.000 C 
ATOM      2  C   UNL     1       2.050   5.324  20.474  0.00  0.00    +0.000 C 
ATOM      3  S   UNL     1       3.208   5.591  19.229  0.00  0.00    +0.000 S 
ATOM      4  C   UNL     1       4.036   4.083  19.557  0.00  0.00    +0.000 C 
ATOM      5  N   UNL     1       5.189   3.629  19.196  0.00  0.00    +0.000 NA
ATOM      6  N   UNL     1       3.230   3.316  20.348  0.00  0.00    +0.000 N 
ATOM      7  C   UNL     1       2.151   3.914  20.938  0.00  0.00    +0.000 C 
ATOM      8  O   UNL     1       1.414   3.384  21.756  0.00  0.00    +0.000 OA
ATOM      9  H   UNL     1       3.518   2.394  20.635  0.00  0.00    +0.000 HD
ENDROOT
BRANCH   5  10
ATOM     10  C   UNL     1       6.031   4.511  18.490  0.00  0.00    +0.000 A 
ATOM     11  N   UNL     1       6.869   5.312  19.138  0.00  0.00    +0.000 NA
ATOM     12  S   UNL     1       7.636   6.269  18.038  0.00  0.00    +0.000 S 
ATOM     13  C   UNL     1       7.031   5.472  16.643  0.00  0.00    +0.000 A 
ATOM     14  C   UNL     1       7.326   5.716  15.292  0.00  0.00    +0.000 A 
ATOM     15  C   UNL     1       6.765   4.873  14.332  0.00  0.00    +0.000 A 
ATOM     16  C   UNL     1       5.919   3.834  14.710  0.00  0.00    +0.000 A 
ATOM     17  C   UNL     1       5.592   3.631  16.056  0.00  0.00    +0.000 A 
ATOM     18  C   UNL     1       6.155   4.462  17.058  0.00  0.00    +0.000 A 
ENDBRANCH   5  10
BRANCH   1  21
ATOM     19  C   UNL     1       0.784   9.987  21.181  0.00  0.00    +0.000 A 
ATOM     20  C   UNL     1       0.791   8.628  21.540  0.00  0.00    +0.000 A 
ATOM     21  C   UNL     1       1.173   7.636  20.626  0.00  0.00    +0.000 A 
ATOM     22  C   UNL     1       1.549   8.008  19.335  0.00  0.00    +0.000 A 
ATOM     23  C   UNL     1       1.550   9.353  18.965  0.00  0.00    +0.000 A 
ATOM     24  C   UNL     1       1.172  10.340  19.884  0.00  0.00    +0.000 A 
BRANCH  19  26
ATOM     25  C   UNL     1      -0.694  10.391  23.023  0.00  0.00    +0.000 C 
ATOM     26  O   UNL     1       0.388  10.810  22.202  0.00  0.00    +0.000 OA
ENDBRANCH  19  26
BRANCH  24  27
ATOM     27  O   UNL     1       1.201  11.644  19.471  0.00  0.00    +0.000 OA
ATOM     28  H   UNL     1       1.747  11.715  18.673  0.00  0.00    +0.000 HD
ENDBRANCH  24  27
ENDBRANCH   1  21
TORSDOF 4
ENDMDL
MODEL 2
REMARK VINA RESULT:      -7.9      3.220      7.552
REMARK  Name = 
REMARK  5 active torsions:
REMARK  status: ('A' for Active; 'I' for Inactive)
REMARK    1  A    between atoms: C_1  and  O_2
REMARK    2  A    between atoms: O_2  and  C_3
REMARK    3  A    between atoms: C_5  and  C_6
REMARK    4  A    between atoms: N_10  and  C_11
REMARK    5  A    between atoms: C_25  and  O_26
REMARK                            x       y       z     vdW  Elec       q    Type
REMARK                         _______ _______ _______ _____ _____    ______ ____
ROOT
ATOM      1  C   UNL     1       4.509   3.566  18.430  0.00  0.00    +0.000 C 
ATOM      2  C   UNL     1       3.811   4.315  19.294  0.00  0.00    +0.000 C 
ATOM      3  S   UNL     1       3.639   6.027  19.288  0.00  0.00    +0.000 S 
ATOM      4  C   UNL     1       2.265   5.979  20.373  0.00  0.00    +0.000 C 
ATOM      5  N   UNL     1       1.381   6.864  20.694  0.00  0.00    +0.000 NA
ATOM      6  N   UNL     1       2.206   4.736  20.932  0.00  0.00    +0.000 N 
ATOM      7  C   UNL     1       2.970   3.746  20.381  0.00  0.00    +0.000 C 
ATOM      8  O   UNL     1       2.931   2.567  20.702  0.00  0.00    +0.000 OA
ATOM      9  H   UNL     1       1.491   4.509  21.606  0.00  0.00    +0.000 HD
ENDROOT
BRANCH   5  10
ATOM     10  C   UNL     1       1.414   8.084  19.991  0.00  0.00    +0.000 A 
ATOM     11  N   UNL     1       1.837   8.131  18.733  0.00  0.00    +0.000 NA
ATOM     12  S   UNL     1       1.834   9.702  18.236  0.00  0.00    +0.000 S 
ATOM     13  C   UNL     1       1.044  10.335  19.623  0.00  0.00    +0.000 A 
ATOM     14  C   UNL     1       0.633  11.653  19.878  0.00  0.00    +0.000 A 
ATOM     15  C   UNL     1      -0.069  11.908  21.056  0.00  0.00    +0.000 A 
ATOM     16  C   UNL     1      -0.333  10.883  21.959  0.00  0.00    +0.000 A 
ATOM     17  C   UNL     1       0.124   9.582  21.719  0.00  0.00    +0.000 A 
ATOM     18  C   UNL     1       0.831   9.286  20.525  0.00  0.00    +0.000 A 
ENDBRANCH   5  10
BRANCH   1  21
ATOM     19  C   UNL     1       6.973   5.656  16.449  0.00  0.00    +0.000 A 
ATOM     20  C   UNL     1       6.192   5.160  17.507  0.00  0.00    +0.000 A 
ATOM     21  C   UNL     1       5.281   4.112  17.310  0.00  0.00    +0.000 A 
ATOM     22  C   UNL     1       5.147   3.557  16.037  0.00  0.00    +0.000 A 
ATOM     23  C   UNL     1       5.917   4.037  14.978  0.00  0.00    +0.000 A 
ATOM     24  C   UNL     1       6.829   5.080  15.182  0.00  0.00    +0.000 A 
BRANCH  19  26
ATOM     25  C   UNL     1       7.833   7.048  18.200  0.00  0.00    +0.000 C 
ATOM     26  O   UNL     1       7.807   6.674  16.829  0.00  0.00    +0.000 OA
ENDBRANCH  19  26
BRANCH  24  27
ATOM     27  O   UNL     1       7.566   5.506  14.111  0.00  0.00    +0.000 OA
ATOM     28  H   UNL     1       8.276   4.868  13.937  0.00  0.00    +0.000 HD
ENDBRANCH  24  27
ENDBRANCH   1  21
TORSDOF 4
ENDMDL
MODEL 3
REMARK VINA RESULT:      -7.7      3.194      7.817
REMARK  Name = 
REMARK  5 active torsions:
REMARK  status: ('A' for Active; 'I' for Inactive)
REMARK    1  A    between atoms: C_1  and  O_2
REMARK    2  A    between atoms: O_2  and  C_3
REMARK    3  A    between atoms: C_5  and  C_6
REMARK    4  A    between atoms: N_10  and  C_11
REMARK    5  A    between atoms: C_25  and  O_26
REMARK                            x       y       z     vdW  Elec       q    Type
REMARK                         _______ _______ _______ _____ _____    ______ ____
ROOT
ATOM      1  C   UNL     1       4.463   3.508  18.686  0.00  0.00    +0.000 C 
ATOM      2  C   UNL     1       3.719   4.300  19.470  0.00  0.00    +0.000 C 
ATOM      3  S   UNL     1       3.600   6.015  19.407  0.00  0.00    +0.000 S 
ATOM      4  C   UNL     1       2.140   6.036  20.374  0.00  0.00    +0.000 C 
ATOM      5  N   UNL     1       1.260   6.954  20.598  0.00  0.00    +0.000 NA
ATOM      6  N   UNL     1       1.996   4.810  20.956  0.00  0.00    +0.000 N 
ATOM      7  C   UNL     1       2.773   3.784  20.496  0.00  0.00    +0.000 C 
ATOM      8  O   UNL     1       2.671   2.616  20.841  0.00  0.00    +0.000 OA
ATOM      9  H   UNL     1       1.221   4.622  21.574  0.00  0.00    +0.000 HD
ENDROOT
BRANCH   5  10
ATOM     10  C   UNL     1       1.388   8.153  19.871  0.00  0.00    +0.000 A 
ATOM     11  N   UNL     1       1.816   8.142  18.614  0.00  0.00    +0.000 NA
ATOM     12  S   UNL     1       1.936   9.698  18.085  0.00  0.00    +0.000 S 
ATOM     13  C   UNL     1       1.195  10.418  19.457  0.00  0.00    +0.000 A 
ATOM     14  C   UNL     1       0.888  11.769  19.684  0.00  0.00    +0.000 A 
ATOM     15  C   UNL     1       0.205  12.102  20.854  0.00  0.00    +0.000 A 
ATOM     16  C   UNL     1      -0.139  11.119  21.777  0.00  0.00    +0.000 A 
ATOM     17  C   UNL     1       0.217   9.782  21.564  0.00  0.00    +0.000 A 
ATOM     18  C   UNL     1       0.900   9.408  20.379  0.00  0.00    +0.000 A 
ENDBRANCH   5  10
BRANCH   1  21
ATOM     19  C   UNL     1       5.766   4.448  15.254  0.00  0.00    +0.000 A 
ATOM     20  C   UNL     1       4.953   3.931  16.277  0.00  0.00    +0.000 A 
ATOM     21  C   UNL     1       5.342   4.002  17.621  0.00  0.00    +0.000 A 
ATOM     22  C   UNL     1       6.563   4.593  17.946  0.00  0.00    +0.000 A 
ATOM     23  C   UNL     1       7.380   5.113  16.942  0.00  0.00    +0.000 A 
ATOM     24  C   UNL     1       6.983   5.044  15.601  0.00  0.00    +0.000 A 
BRANCH  19  26
ATOM     25  C   UNL     1       5.951   3.547  13.041  0.00  0.00    +0.000 C 
ATOM     26  O   UNL     1       5.222   4.293  14.006  0.00  0.00    +0.000 OA
ENDBRANCH  19  26
BRANCH  24  27
ATOM     27  O   UNL     1       7.818   5.577  14.658  0.00  0.00    +0.000 OA
ATOM     28  H   UNL     1       7.742   6.544  14.674  0.00  0.00    +0.000 HD
ENDBRANCH  24  27
ENDBRANCH   1  21
TORSDOF 4
ENDMDL
MODEL 4
REMARK VINA RESULT:      -7.6      7.774     10.576
REMARK  Name = 
REMARK  5 active torsions:
REMARK  status: ('A' for Active; 'I' for Inactive)
REMARK    1  A    between atoms: C_1  and  O_2
REMARK    2  A    between atoms: O_2  and  C_3
REMARK    3  A    between atoms: C_5  and  C_6
REMARK    4  A    between atoms: N_10  and  C_11
REMARK    5  A    between atoms: C_25  and  O_26
REMARK                            x       y       z     vdW  Elec       q    Type
REMARK                         _______ _______ _______ _____ _____    ______ ____
ROOT
ATOM      1  C   UNL     1      -1.324  10.828  19.479  0.00  0.00    +0.000 C 
ATOM      2  C   UNL     1      -0.642  11.925  19.833  0.00  0.00    +0.000 C 
ATOM      3  S   UNL     1      -0.585  13.431  19.002  0.00  0.00    +0.000 S 
ATOM      4  C   UNL     1       0.070  14.271  20.392  0.00  0.00    +0.000 C 
ATOM      5  N   UNL     1       0.190  15.526  20.672  0.00  0.00    +0.000 NA
ATOM      6  N   UNL     1       0.509  13.339  21.287  0.00  0.00    +0.000 N 
ATOM      7  C   UNL     1       0.129  12.039  21.100  0.00  0.00    +0.000 C 
ATOM      8  O   UNL     1       0.349  11.123  21.879  0.00  0.00    +0.000 OA
ATOM      9  H   UNL     1       0.942  13.621  22.153  0.00  0.00    +0.000 HD
ENDROOT
BRANCH   5  10
ATOM     10  C   UNL     1      -0.396  16.439  19.773  0.00  0.00    +0.000 A 
ATOM     11  N   UNL     1      -1.594  16.958  20.017  0.00  0.00    +0.000 NA
ATOM     12  S   UNL     1      -2.024  17.909  18.743  0.00  0.00    +0.000 S 
ATOM     13  C   UNL     1      -0.512  17.833  17.934  0.00  0.00    +0.000 A 
ATOM     14  C   UNL     1      -0.107  18.486  16.758  0.00  0.00    +0.000 A 
ATOM     15  C   UNL     1       1.213  18.327  16.337  0.00  0.00    +0.000 A 
ATOM     16  C   UNL     1       2.094  17.524  17.055  0.00  0.00    +0.000 A 
ATOM     17  C   UNL     1       1.666  16.837  18.198  0.00  0.00    +0.000 A 
ATOM     18  C   UNL     1       0.334  16.986  18.660  0.00  0.00    +0.000 A 
ENDBRANCH   5  10
BRANCH   1  21
ATOM     19  C   UNL     1      -4.152  11.350  17.010  0.00  0.00    +0.000 A 
ATOM     20  C   UNL     1      -3.379  11.396  18.183  0.00  0.00    +0.000 A 
ATOM     21  C   UNL     1      -2.149  10.730  18.270  0.00  0.00    +0.000 A 
ATOM     22  C   UNL     1      -1.688  10.004  17.172  0.00  0.00    +0.000 A 
ATOM     23  C   UNL     1      -2.442   9.950  16.000  0.00  0.00    +0.000 A 
ATOM     24  C   UNL     1      -3.668  10.622  15.916  0.00  0.00    +0.000 A 
BRANCH  19  26
ATOM     25  C   UNL     1      -5.932  12.179  18.383  0.00  0.00    +0.000 C 
ATOM     26  O   UNL     1      -5.318  12.061  17.106  0.00  0.00    +0.000 OA
ENDBRANCH  19  26
BRANCH  24  27
ATOM     27  O   UNL     1      -4.362  10.545  14.740  0.00  0.00    +0.000 OA
ATOM     28  H   UNL     1      -5.296  10.751  14.906  0.00  0.00    +0.000 HD
ENDBRANCH  24  27
ENDBRANCH   1  21
TORSDOF 4
ENDMDL
MODEL 5
REMARK VINA RESULT:      -7.4      0.740      1.922
REMARK  Name = 
REMARK  5 active torsions:
REMARK  status: ('A' for Active; 'I' for Inactive)
REMARK    1  A    between atoms: C_1  and  O_2
REMARK    2  A    between atoms: O_2  and  C_3
REMARK    3  A    between atoms: C_5  and  C_6
REMARK    4  A    between atoms: N_10  and  C_11
REMARK    5  A    between atoms: C_25  and  O_26
REMARK                            x       y       z     vdW  Elec       q    Type
REMARK                         _______ _______ _______ _____ _____    ______ ____
ROOT
ATOM      1  C   UNL     1       1.269   6.060  21.191  0.00  0.00    +0.000 C 
ATOM      2  C   UNL     1       2.099   5.180  20.617  0.00  0.00    +0.000 C 
ATOM      3  S   UNL     1       3.224   5.481  19.350  0.00  0.00    +0.000 S 
ATOM      4  C   UNL     1       4.094   3.991  19.651  0.00  0.00    +0.000 C 
ATOM      5  N   UNL     1       5.249   3.566  19.262  0.00  0.00    +0.000 NA
ATOM      6  N   UNL     1       3.323   3.201  20.454  0.00  0.00    +0.000 N 
ATOM      7  C   UNL     1       2.244   3.770  21.070  0.00  0.00    +0.000 C 
ATOM      8  O   UNL     1       1.537   3.219  21.901  0.00  0.00    +0.000 OA
ATOM      9  H   UNL     1       3.639   2.284  20.729  0.00  0.00    +0.000 HD
ENDROOT
BRANCH   5  10
ATOM     10  C   UNL     1       6.054   4.471  18.544  0.00  0.00    +0.000 A 
ATOM     11  N   UNL     1       6.893   5.283  19.178  0.00  0.00    +0.000 NA
ATOM     12  S   UNL     1       7.612   6.266  18.068  0.00  0.00    +0.000 S 
ATOM     13  C   UNL     1       6.988   5.469  16.681  0.00  0.00    +0.000 A 
ATOM     14  C   UNL     1       7.243   5.731  15.325  0.00  0.00    +0.000 A 
ATOM     15  C   UNL     1       6.675   4.885  14.372  0.00  0.00    +0.000 A 
ATOM     16  C   UNL     1       5.860   3.826  14.762  0.00  0.00    +0.000 A 
ATOM     17  C   UNL     1       5.572   3.605  16.113  0.00  0.00    +0.000 A 
ATOM     18  C   UNL     1       6.144   4.438  17.108  0.00  0.00    +0.000 A 
ENDBRANCH   5  10
BRANCH   1  21
ATOM     19  C   UNL     1       1.501   9.244  19.149  0.00  0.00    +0.000 A 
ATOM     20  C   UNL     1       1.635   7.904  19.551  0.00  0.00    +0.000 A 
ATOM     21  C   UNL     1       1.173   7.471  20.802  0.00  0.00    +0.000 A 
ATOM     22  C   UNL     1       0.575   8.390  21.663  0.00  0.00    +0.000 A 
ATOM     23  C   UNL     1       0.432   9.723  21.277  0.00  0.00    +0.000 A 
ATOM     24  C   UNL     1       0.890  10.149  20.024  0.00  0.00    +0.000 A 
BRANCH  19  26
ATOM     25  C   UNL     1       2.917   8.541  17.348  0.00  0.00    +0.000 C 
ATOM     26  O   UNL     1       2.004   9.482  17.897  0.00  0.00    +0.000 OA
ENDBRANCH  19  26
BRANCH  24  27
ATOM     27  O   UNL     1       0.717  11.465  19.692  0.00  0.00    +0.000 OA
ATOM     28  H   UNL     1       1.445  11.748  19.118  0.00  0.00    +0.000 HD
ENDBRANCH  24  27
ENDBRANCH   1  21
TORSDOF 4
ENDMDL
MODEL 6
REMARK VINA RESULT:      -7.2      1.329      1.935
REMARK  Name = 
REMARK  5 active torsions:
REMARK  status: ('A' for Active; 'I' for Inactive)
REMARK    1  A    between atoms: C_1  and  O_2
REMARK    2  A    between atoms: O_2  and  C_3
REMARK    3  A    between atoms: C_5  and  C_6
REMARK    4  A    between atoms: N_10  and  C_11
REMARK    5  A    between atoms: C_25  and  O_26
REMARK                            x       y       z     vdW  Elec       q    Type
REMARK                         _______ _______ _______ _____ _____    ______ ____
ROOT
ATOM      1  C   UNL     1       1.432   6.111  21.207  0.00  0.00    +0.000 C 
ATOM      2  C   UNL     1       2.013   5.148  20.480  0.00  0.00    +0.000 C 
ATOM      3  S   UNL     1       2.719   5.302  18.918  0.00  0.00    +0.000 S 
ATOM      4  C   UNL     1       3.572   3.779  19.059  0.00  0.00    +0.000 C 
ATOM      5  N   UNL     1       4.538   3.259  18.378  0.00  0.00    +0.000 NA
ATOM      6  N   UNL     1       3.043   3.089  20.110  0.00  0.00    +0.000 N 
ATOM      7  C   UNL     1       2.224   3.761  20.974  0.00  0.00    +0.000 C 
ATOM      8  O   UNL     1       1.775   3.304  22.015  0.00  0.00    +0.000 OA
ATOM      9  H   UNL     1       3.386   2.171  20.347  0.00  0.00    +0.000 HD
ENDROOT
BRANCH   5  10
ATOM     10  C   UNL     1       5.131   4.069  17.389  0.00  0.00    +0.000 A 
ATOM     11  N   UNL     1       4.701   4.029  16.133  0.00  0.00    +0.000 NA
ATOM     12  S   UNL     1       5.652   5.018  15.221  0.00  0.00    +0.000 S 
ATOM     13  C   UNL     1       6.521   5.704  16.533  0.00  0.00    +0.000 A 
ATOM     14  C   UNL     1       7.495   6.715  16.512  0.00  0.00    +0.000 A 
ATOM     15  C   UNL     1       8.005   7.164  17.730  0.00  0.00    +0.000 A 
ATOM     16  C   UNL     1       7.570   6.606  18.929  0.00  0.00    +0.000 A 
ATOM     17  C   UNL     1       6.635   5.564  18.936  0.00  0.00    +0.000 A 
ATOM     18  C   UNL     1       6.088   5.092  17.715  0.00  0.00    +0.000 A 
ENDBRANCH   5  10
BRANCH   1  21
ATOM     19  C   UNL     1       0.789   9.846  21.245  0.00  0.00    +0.000 A 
ATOM     20  C   UNL     1       0.883   8.504  21.652  0.00  0.00    +0.000 A 
ATOM     21  C   UNL     1       1.286   7.500  20.760  0.00  0.00    +0.000 A 
ATOM     22  C   UNL     1       1.594   7.842  19.444  0.00  0.00    +0.000 A 
ATOM     23  C   UNL     1       1.508   9.171  19.026  0.00  0.00    +0.000 A 
ATOM     24  C   UNL     1       1.111  10.170  19.922  0.00  0.00    +0.000 A 
BRANCH  19  26
ATOM     25  C   UNL     1      -0.721  10.292  23.051  0.00  0.00    +0.000 C 
ATOM     26  O   UNL     1       0.385  10.685  22.250  0.00  0.00    +0.000 OA
ENDBRANCH  19  26
BRANCH  24  27
ATOM     27  O   UNL     1       1.053  11.457  19.463  0.00  0.00    +0.000 OA
ATOM     28  H   UNL     1       1.941  11.845  19.487  0.00  0.00    +0.000 HD
ENDBRANCH  24  27
ENDBRANCH   1  21
TORSDOF 4
ENDMDL
MODEL 7
REMARK VINA RESULT:      -7.2      8.343     11.987
REMARK  Name = 
REMARK  5 active torsions:
REMARK  status: ('A' for Active; 'I' for Inactive)
REMARK    1  A    between atoms: C_1  and  O_2
REMARK    2  A    between atoms: O_2  and  C_3
REMARK    3  A    between atoms: C_5  and  C_6
REMARK    4  A    between atoms: N_10  and  C_11
REMARK    5  A    between atoms: C_25  and  O_26
REMARK                            x       y       z     vdW  Elec       q    Type
REMARK                         _______ _______ _______ _____ _____    ______ ____
ROOT
ATOM      1  C   UNL     1      -1.739  11.414  17.697  0.00  0.00    +0.000 C 
ATOM      2  C   UNL     1      -3.077  11.407  17.761  0.00  0.00    +0.000 C 
ATOM      3  S   UNL     1      -4.066  12.060  19.008  0.00  0.00    +0.000 S 
ATOM      4  C   UNL     1      -5.504  12.020  18.009  0.00  0.00    +0.000 C 
ATOM      5  N   UNL     1      -6.664  12.571  18.134  0.00  0.00    +0.000 NA
ATOM      6  N   UNL     1      -5.247  11.234  16.923  0.00  0.00    +0.000 N 
ATOM      7  C   UNL     1      -3.948  10.891  16.670  0.00  0.00    +0.000 C 
ATOM      8  O   UNL     1      -3.559  10.293  15.677  0.00  0.00    +0.000 OA
ATOM      9  H   UNL     1      -5.959  11.065  16.230  0.00  0.00    +0.000 HD
ENDROOT
BRANCH   5  10
ATOM     10  C   UNL     1      -6.831  13.473  19.203  0.00  0.00    +0.000 A 
ATOM     11  N   UNL     1      -6.793  14.784  18.997  0.00  0.00    +0.000 NA
ATOM     12  S   UNL     1      -6.931  15.549  20.450  0.00  0.00    +0.000 S 
ATOM     13  C   UNL     1      -7.279  14.141  21.369  0.00  0.00    +0.000 A 
ATOM     14  C   UNL     1      -7.589  14.035  22.735  0.00  0.00    +0.000 A 
ATOM     15  C   UNL     1      -7.916  12.777  23.240  0.00  0.00    +0.000 A 
ATOM     16  C   UNL     1      -7.911  11.658  22.413  0.00  0.00    +0.000 A 
ATOM     17  C   UNL     1      -7.551  11.767  21.065  0.00  0.00    +0.000 A 
ATOM     18  C   UNL     1      -7.226  13.033  20.516  0.00  0.00    +0.000 A 
ENDBRANCH   5  10
BRANCH   1  21
ATOM     19  C   UNL     1       0.378  11.758  20.822  0.00  0.00    +0.000 A 
ATOM     20  C   UNL     1      -0.493  11.234  19.851  0.00  0.00    +0.000 A 
ATOM     21  C   UNL     1      -0.873  11.989  18.732  0.00  0.00    +0.000 A 
ATOM     22  C   UNL     1      -0.381  13.285  18.586  0.00  0.00    +0.000 A 
ATOM     23  C   UNL     1       0.486  13.819  19.540  0.00  0.00    +0.000 A 
ATOM     24  C   UNL     1       0.867  13.059  20.653  0.00  0.00    +0.000 A 
BRANCH  19  26
ATOM     25  C   UNL     1      -0.457  10.243  22.480  0.00  0.00    +0.000 C 
ATOM     26  O   UNL     1       0.640  10.879  21.839  0.00  0.00    +0.000 OA
ENDBRANCH  19  26
BRANCH  24  27
ATOM     27  O   UNL     1       1.726  13.627  21.553  0.00  0.00    +0.000 OA
ATOM     28  H   UNL     1       2.573  13.153  21.528  0.00  0.00    +0.000 HD
ENDBRANCH  24  27
ENDBRANCH   1  21
TORSDOF 4
ENDMDL
MODEL 8
REMARK VINA RESULT:      -7.1      4.832      8.911
REMARK  Name = 
REMARK  5 active torsions:
REMARK  status: ('A' for Active; 'I' for Inactive)
REMARK    1  A    between atoms: C_1  and  O_2
REMARK    2  A    between atoms: O_2  and  C_3
REMARK    3  A    between atoms: C_5  and  C_6
REMARK    4  A    between atoms: N_10  and  C_11
REMARK    5  A    between atoms: C_25  and  O_26
REMARK                            x       y       z     vdW  Elec       q    Type
REMARK                         _______ _______ _______ _____ _____    ______ ____
ROOT
ATOM      1  C   UNL     1       1.787   7.503  21.226  0.00  0.00    +0.000 C 
ATOM      2  C   UNL     1       1.221   8.701  21.030  0.00  0.00    +0.000 C 
ATOM      3  S   UNL     1       0.498   9.289  19.584  0.00  0.00    +0.000 S 
ATOM      4  C   UNL     1      -0.321  10.592  20.420  0.00  0.00    +0.000 C 
ATOM      5  N   UNL     1      -1.281  11.380  20.071  0.00  0.00    +0.000 NA
ATOM      6  N   UNL     1       0.232  10.717  21.662  0.00  0.00    +0.000 N 
ATOM      7  C   UNL     1       1.045   9.712  22.108  0.00  0.00    +0.000 C 
ATOM      8  O   UNL     1       1.513   9.634  23.234  0.00  0.00    +0.000 OA
ATOM      9  H   UNL     1      -0.088  11.430  22.298  0.00  0.00    +0.000 HD
ENDROOT
BRANCH   5  10
ATOM     10  C   UNL     1      -1.900  11.123  18.832  0.00  0.00    +0.000 A 
ATOM     11  N   UNL     1      -1.317  10.340  17.932  0.00  0.00    +0.000 NA
ATOM     12  S   UNL     1      -2.249  10.315  16.573  0.00  0.00    +0.000 S 
ATOM     13  C   UNL     1      -3.577  11.172  17.243  0.00  0.00    +0.000 A 
ATOM     14  C   UNL     1      -4.814  11.479  16.654  0.00  0.00    +0.000 A 
ATOM     15  C   UNL     1      -5.775  12.121  17.436  0.00  0.00    +0.000 A 
ATOM     16  C   UNL     1      -5.499  12.465  18.756  0.00  0.00    +0.000 A 
ATOM     17  C   UNL     1      -4.245  12.199  19.317  0.00  0.00    +0.000 A 
ATOM     18  C   UNL     1      -3.250  11.536  18.554  0.00  0.00    +0.000 A 
ENDBRANCH   5  10
BRANCH   1  21
ATOM     19  C   UNL     1       1.540   4.171  19.437  0.00  0.00    +0.000 A 
ATOM     20  C   UNL     1       1.484   5.155  20.439  0.00  0.00    +0.000 A 
ATOM     21  C   UNL     1       1.899   6.471  20.190  0.00  0.00    +0.000 A 
ATOM     22  C   UNL     1       2.381   6.805  18.925  0.00  0.00    +0.000 A 
ATOM     23  C   UNL     1       2.441   5.840  17.919  0.00  0.00    +0.000 A 
ATOM     24  C   UNL     1       2.019   4.529  18.172  0.00  0.00    +0.000 A 
BRANCH  19  26
ATOM     25  C   UNL     1       1.370   2.552  21.195  0.00  0.00    +0.000 C 
ATOM     26  O   UNL     1       1.091   2.948  19.860  0.00  0.00    +0.000 OA
ENDBRANCH  19  26
BRANCH  24  27
ATOM     27  O   UNL     1       2.090   3.625  17.148  0.00  0.00    +0.000 OA
ATOM     28  H   UNL     1       2.534   2.821  17.461  0.00  0.00    +0.000 HD
ENDBRANCH  24  27
ENDBRANCH   1  21
TORSDOF 4
ENDMDL
MODEL 9
REMARK VINA RESULT:      -7.1      8.201     11.774
REMARK  Name = 
REMARK  5 active torsions:
REMARK  status: ('A' for Active; 'I' for Inactive)
REMARK    1  A    between atoms: C_1  and  O_2
REMARK    2  A    between atoms: O_2  and  C_3
REMARK    3  A    between atoms: C_5  and  C_6
REMARK    4  A    between atoms: N_10  and  C_11
REMARK    5  A    between atoms: C_25  and  O_26
REMARK                            x       y       z     vdW  Elec       q    Type
REMARK                         _______ _______ _______ _____ _____    ______ ____
ROOT
ATOM      1  C   UNL     1      -1.450  12.800  23.501  0.00  0.00    +0.000 C 
ATOM      2  C   UNL     1      -2.672  13.286  23.251  0.00  0.00    +0.000 C 
ATOM      3  S   UNL     1      -3.721  12.857  21.956  0.00  0.00    +0.000 S 
ATOM      4  C   UNL     1      -5.117  13.572  22.734  0.00  0.00    +0.000 C 
ATOM      5  N   UNL     1      -6.384  13.471  22.508  0.00  0.00    +0.000 NA
ATOM      6  N   UNL     1      -4.678  14.365  23.754  0.00  0.00    +0.000 N 
ATOM      7  C   UNL     1      -3.374  14.245  24.147  0.00  0.00    +0.000 C 
ATOM      8  O   UNL     1      -2.877  14.803  25.114  0.00  0.00    +0.000 OA
ATOM      9  H   UNL     1      -5.331  14.887  24.318  0.00  0.00    +0.000 HD
ENDROOT
BRANCH   5  10
ATOM     10  C   UNL     1      -6.786  12.541  21.530  0.00  0.00    +0.000 A 
ATOM     11  N   UNL     1      -7.329  11.380  21.880  0.00  0.00    +0.000 NA
ATOM     12  S   UNL     1      -7.602  10.495  20.517  0.00  0.00    +0.000 S 
ATOM     13  C   UNL     1      -7.212  11.743  19.403  0.00  0.00    +0.000 A 
ATOM     14  C   UNL     1      -7.283  11.726  18.001  0.00  0.00    +0.000 A 
ATOM     15  C   UNL     1      -6.986  12.902  17.312  0.00  0.00    +0.000 A 
ATOM     16  C   UNL     1      -6.609  14.051  18.001  0.00  0.00    +0.000 A 
ATOM     17  C   UNL     1      -6.493  14.042  19.396  0.00  0.00    +0.000 A 
ATOM     18  C   UNL     1      -6.799  12.867  20.128  0.00  0.00    +0.000 A 
ENDBRANCH   5  10
BRANCH   1  21
ATOM     19  C   UNL     1       0.671  11.235  20.778  0.00  0.00    +0.000 A 
ATOM     20  C   UNL     1      -0.016  12.183  21.554  0.00  0.00    +0.000 A 
ATOM     21  C   UNL     1      -0.779  11.798  22.666  0.00  0.00    +0.000 A 
ATOM     22  C   UNL     1      -0.860  10.447  23.001  0.00  0.00    +0.000 A 
ATOM     23  C   UNL     1      -0.182   9.494  22.242  0.00  0.00    +0.000 A 
ATOM     24  C   UNL     1       0.584   9.885  21.136  0.00  0.00    +0.000 A 
BRANCH  19  26
ATOM     25  C   UNL     1       1.380  13.210  19.622  0.00  0.00    +0.000 C 
ATOM     26  O   UNL     1       1.366  11.794  19.738  0.00  0.00    +0.000 OA
ENDBRANCH  19  26
BRANCH  24  27
ATOM     27  O   UNL     1       1.236   8.911  20.432  0.00  0.00    +0.000 OA
ATOM     28  H   UNL     1       0.663   8.596  19.715  0.00  0.00    +0.000 HD
ENDBRANCH  24  27
ENDBRANCH   1  21
TORSDOF 4
ENDMDL
