MODEL 1
REMARK VINA RESULT:      -7.7      0.000      0.000
REMARK  Name = 
REMARK  7 active torsions:
REMARK  status: ('A' for Active; 'I' for Inactive)
REMARK    1  A    between atoms: C_1  and  O_2
REMARK    2  A    between atoms: O_2  and  C_3
REMARK    3  A    between atoms: C_8  and  C_9
REMARK    4  A    between atoms: C_9  and  C_11
REMARK    5  A    between atoms: C_17  and  C_18
REMARK    6  A    between atoms: C_18  and  O_20
REMARK    7  A    between atoms: C_23  and  N_24
REMARK                            x       y       z     vdW  Elec       q    Type
REMARK                         _______ _______ _______ _____ _____    ______ ____
ROOT
ATOM      1  C   UNL     1       3.096   6.028  18.715  0.00  0.00    +0.000 A 
ATOM      2  S   UNL     1       2.855   7.425  17.781  0.00  0.00    +0.000 S 
ATOM      3  C   UNL     1       2.037   8.268  18.977  0.00  0.00    +0.000 A 
ATOM      4  N   UNL     1       1.500   9.508  18.876  0.00  0.00    +0.000 N 
ATOM      5  C   UNL     1       0.839  10.061  19.950  0.00  0.00    +0.000 A 
ATOM      6  O   UNL     1       0.355  11.173  19.832  0.00  0.00    +0.000 OA
ATOM      7  C   UNL     1       0.724   9.341  21.177  0.00  0.00    +0.000 A 
ATOM      8  C   UNL     1       1.296   8.048  21.246  0.00  0.00    +0.000 A 
ATOM      9  C   UNL     1       1.945   7.515  20.126  0.00  0.00    +0.000 A 
ATOM     10  C   UNL     1       2.535   6.240  19.992  0.00  0.00    +0.000 A 
ATOM     11  H   UNL     1       1.583  10.037  17.978  0.00  0.00    +0.000 HD
ENDROOT
BRANCH  10  12
ATOM     12  N   UNL     1       2.561   5.280  21.040  0.00  0.00    +0.000 N 
ATOM     13  H   UNL     1       2.926   5.514  21.972  0.00  0.00    +0.000 HD
ATOM     14  H   UNL     1       2.271   4.306  20.888  0.00  0.00    +0.000 HD
ENDBRANCH  10  12
BRANCH   1  15
ATOM     15  C   UNL     1       3.675   4.755  18.195  0.00  0.00    +0.000 C 
ATOM     16  O   UNL     1       3.092   3.719  18.477  0.00  0.00    +0.000 OA
BRANCH  15  22
ATOM     17  C   UNL     1       6.198   4.726  17.723  0.00  0.00    +0.000 A 
ATOM     18  C   UNL     1       7.246   4.586  16.782  0.00  0.00    +0.000 A 
ATOM     19  C   UNL     1       6.969   4.374  15.433  0.00  0.00    +0.000 A 
ATOM     20  C   UNL     1       5.651   4.293  14.995  0.00  0.00    +0.000 A 
ATOM     21  C   UNL     1       4.604   4.425  15.906  0.00  0.00    +0.000 A 
ATOM     22  C   UNL     1       4.852   4.658  17.275  0.00  0.00    +0.000 A 
BRANCH  17  24
ATOM     23  C   UNL     1       7.478   5.639  19.586  0.00  0.00    +0.000 C 
ATOM     24  O   UNL     1       6.464   4.872  19.047  0.00  0.00    +0.000 OA
ENDBRANCH  17  24
ENDBRANCH  15  22
ENDBRANCH   1  15
BRANCH   7  25
ATOM     25  C   UNL     1       0.005   9.932  22.361  0.00  0.00    +0.000 C 
ATOM     26  O   UNL     1       0.427   9.729  23.489  0.00  0.00    +0.000 OA
BRANCH  25  27
ATOM     27  O   UNL     1      -1.108  10.691  22.238  0.00  0.00    +0.000 OA
ATOM     28  H   UNL     1      -1.810  10.544  21.595  0.00  0.00    +0.000 HD
ENDBRANCH  25  27
ENDBRANCH   7  25
TORSDOF 6
ENDMDL
MODEL 2
REMARK VINA RESULT:      -7.7      3.802      8.230
REMARK  Name = 
REMARK  7 active torsions:
REMARK  status: ('A' for Active; 'I' for Inactive)
REMARK    1  A    between atoms: C_1  and  O_2
REMARK    2  A    between atoms: O_2  and  C_3
REMARK    3  A    between atoms: C_8  and  C_9
REMARK    4  A    between atoms: C_9  and  C_11
REMARK    5  A    between atoms: C_17  and  C_18
REMARK    6  A    between atoms: C_18  and  O_20
REMARK    7  A    between atoms: C_23  and  N_24
REMARK                            x       y       z     vdW  Elec       q    Type
REMARK                         _______ _______ _______ _____ _____    ______ ____
ROOT
ATOM      1  C   UNL     1       5.612   4.808  17.843  0.00  0.00    +0.000 A 
ATOM      2  S   UNL     1       6.739   5.861  17.133  0.00  0.00    +0.000 S 
ATOM      3  C   UNL     1       6.666   5.157  15.613  0.00  0.00    +0.000 A 
ATOM      4  N   UNL     1       7.386   5.508  14.520  0.00  0.00    +0.000 N 
ATOM      5  C   UNL     1       7.225   4.817  13.340  0.00  0.00    +0.000 A 
ATOM      6  O   UNL     1       7.891   5.143  12.373  0.00  0.00    +0.000 OA
ATOM      7  C   UNL     1       6.294   3.737  13.254  0.00  0.00    +0.000 A 
ATOM      8  C   UNL     1       5.561   3.398  14.418  0.00  0.00    +0.000 A 
ATOM      9  C   UNL     1       5.767   4.115  15.602  0.00  0.00    +0.000 A 
ATOM     10  C   UNL     1       5.165   3.900  16.860  0.00  0.00    +0.000 A 
ATOM     11  H   UNL     1       8.068   6.298  14.579  0.00  0.00    +0.000 HD
ENDROOT
BRANCH  10  12
ATOM     12  N   UNL     1       4.207   2.878  17.100  0.00  0.00    +0.000 N 
ATOM     13  H   UNL     1       3.788   2.344  16.329  0.00  0.00    +0.000 HD
ATOM     14  H   UNL     1       3.858   2.676  18.045  0.00  0.00    +0.000 HD
ENDBRANCH  10  12
BRANCH   1  15
ATOM     15  C   UNL     1       5.285   4.780  19.298  0.00  0.00    +0.000 C 
ATOM     16  O   UNL     1       6.172   5.093  20.078  0.00  0.00    +0.000 OA
BRANCH  15  22
ATOM     17  C   UNL     1       2.885   5.457  19.909  0.00  0.00    +0.000 A 
ATOM     18  C   UNL     1       1.625   5.083  20.434  0.00  0.00    +0.000 A 
ATOM     19  C   UNL     1       1.401   3.789  20.899  0.00  0.00    +0.000 A 
ATOM     20  C   UNL     1       2.420   2.843  20.847  0.00  0.00    +0.000 A 
ATOM     21  C   UNL     1       3.668   3.189  20.331  0.00  0.00    +0.000 A 
ATOM     22  C   UNL     1       3.931   4.496  19.869  0.00  0.00    +0.000 A 
BRANCH  17  24
ATOM     23  C   UNL     1       2.625   7.158  18.182  0.00  0.00    +0.000 C 
ATOM     24  O   UNL     1       3.088   6.700  19.399  0.00  0.00    +0.000 OA
ENDBRANCH  17  24
ENDBRANCH  15  22
ENDBRANCH   1  15
BRANCH   7  25
ATOM     25  C   UNL     1       6.106   2.972  11.972  0.00  0.00    +0.000 C 
ATOM     26  O   UNL     1       5.029   3.009  11.397  0.00  0.00    +0.000 OA
BRANCH  25  27
ATOM     27  O   UNL     1       7.087   2.228  11.411  0.00  0.00    +0.000 OA
ATOM     28  H   UNL     1       7.896   1.952  11.857  0.00  0.00    +0.000 HD
ENDBRANCH  25  27
ENDBRANCH   7  25
TORSDOF 6
ENDMDL
MODEL 3
REMARK VINA RESULT:      -7.6      0.999      1.209
REMARK  Name = 
REMARK  7 active torsions:
REMARK  status: ('A' for Active; 'I' for Inactive)
REMARK    1  A    between atoms: C_1  and  O_2
REMARK    2  A    between atoms: O_2  and  C_3
REMARK    3  A    between atoms: C_8  and  C_9
REMARK    4  A    between atoms: C_9  and  C_11
REMARK    5  A    between atoms: C_17  and  C_18
REMARK    6  A    between atoms: C_18  and  O_20
REMARK    7  A    between atoms: C_23  and  N_24
REMARK                            x       y       z     vdW  Elec       q    Type
REMARK                         _______ _______ _______ _____ _____    ______ ____
ROOT
ATOM      1  C   UNL     1       2.676   6.638  18.579  0.00  0.00    +0.000 A 
ATOM      2  S   UNL     1       2.374   8.126  17.818  0.00  0.00    +0.000 S 
ATOM      3  C   UNL     1       1.683   8.847  19.164  0.00  0.00    +0.000 A 
ATOM      4  N   UNL     1       1.161  10.095  19.239  0.00  0.00    +0.000 N 
ATOM      5  C   UNL     1       0.609  10.540  20.420  0.00  0.00    +0.000 A 
ATOM      6  O   UNL     1       0.136  11.662  20.461  0.00  0.00    +0.000 OA
ATOM      7  C   UNL     1       0.594   9.699  21.574  0.00  0.00    +0.000 A 
ATOM      8  C   UNL     1       1.148   8.401  21.457  0.00  0.00    +0.000 A 
ATOM      9  C   UNL     1       1.683   7.981  20.234  0.00  0.00    +0.000 A 
ATOM     10  C   UNL     1       2.236   6.722  19.918  0.00  0.00    +0.000 A 
ATOM     11  H   UNL     1       1.170  10.713  18.396  0.00  0.00    +0.000 HD
ENDROOT
BRANCH  10  12
ATOM     12  N   UNL     1       2.341   5.659  20.855  0.00  0.00    +0.000 N 
ATOM     13  H   UNL     1       2.157   5.807  21.856  0.00  0.00    +0.000 HD
ATOM     14  H   UNL     1       2.658   4.722  20.577  0.00  0.00    +0.000 HD
ENDBRANCH  10  12
BRANCH   1  15
ATOM     15  C   UNL     1       3.182   5.421  17.881  0.00  0.00    +0.000 C 
ATOM     16  O   UNL     1       2.365   4.560  17.591  0.00  0.00    +0.000 OA
BRANCH  15  22
ATOM     17  C   UNL     1       5.576   4.550  18.197  0.00  0.00    +0.000 A 
ATOM     18  C   UNL     1       6.875   4.373  17.661  0.00  0.00    +0.000 A 
ATOM     19  C   UNL     1       7.188   4.836  16.385  0.00  0.00    +0.000 A 
ATOM     20  C   UNL     1       6.221   5.477  15.618  0.00  0.00    +0.000 A 
ATOM     21  C   UNL     1       4.936   5.659  16.126  0.00  0.00    +0.000 A 
ATOM     22  C   UNL     1       4.592   5.218  17.421  0.00  0.00    +0.000 A 
BRANCH  17  24
ATOM     23  C   UNL     1       4.589   2.856  19.647  0.00  0.00    +0.000 C 
ATOM     24  O   UNL     1       5.250   4.046  19.416  0.00  0.00    +0.000 OA
ENDBRANCH  17  24
ENDBRANCH  15  22
ENDBRANCH   1  15
BRANCH   7  25
ATOM     25  C   UNL     1      -0.004  10.170  22.872  0.00  0.00    +0.000 C 
ATOM     26  O   UNL     1       0.030   9.444  23.853  0.00  0.00    +0.000 OA
BRANCH  25  27
ATOM     27  O   UNL     1      -0.591  11.381  23.012  0.00  0.00    +0.000 OA
ATOM     28  H   UNL     1      -0.831  11.787  23.852  0.00  0.00    +0.000 HD
ENDBRANCH  25  27
ENDBRANCH   7  25
TORSDOF 6
ENDMDL
MODEL 4
REMARK VINA RESULT:      -7.6      4.165      8.288
REMARK  Name = 
REMARK  7 active torsions:
REMARK  status: ('A' for Active; 'I' for Inactive)
REMARK    1  A    between atoms: C_1  and  O_2
REMARK    2  A    between atoms: O_2  and  C_3
REMARK    3  A    between atoms: C_8  and  C_9
REMARK    4  A    between atoms: C_9  and  C_11
REMARK    5  A    between atoms: C_17  and  C_18
REMARK    6  A    between atoms: C_18  and  O_20
REMARK    7  A    between atoms: C_23  and  N_24
REMARK                            x       y       z     vdW  Elec       q    Type
REMARK                         _______ _______ _______ _____ _____    ______ ____
ROOT
ATOM      1  C   UNL     1       5.587   4.878  17.676  0.00  0.00    +0.000 A 
ATOM      2  S   UNL     1       6.711   5.924  16.953  0.00  0.00    +0.000 S 
ATOM      3  C   UNL     1       6.677   5.171  15.455  0.00  0.00    +0.000 A 
ATOM      4  N   UNL     1       7.412   5.498  14.365  0.00  0.00    +0.000 N 
ATOM      5  C   UNL     1       7.283   4.767  13.205  0.00  0.00    +0.000 A 
ATOM      6  O   UNL     1       7.962   5.072  12.240  0.00  0.00    +0.000 OA
ATOM      7  C   UNL     1       6.370   3.671  13.138  0.00  0.00    +0.000 A 
ATOM      8  C   UNL     1       5.620   3.359  14.298  0.00  0.00    +0.000 A 
ATOM      9  C   UNL     1       5.793   4.116  15.462  0.00  0.00    +0.000 A 
ATOM     10  C   UNL     1       5.171   3.932  16.715  0.00  0.00    +0.000 A 
ATOM     11  H   UNL     1       8.081   6.299  14.411  0.00  0.00    +0.000 HD
ENDROOT
BRANCH  10  12
ATOM     12  N   UNL     1       4.224   2.904  16.971  0.00  0.00    +0.000 N 
ATOM     13  H   UNL     1       3.325   3.105  17.429  0.00  0.00    +0.000 HD
ATOM     14  H   UNL     1       4.425   1.919  16.760  0.00  0.00    +0.000 HD
ENDBRANCH  10  12
BRANCH   1  15
ATOM     15  C   UNL     1       5.233   4.891  19.126  0.00  0.00    +0.000 C 
ATOM     16  O   UNL     1       6.132   5.124  19.919  0.00  0.00    +0.000 OA
BRANCH  15  22
ATOM     17  C   UNL     1       3.271   3.484  19.999  0.00  0.00    +0.000 A 
ATOM     18  C   UNL     1       1.967   3.445  20.548  0.00  0.00    +0.000 A 
ATOM     19  C   UNL     1       1.256   4.621  20.781  0.00  0.00    +0.000 A 
ATOM     20  C   UNL     1       1.825   5.853  20.476  0.00  0.00    +0.000 A 
ATOM     21  C   UNL     1       3.110   5.914  19.937  0.00  0.00    +0.000 A 
ATOM     22  C   UNL     1       3.848   4.741  19.674  0.00  0.00    +0.000 A 
BRANCH  17  24
ATOM     23  C   UNL     1       4.799   1.751  20.778  0.00  0.00    +0.000 C 
ATOM     24  O   UNL     1       3.991   2.344  19.828  0.00  0.00    +0.000 OA
ENDBRANCH  17  24
ENDBRANCH  15  22
ENDBRANCH   1  15
BRANCH   7  25
ATOM     25  C   UNL     1       6.216   2.862  11.877  0.00  0.00    +0.000 C 
ATOM     26  O   UNL     1       5.130   2.806  11.323  0.00  0.00    +0.000 OA
BRANCH  25  27
ATOM     27  O   UNL     1       7.240   2.180  11.315  0.00  0.00    +0.000 OA
ATOM     28  H   UNL     1       7.198   1.264  11.017  0.00  0.00    +0.000 HD
ENDBRANCH  25  27
ENDBRANCH   7  25
TORSDOF 6
ENDMDL
MODEL 5
REMARK VINA RESULT:      -7.4      1.539      2.340
REMARK  Name = 
REMARK  7 active torsions:
REMARK  status: ('A' for Active; 'I' for Inactive)
REMARK    1  A    between atoms: C_1  and  O_2
REMARK    2  A    between atoms: O_2  and  C_3
REMARK    3  A    between atoms: C_8  and  C_9
REMARK    4  A    between atoms: C_9  and  C_11
REMARK    5  A    between atoms: C_17  and  C_18
REMARK    6  A    between atoms: C_18  and  O_20
REMARK    7  A    between atoms: C_23  and  N_24
REMARK                            x       y       z     vdW  Elec       q    Type
REMARK                         _______ _______ _______ _____ _____    ______ ____
ROOT
ATOM      1  C   UNL     1       2.678   7.183  18.488  0.00  0.00    +0.000 A 
ATOM      2  S   UNL     1       2.166   8.660  17.825  0.00  0.00    +0.000 S 
ATOM      3  C   UNL     1       1.413   9.201  19.222  0.00  0.00    +0.000 A 
ATOM      4  N   UNL     1       0.732  10.361  19.381  0.00  0.00    +0.000 N 
ATOM      5  C   UNL     1       0.151  10.656  20.594  0.00  0.00    +0.000 A 
ATOM      6  O   UNL     1      -0.467  11.701  20.710  0.00  0.00    +0.000 OA
ATOM      7  C   UNL     1       0.270   9.753  21.693  0.00  0.00    +0.000 A 
ATOM      8  C   UNL     1       0.989   8.550  21.489  0.00  0.00    +0.000 A 
ATOM      9  C   UNL     1       1.550   8.279  20.236  0.00  0.00    +0.000 A 
ATOM     10  C   UNL     1       2.259   7.127  19.835  0.00  0.00    +0.000 A 
ATOM     11  H   UNL     1       0.642  11.024  18.578  0.00  0.00    +0.000 HD
ENDROOT
BRANCH  10  12
ATOM     12  N   UNL     1       2.523   6.034  20.703  0.00  0.00    +0.000 N 
ATOM     13  H   UNL     1       3.116   6.142  21.536  0.00  0.00    +0.000 HD
ATOM     14  H   UNL     1       2.180   5.087  20.500  0.00  0.00    +0.000 HD
ENDBRANCH  10  12
BRANCH   1  15
ATOM     15  C   UNL     1       3.327   6.089  17.710  0.00  0.00    +0.000 C 
ATOM     16  O   UNL     1       4.071   6.416  16.797  0.00  0.00    +0.000 OA
BRANCH  15  22
ATOM     17  C   UNL     1       4.256   3.885  18.643  0.00  0.00    +0.000 A 
ATOM     18  C   UNL     1       4.044   2.516  18.934  0.00  0.00    +0.000 A 
ATOM     19  C   UNL     1       2.831   1.902  18.631  0.00  0.00    +0.000 A 
ATOM     20  C   UNL     1       1.807   2.633  18.037  0.00  0.00    +0.000 A 
ATOM     21  C   UNL     1       1.994   3.983  17.745  0.00  0.00    +0.000 A 
ATOM     22  C   UNL     1       3.217   4.629  18.023  0.00  0.00    +0.000 A 
BRANCH  17  24
ATOM     23  C   UNL     1       6.555   4.576  18.216  0.00  0.00    +0.000 C 
ATOM     24  O   UNL     1       5.415   4.502  18.992  0.00  0.00    +0.000 OA
ENDBRANCH  17  24
ENDBRANCH  15  22
ENDBRANCH   1  15
BRANCH   7  25
ATOM     25  C   UNL     1      -0.358  10.061  23.026  0.00  0.00    +0.000 C 
ATOM     26  O   UNL     1       0.170   9.662  24.052  0.00  0.00    +0.000 OA
BRANCH  25  27
ATOM     27  O   UNL     1      -1.503  10.771  23.149  0.00  0.00    +0.000 OA
ATOM     28  H   UNL     1      -1.719  11.351  23.888  0.00  0.00    +0.000 HD
ENDBRANCH  25  27
ENDBRANCH   7  25
TORSDOF 6
ENDMDL
MODEL 6
REMARK VINA RESULT:      -7.3      1.075      1.994
REMARK  Name = 
REMARK  7 active torsions:
REMARK  status: ('A' for Active; 'I' for Inactive)
REMARK    1  A    between atoms: C_1  and  O_2
REMARK    2  A    between atoms: O_2  and  C_3
REMARK    3  A    between atoms: C_8  and  C_9
REMARK    4  A    between atoms: C_9  and  C_11
REMARK    5  A    between atoms: C_17  and  C_18
REMARK    6  A    between atoms: C_18  and  O_20
REMARK    7  A    between atoms: C_23  and  N_24
REMARK                            x       y       z     vdW  Elec       q    Type
REMARK                         _______ _______ _______ _____ _____    ______ ____
ROOT
ATOM      1  C   UNL     1       2.885   6.603  18.663  0.00  0.00    +0.000 A 
ATOM      2  S   UNL     1       2.520   8.053  17.858  0.00  0.00    +0.000 S 
ATOM      3  C   UNL     1       1.717   8.749  19.155  0.00  0.00    +0.000 A 
ATOM      4  N   UNL     1       1.109   9.959  19.178  0.00  0.00    +0.000 N 
ATOM      5  C   UNL     1       0.472  10.386  20.322  0.00  0.00    +0.000 A 
ATOM      6  O   UNL     1      -0.078  11.473  20.317  0.00  0.00    +0.000 OA
ATOM      7  C   UNL     1       0.458   9.566  21.492  0.00  0.00    +0.000 A 
ATOM      8  C   UNL     1       1.103   8.307  21.429  0.00  0.00    +0.000 A 
ATOM      9  C   UNL     1       1.724   7.904  20.241  0.00  0.00    +0.000 A 
ATOM     10  C   UNL     1       2.376   6.680  19.978  0.00  0.00    +0.000 A 
ATOM     11  H   UNL     1       1.117  10.561  18.324  0.00  0.00    +0.000 HD
ENDROOT
BRANCH  10  12
ATOM     12  N   UNL     1       2.508   5.644  20.941  0.00  0.00    +0.000 N 
ATOM     13  H   UNL     1       2.978   4.758  20.715  0.00  0.00    +0.000 HD
ATOM     14  H   UNL     1       2.090   5.720  21.877  0.00  0.00    +0.000 HD
ENDBRANCH  10  12
BRANCH   1  15
ATOM     15  C   UNL     1       3.506   5.412  18.016  0.00  0.00    +0.000 C 
ATOM     16  O   UNL     1       2.761   4.639  17.433  0.00  0.00    +0.000 OA
BRANCH  15  22
ATOM     17  C   UNL     1       5.628   4.703  16.757  0.00  0.00    +0.000 A 
ATOM     18  C   UNL     1       7.031   4.513  16.771  0.00  0.00    +0.000 A 
ATOM     19  C   UNL     1       7.772   4.765  17.924  0.00  0.00    +0.000 A 
ATOM     20  C   UNL     1       7.138   5.212  19.078  0.00  0.00    +0.000 A 
ATOM     21  C   UNL     1       5.758   5.407  19.084  0.00  0.00    +0.000 A 
ATOM     22  C   UNL     1       4.977   5.144  17.939  0.00  0.00    +0.000 A 
BRANCH  17  24
ATOM     23  C   UNL     1       5.436   4.339  14.353  0.00  0.00    +0.000 C 
ATOM     24  O   UNL     1       4.910   4.516  15.618  0.00  0.00    +0.000 OA
ENDBRANCH  17  24
ENDBRANCH  15  22
ENDBRANCH   1  15
BRANCH   7  25
ATOM     25  C   UNL     1      -0.233  10.018  22.750  0.00  0.00    +0.000 C 
ATOM     26  O   UNL     1       0.215   9.691  23.838  0.00  0.00    +0.000 OA
BRANCH  25  27
ATOM     27  O   UNL     1      -1.349  10.783  22.739  0.00  0.00    +0.000 OA
ATOM     28  H   UNL     1      -1.835  11.064  23.522  0.00  0.00    +0.000 HD
ENDBRANCH  25  27
ENDBRANCH   7  25
TORSDOF 6
ENDMDL
MODEL 7
REMARK VINA RESULT:      -7.1      2.820      7.544
REMARK  Name = 
REMARK  7 active torsions:
REMARK  status: ('A' for Active; 'I' for Inactive)
REMARK    1  A    between atoms: C_1  and  O_2
REMARK    2  A    between atoms: O_2  and  C_3
REMARK    3  A    between atoms: C_8  and  C_9
REMARK    4  A    between atoms: C_9  and  C_11
REMARK    5  A    between atoms: C_17  and  C_18
REMARK    6  A    between atoms: C_18  and  O_20
REMARK    7  A    between atoms: C_23  and  N_24
REMARK                            x       y       z     vdW  Elec       q    Type
REMARK                         _______ _______ _______ _____ _____    ______ ____
ROOT
ATOM      1  C   UNL     1       1.972   8.200  19.035  0.00  0.00    +0.000 A 
ATOM      2  S   UNL     1       1.414   7.632  20.535  0.00  0.00    +0.000 S 
ATOM      3  C   UNL     1       2.107   6.112  20.388  0.00  0.00    +0.000 A 
ATOM      4  N   UNL     1       2.012   5.088  21.270  0.00  0.00    +0.000 N 
ATOM      5  C   UNL     1       2.628   3.887  20.997  0.00  0.00    +0.000 A 
ATOM      6  O   UNL     1       2.520   2.976  21.799  0.00  0.00    +0.000 OA
ATOM      7  C   UNL     1       3.377   3.714  19.794  0.00  0.00    +0.000 A 
ATOM      8  C   UNL     1       3.452   4.807  18.895  0.00  0.00    +0.000 A 
ATOM      9  C   UNL     1       2.797   6.005  19.203  0.00  0.00    +0.000 A 
ATOM     10  C   UNL     1       2.726   7.178  18.421  0.00  0.00    +0.000 A 
ATOM     11  H   UNL     1       1.464   5.211  22.152  0.00  0.00    +0.000 HD
ENDROOT
BRANCH  10  12
ATOM     12  N   UNL     1       3.355   7.308  17.153  0.00  0.00    +0.000 N 
ATOM     13  H   UNL     1       3.202   6.619  16.405  0.00  0.00    +0.000 HD
ATOM     14  H   UNL     1       4.027   8.061  16.958  0.00  0.00    +0.000 HD
ENDBRANCH  10  12
BRANCH   1  15
ATOM     15  C   UNL     1       1.586   9.509  18.432  0.00  0.00    +0.000 C 
ATOM     16  O   UNL     1       2.373  10.018  17.649  0.00  0.00    +0.000 OA
BRANCH  15  22
ATOM     17  C   UNL     1       0.054  11.188  19.626  0.00  0.00    +0.000 A 
ATOM     18  C   UNL     1      -1.216  11.807  19.717  0.00  0.00    +0.000 A 
ATOM     19  C   UNL     1      -2.242  11.460  18.841  0.00  0.00    +0.000 A 
ATOM     20  C   UNL     1      -2.028  10.496  17.861  0.00  0.00    +0.000 A 
ATOM     21  C   UNL     1      -0.784   9.876  17.753  0.00  0.00    +0.000 A 
ATOM     22  C   UNL     1       0.270  10.194  18.635  0.00  0.00    +0.000 A 
BRANCH  17  24
ATOM     23  C   UNL     1       1.741  12.777  20.385  0.00  0.00    +0.000 C 
ATOM     24  O   UNL     1       1.076  11.568  20.438  0.00  0.00    +0.000 OA
ENDBRANCH  17  24
ENDBRANCH  15  22
ENDBRANCH   1  15
BRANCH   7  25
ATOM     25  C   UNL     1       4.056   2.408  19.480  0.00  0.00    +0.000 C 
ATOM     26  O   UNL     1       3.669   1.735  18.538  0.00  0.00    +0.000 OA
BRANCH  25  27
ATOM     27  O   UNL     1       5.094   1.930  20.204  0.00  0.00    +0.000 OA
ATOM     28  H   UNL     1       5.036   1.612  21.112  0.00  0.00    +0.000 HD
ENDBRANCH  25  27
ENDBRANCH   7  25
TORSDOF 6
ENDMDL
MODEL 8
REMARK VINA RESULT:      -7.0      2.128      3.211
REMARK  Name = 
REMARK  7 active torsions:
REMARK  status: ('A' for Active; 'I' for Inactive)
REMARK    1  A    between atoms: C_1  and  O_2
REMARK    2  A    between atoms: O_2  and  C_3
REMARK    3  A    between atoms: C_8  and  C_9
REMARK    4  A    between atoms: C_9  and  C_11
REMARK    5  A    between atoms: C_17  and  C_18
REMARK    6  A    between atoms: C_18  and  O_20
REMARK    7  A    between atoms: C_23  and  N_24
REMARK                            x       y       z     vdW  Elec       q    Type
REMARK                         _______ _______ _______ _____ _____    ______ ____
ROOT
ATOM      1  C   UNL     1       2.211   7.516  19.073  0.00  0.00    +0.000 A 
ATOM      2  S   UNL     1       1.829   7.086  20.670  0.00  0.00    +0.000 S 
ATOM      3  C   UNL     1       1.105   8.549  21.052  0.00  0.00    +0.000 A 
ATOM      4  N   UNL     1       0.586   8.910  22.250  0.00  0.00    +0.000 N 
ATOM      5  C   UNL     1       0.038  10.163  22.413  0.00  0.00    +0.000 A 
ATOM      6  O   UNL     1      -0.413  10.470  23.502  0.00  0.00    +0.000 OA
ATOM      7  C   UNL     1       0.002  11.084  21.322  0.00  0.00    +0.000 A 
ATOM      8  C   UNL     1       0.555  10.672  20.085  0.00  0.00    +0.000 A 
ATOM      9  C   UNL     1       1.118   9.396  19.967  0.00  0.00    +0.000 A 
ATOM     10  C   UNL     1       1.746   8.828  18.838  0.00  0.00    +0.000 A 
ATOM     11  H   UNL     1       0.612   8.239  23.051  0.00  0.00    +0.000 HD
ENDROOT
BRANCH  10  12
ATOM     12  N   UNL     1       1.887   9.511  17.600  0.00  0.00    +0.000 N 
ATOM     13  H   UNL     1       1.569  10.482  17.483  0.00  0.00    +0.000 HD
ATOM     14  H   UNL     1       2.257   9.042  16.764  0.00  0.00    +0.000 HD
ENDBRANCH  10  12
BRANCH   1  15
ATOM     15  C   UNL     1       3.032   6.682  18.147  0.00  0.00    +0.000 C 
ATOM     16  O   UNL     1       3.723   7.270  17.329  0.00  0.00    +0.000 OA
BRANCH  15  22
ATOM     17  C   UNL     1       4.225   4.522  18.855  0.00  0.00    +0.000 A 
ATOM     18  C   UNL     1       4.231   3.107  18.896  0.00  0.00    +0.000 A 
ATOM     19  C   UNL     1       3.194   2.373  18.325  0.00  0.00    +0.000 A 
ATOM     20  C   UNL     1       2.133   3.027  17.707  0.00  0.00    +0.000 A 
ATOM     21  C   UNL     1       2.107   4.420  17.658  0.00  0.00    +0.000 A 
ATOM     22  C   UNL     1       3.150   5.191  18.211  0.00  0.00    +0.000 A 
BRANCH  17  24
ATOM     23  C   UNL     1       6.486   5.427  18.984  0.00  0.00    +0.000 C 
ATOM     24  O   UNL     1       5.204   5.242  19.463  0.00  0.00    +0.000 OA
ENDBRANCH  17  24
ENDBRANCH  15  22
ENDBRANCH   1  15
BRANCH   7  25
ATOM     25  C   UNL     1      -0.595  12.457  21.483  0.00  0.00    +0.000 C 
ATOM     26  O   UNL     1      -1.555  12.784  20.803  0.00  0.00    +0.000 OA
BRANCH  25  27
ATOM     27  O   UNL     1      -0.111  13.368  22.359  0.00  0.00    +0.000 OA
ATOM     28  H   UNL     1       0.352  14.177  22.116  0.00  0.00    +0.000 HD
ENDBRANCH  25  27
ENDBRANCH   7  25
TORSDOF 6
ENDMDL
MODEL 9
REMARK VINA RESULT:      -7.0      3.121      7.789
REMARK  Name = 
REMARK  7 active torsions:
REMARK  status: ('A' for Active; 'I' for Inactive)
REMARK    1  A    between atoms: C_1  and  O_2
REMARK    2  A    between atoms: O_2  and  C_3
REMARK    3  A    between atoms: C_8  and  C_9
REMARK    4  A    between atoms: C_9  and  C_11
REMARK    5  A    between atoms: C_17  and  C_18
REMARK    6  A    between atoms: C_18  and  O_20
REMARK    7  A    between atoms: C_23  and  N_24
REMARK                            x       y       z     vdW  Elec       q    Type
REMARK                         _______ _______ _______ _____ _____    ______ ____
ROOT
ATOM      1  C   UNL     1       2.006   8.108  19.149  0.00  0.00    +0.000 A 
ATOM      2  S   UNL     1       1.429   7.503  20.627  0.00  0.00    +0.000 S 
ATOM      3  C   UNL     1       2.120   5.986  20.449  0.00  0.00    +0.000 A 
ATOM      4  N   UNL     1       2.012   4.940  21.303  0.00  0.00    +0.000 N 
ATOM      5  C   UNL     1       2.629   3.744  21.006  0.00  0.00    +0.000 A 
ATOM      6  O   UNL     1       2.509   2.813  21.783  0.00  0.00    +0.000 OA
ATOM      7  C   UNL     1       3.392   3.601  19.808  0.00  0.00    +0.000 A 
ATOM      8  C   UNL     1       3.481   4.716  18.940  0.00  0.00    +0.000 A 
ATOM      9  C   UNL     1       2.825   5.908  19.270  0.00  0.00    +0.000 A 
ATOM     10  C   UNL     1       2.766   7.100  18.518  0.00  0.00    +0.000 A 
ATOM     11  H   UNL     1       1.454   5.041  22.181  0.00  0.00    +0.000 HD
ENDROOT
BRANCH  10  12
ATOM     12  N   UNL     1       3.411   7.262  17.262  0.00  0.00    +0.000 N 
ATOM     13  H   UNL     1       2.897   7.588  16.433  0.00  0.00    +0.000 HD
ATOM     14  H   UNL     1       4.396   7.006  17.123  0.00  0.00    +0.000 HD
ENDBRANCH  10  12
BRANCH   1  15
ATOM     15  C   UNL     1       1.631   9.433  18.576  0.00  0.00    +0.000 C 
ATOM     16  O   UNL     1       2.150   9.753  17.517  0.00  0.00    +0.000 OA
BRANCH  15  22
ATOM     17  C   UNL     1      -0.693  10.525  18.570  0.00  0.00    +0.000 A 
ATOM     18  C   UNL     1      -1.619  11.390  19.201  0.00  0.00    +0.000 A 
ATOM     19  C   UNL     1      -1.284  12.058  20.376  0.00  0.00    +0.000 A 
ATOM     20  C   UNL     1      -0.028  11.880  20.947  0.00  0.00    +0.000 A 
ATOM     21  C   UNL     1       0.898  11.031  20.343  0.00  0.00    +0.000 A 
ATOM     22  C   UNL     1       0.595  10.353  19.143  0.00  0.00    +0.000 A 
BRANCH  17  24
ATOM     23  C   UNL     1      -2.264   9.869  16.825  0.00  0.00    +0.000 C 
ATOM     24  O   UNL     1      -1.038   9.825  17.458  0.00  0.00    +0.000 OA
ENDBRANCH  17  24
ENDBRANCH  15  22
ENDBRANCH   1  15
BRANCH   7  25
ATOM     25  C   UNL     1       4.072   2.302  19.470  0.00  0.00    +0.000 C 
ATOM     26  O   UNL     1       3.695   1.654  18.506  0.00  0.00    +0.000 OA
BRANCH  25  27
ATOM     27  O   UNL     1       5.100   1.802  20.194  0.00  0.00    +0.000 OA
ATOM     28  H   UNL     1       5.708   2.326  20.727  0.00  0.00    +0.000 HD
ENDBRANCH  25  27
ENDBRANCH   7  25
TORSDOF 6
ENDMDL
