MODEL 1
REMARK VINA RESULT:      -8.2      0.000      0.000
REMARK  Name = 
REMARK  9 active torsions:
REMARK  status: ('A' for Active; 'I' for Inactive)
REMARK    1  A    between atoms: C_1  and  C_2
REMARK    2  A    between atoms: C_2  and  C_3
REMARK    3  A    between atoms: C_2  and  C_4
REMARK    4  A    between atoms: C_9  and  S_10
REMARK    5  A    between atoms: S_10  and  C_11
REMARK    6  A    between atoms: C_12  and  O_13
REMARK    7  A    between atoms: C_15  and  C_16
REMARK    8  A    between atoms: C_19  and  C_20
REMARK    9  A    between atoms: C_20  and  O_22
REMARK                            x       y       z     vdW  Elec       q    Type
REMARK                         _______ _______ _______ _____ _____    ______ ____
ROOT
ATOM      1  C   UNL     1       0.954  10.097  19.378  0.00  0.00    +0.000 A 
ATOM      2  C   UNL     1       1.772   9.747  18.372  0.00  0.00    +0.000 A 
ATOM      3  C   UNL     1       2.386   8.454  18.304  0.00  0.00    +0.000 A 
ATOM      4  C   UNL     1       2.202   7.580  19.302  0.00  0.00    +0.000 A 
ATOM      5  O   UNL     1       1.461   7.955  20.452  0.00  0.00    +0.000 OA
ATOM      6  C   UNL     1       0.886   9.199  20.572  0.00  0.00    +0.000 A 
ATOM      7  O   UNL     1       0.343   9.533  21.622  0.00  0.00    +0.000 OA
ENDROOT
BRANCH   4   8
ATOM      8  C   UNL     1       2.672   6.176  19.277  0.00  0.00    +0.000 A 
ATOM      9  C   UNL     1       3.416   5.657  18.204  0.00  0.00    +0.000 A 
ATOM     10  C   UNL     1       3.820   4.316  18.183  0.00  0.00    +0.000 A 
ATOM     11  C   UNL     1       3.493   3.456  19.240  0.00  0.00    +0.000 A 
ATOM     12  C   UNL     1       2.780   3.965  20.330  0.00  0.00    +0.000 A 
ATOM     13  C   UNL     1       2.375   5.310  20.342  0.00  0.00    +0.000 A 
BRANCH  11  14
ATOM     14  C   UNL     1       3.969   2.044  19.174  0.00  0.00    +0.000 C 
ATOM     15  O   UNL     1       3.432   1.204  18.466  0.00  0.00    +0.000 OA
BRANCH  14  16
ATOM     16  O   UNL     1       5.004   1.767  19.985  0.00  0.00    +0.000 OA
ATOM     17  H   UNL     1       5.479   0.941  19.790  0.00  0.00    +0.000 HD
ENDBRANCH  14  16
ENDBRANCH  11  14
ENDBRANCH   4   8
BRANCH   2  18
ATOM     18  O   UNL     1       2.082  10.558  17.307  0.00  0.00    +0.000 OA
ATOM     19  H   UNL     1       2.945  10.970  17.506  0.00  0.00    +0.000 HD
ENDBRANCH   2  18
BRANCH   1  20
ATOM     20  S   UNL     1       0.150  11.640  19.413  0.00  0.00    +0.000 S 
BRANCH  20  26
ATOM     21  C   UNL     1      -2.700  11.849  19.179  0.00  0.00    +0.000 A 
ATOM     22  C   UNL     1      -3.911  11.447  18.564  0.00  0.00    +0.000 A 
ATOM     23  C   UNL     1      -3.941  10.498  17.548  0.00  0.00    +0.000 A 
ATOM     24  C   UNL     1      -2.757   9.923  17.119  0.00  0.00    +0.000 A 
ATOM     25  C   UNL     1      -1.545  10.309  17.696  0.00  0.00    +0.000 A 
ATOM     26  C   UNL     1      -1.479  11.290  18.705  0.00  0.00    +0.000 A 
BRANCH  21  28
ATOM     27  C   UNL     1      -4.225  13.564  20.363  0.00  0.00    +0.000 C 
ATOM     28  C   UNL     1      -2.862  12.869  20.305  0.00  0.00    +0.000 C 
ATOM     29  C   UNL     1      -2.349  12.329  21.641  0.00  0.00    +0.000 C 
ENDBRANCH  21  28
ENDBRANCH  20  26
ENDBRANCH   1  20
TORSDOF 7
ENDMDL
MODEL 2
REMARK VINA RESULT:      -8.1      0.353      1.097
REMARK  Name = 
REMARK  9 active torsions:
REMARK  status: ('A' for Active; 'I' for Inactive)
REMARK    1  A    between atoms: C_1  and  C_2
REMARK    2  A    between atoms: C_2  and  C_3
REMARK    3  A    between atoms: C_2  and  C_4
REMARK    4  A    between atoms: C_9  and  S_10
REMARK    5  A    between atoms: S_10  and  C_11
REMARK    6  A    between atoms: C_12  and  O_13
REMARK    7  A    between atoms: C_15  and  C_16
REMARK    8  A    between atoms: C_19  and  C_20
REMARK    9  A    between atoms: C_20  and  O_22
REMARK                            x       y       z     vdW  Elec       q    Type
REMARK                         _______ _______ _______ _____ _____    ______ ____
ROOT
ATOM      1  C   UNL     1       0.994  10.085  19.424  0.00  0.00    +0.000 A 
ATOM      2  C   UNL     1       1.777   9.722  18.395  0.00  0.00    +0.000 A 
ATOM      3  C   UNL     1       2.374   8.421  18.313  0.00  0.00    +0.000 A 
ATOM      4  C   UNL     1       2.208   7.552  19.318  0.00  0.00    +0.000 A 
ATOM      5  O   UNL     1       1.505   7.939  20.487  0.00  0.00    +0.000 OA
ATOM      6  C   UNL     1       0.949   9.190  20.621  0.00  0.00    +0.000 A 
ATOM      7  O   UNL     1       0.441   9.532  21.685  0.00  0.00    +0.000 OA
ENDROOT
BRANCH   4   8
ATOM      8  C   UNL     1       2.660   6.143  19.282  0.00  0.00    +0.000 A 
ATOM      9  C   UNL     1       2.243   5.200  20.237  0.00  0.00    +0.000 A 
ATOM     10  C   UNL     1       2.712   3.881  20.207  0.00  0.00    +0.000 A 
ATOM     11  C   UNL     1       3.612   3.466  19.216  0.00  0.00    +0.000 A 
ATOM     12  C   UNL     1       4.012   4.384  18.240  0.00  0.00    +0.000 A 
ATOM     13  C   UNL     1       3.540   5.706  18.278  0.00  0.00    +0.000 A 
BRANCH  11  14
ATOM     14  C   UNL     1       4.060   2.044  19.220  0.00  0.00    +0.000 C 
ATOM     15  O   UNL     1       3.507   1.180  18.553  0.00  0.00    +0.000 OA
BRANCH  14  16
ATOM     16  O   UNL     1       5.089   1.786  20.045  0.00  0.00    +0.000 OA
ATOM     17  H   UNL     1       5.507   0.915  19.933  0.00  0.00    +0.000 HD
ENDBRANCH  14  16
ENDBRANCH  11  14
ENDBRANCH   4   8
BRANCH   2  18
ATOM     18  O   UNL     1       2.067  10.528  17.319  0.00  0.00    +0.000 OA
ATOM     19  H   UNL     1       1.983  11.451  17.626  0.00  0.00    +0.000 HD
ENDBRANCH   2  18
BRANCH   1  20
ATOM     20  S   UNL     1       0.210  11.637  19.478  0.00  0.00    +0.000 S 
BRANCH  20  26
ATOM     21  C   UNL     1      -2.641  11.855  19.258  0.00  0.00    +0.000 A 
ATOM     22  C   UNL     1      -3.853  11.481  18.626  0.00  0.00    +0.000 A 
ATOM     23  C   UNL     1      -3.884  10.580  17.568  0.00  0.00    +0.000 A 
ATOM     24  C   UNL     1      -2.700  10.026  17.111  0.00  0.00    +0.000 A 
ATOM     25  C   UNL     1      -1.488  10.385  17.703  0.00  0.00    +0.000 A 
ATOM     26  C   UNL     1      -1.421  11.319  18.756  0.00  0.00    +0.000 A 
BRANCH  21  28
ATOM     27  C   UNL     1      -2.119  14.181  20.252  0.00  0.00    +0.000 C 
ATOM     28  C   UNL     1      -2.802  12.822  20.430  0.00  0.00    +0.000 C 
ATOM     29  C   UNL     1      -4.247  12.879  20.926  0.00  0.00    +0.000 C 
ENDBRANCH  21  28
ENDBRANCH  20  26
ENDBRANCH   1  20
TORSDOF 7
ENDMDL
MODEL 3
REMARK VINA RESULT:      -8.0      3.095      9.158
REMARK  Name = 
REMARK  9 active torsions:
REMARK  status: ('A' for Active; 'I' for Inactive)
REMARK    1  A    between atoms: C_1  and  C_2
REMARK    2  A    between atoms: C_2  and  C_3
REMARK    3  A    between atoms: C_2  and  C_4
REMARK    4  A    between atoms: C_9  and  S_10
REMARK    5  A    between atoms: S_10  and  C_11
REMARK    6  A    between atoms: C_12  and  O_13
REMARK    7  A    between atoms: C_15  and  C_16
REMARK    8  A    between atoms: C_19  and  C_20
REMARK    9  A    between atoms: C_20  and  O_22
REMARK                            x       y       z     vdW  Elec       q    Type
REMARK                         _______ _______ _______ _____ _____    ______ ____
ROOT
ATOM      1  C   UNL     1       2.514   6.101  18.990  0.00  0.00    +0.000 A 
ATOM      2  C   UNL     1       2.094   5.856  20.241  0.00  0.00    +0.000 A 
ATOM      3  C   UNL     1       1.431   6.851  21.032  0.00  0.00    +0.000 A 
ATOM      4  C   UNL     1       1.277   8.088  20.545  0.00  0.00    +0.000 A 
ATOM      5  O   UNL     1       1.828   8.433  19.284  0.00  0.00    +0.000 OA
ATOM      6  C   UNL     1       2.503   7.518  18.511  0.00  0.00    +0.000 A 
ATOM      7  O   UNL     1       3.060   7.871  17.476  0.00  0.00    +0.000 OA
ENDROOT
BRANCH   4   8
ATOM      8  C   UNL     1       0.494   9.154  21.211  0.00  0.00    +0.000 A 
ATOM      9  C   UNL     1       0.248   9.146  22.595  0.00  0.00    +0.000 A 
ATOM     10  C   UNL     1      -0.527  10.143  23.200  0.00  0.00    +0.000 A 
ATOM     11  C   UNL     1      -1.075  11.182  22.435  0.00  0.00    +0.000 A 
ATOM     12  C   UNL     1      -0.813  11.222  21.062  0.00  0.00    +0.000 A 
ATOM     13  C   UNL     1      -0.038  10.216  20.462  0.00  0.00    +0.000 A 
BRANCH  11  14
ATOM     14  C   UNL     1      -1.873  12.230  23.136  0.00  0.00    +0.000 C 
ATOM     15  O   UNL     1      -1.387  13.294  23.493  0.00  0.00    +0.000 OA
BRANCH  14  16
ATOM     16  O   UNL     1      -3.150  11.889  23.377  0.00  0.00    +0.000 OA
ATOM     17  H   UNL     1      -3.785  12.125  22.680  0.00  0.00    +0.000 HD
ENDBRANCH  14  16
ENDBRANCH  11  14
ENDBRANCH   4   8
BRANCH   2  18
ATOM     18  O   UNL     1       2.225   4.645  20.880  0.00  0.00    +0.000 OA
ATOM     19  H   UNL     1       1.385   4.481  21.351  0.00  0.00    +0.000 HD
ENDBRANCH   2  18
BRANCH   1  20
ATOM     20  S   UNL     1       3.247   4.865  18.009  0.00  0.00    +0.000 S 
BRANCH  20  26
ATOM     21  C   UNL     1       5.859   5.418  16.964  0.00  0.00    +0.000 A 
ATOM     22  C   UNL     1       7.239   5.656  17.180  0.00  0.00    +0.000 A 
ATOM     23  C   UNL     1       7.792   5.678  18.455  0.00  0.00    +0.000 A 
ATOM     24  C   UNL     1       6.979   5.460  19.553  0.00  0.00    +0.000 A 
ATOM     25  C   UNL     1       5.612   5.237  19.375  0.00  0.00    +0.000 A 
ATOM     26  C   UNL     1       5.016   5.240  18.098  0.00  0.00    +0.000 A 
BRANCH  21  28
ATOM     27  C   UNL     1       5.070   6.748  14.896  0.00  0.00    +0.000 C 
ATOM     28  C   UNL     1       5.436   5.388  15.496  0.00  0.00    +0.000 C 
ATOM     29  C   UNL     1       6.381   4.535  14.649  0.00  0.00    +0.000 C 
ENDBRANCH  21  28
ENDBRANCH  20  26
ENDBRANCH   1  20
TORSDOF 7
ENDMDL
MODEL 4
REMARK VINA RESULT:      -7.9      5.637      9.603
REMARK  Name = 
REMARK  9 active torsions:
REMARK  status: ('A' for Active; 'I' for Inactive)
REMARK    1  A    between atoms: C_1  and  C_2
REMARK    2  A    between atoms: C_2  and  C_3
REMARK    3  A    between atoms: C_2  and  C_4
REMARK    4  A    between atoms: C_9  and  S_10
REMARK    5  A    between atoms: S_10  and  C_11
REMARK    6  A    between atoms: C_12  and  O_13
REMARK    7  A    between atoms: C_15  and  C_16
REMARK    8  A    between atoms: C_19  and  C_20
REMARK    9  A    between atoms: C_20  and  O_22
REMARK                            x       y       z     vdW  Elec       q    Type
REMARK                         _______ _______ _______ _____ _____    ______ ____
ROOT
ATOM      1  C   UNL     1       6.492   5.917  17.922  0.00  0.00    +0.000 A 
ATOM      2  C   UNL     1       7.519   6.047  18.776  0.00  0.00    +0.000 A 
ATOM      3  C   UNL     1       8.250   7.273  18.909  0.00  0.00    +0.000 A 
ATOM      4  C   UNL     1       7.952   8.310  18.117  0.00  0.00    +0.000 A 
ATOM      5  O   UNL     1       6.969   8.176  17.104  0.00  0.00    +0.000 OA
ATOM      6  C   UNL     1       6.271   7.004  16.919  0.00  0.00    +0.000 A 
ATOM      7  O   UNL     1       5.504   6.883  15.968  0.00  0.00    +0.000 OA
ENDROOT
BRANCH   4   8
ATOM      8  C   UNL     1       8.544   9.660  18.255  0.00  0.00    +0.000 A 
ATOM      9  C   UNL     1       8.097  10.754  17.494  0.00  0.00    +0.000 A 
ATOM     10  C   UNL     1       8.696  12.014  17.614  0.00  0.00    +0.000 A 
ATOM     11  C   UNL     1       9.758  12.218  18.505  0.00  0.00    +0.000 A 
ATOM     12  C   UNL     1      10.194  11.147  19.293  0.00  0.00    +0.000 A 
ATOM     13  C   UNL     1       9.591   9.885  19.165  0.00  0.00    +0.000 A 
BRANCH  11  14
ATOM     14  C   UNL     1      10.341  13.586  18.607  0.00  0.00    +0.000 C 
ATOM     15  O   UNL     1      11.422  13.800  19.139  0.00  0.00    +0.000 OA
BRANCH  14  16
ATOM     16  O   UNL     1       9.565  14.562  18.106  0.00  0.00    +0.000 OA
ATOM     17  H   UNL     1      10.019  15.210  17.542  0.00  0.00    +0.000 HD
ENDBRANCH  14  16
ENDBRANCH  11  14
ENDBRANCH   4   8
BRANCH   2  18
ATOM     18  O   UNL     1       7.959   5.052  19.618  0.00  0.00    +0.000 OA
ATOM     19  H   UNL     1       8.649   4.558  19.136  0.00  0.00    +0.000 HD
ENDBRANCH   2  18
BRANCH   1  20
ATOM     20  S   UNL     1       5.560   4.451  17.823  0.00  0.00    +0.000 S 
BRANCH  20  26
ATOM     21  C   UNL     1       3.330   3.784  19.498  0.00  0.00    +0.000 A 
ATOM     22  C   UNL     1       2.196   4.187  20.245  0.00  0.00    +0.000 A 
ATOM     23  C   UNL     1       1.813   5.520  20.340  0.00  0.00    +0.000 A 
ATOM     24  C   UNL     1       2.555   6.490  19.688  0.00  0.00    +0.000 A 
ATOM     25  C   UNL     1       3.687   6.126  18.955  0.00  0.00    +0.000 A 
ATOM     26  C   UNL     1       4.118   4.788  18.866  0.00  0.00    +0.000 A 
BRANCH  21  28
ATOM     27  C   UNL     1       3.507   1.631  18.083  0.00  0.00    +0.000 C 
ATOM     28  C   UNL     1       3.576   2.276  19.470  0.00  0.00    +0.000 C 
ATOM     29  C   UNL     1       4.789   1.881  20.313  0.00  0.00    +0.000 C 
ENDBRANCH  21  28
ENDBRANCH  20  26
ENDBRANCH   1  20
TORSDOF 7
ENDMDL
MODEL 5
REMARK VINA RESULT:      -7.9      0.977      1.944
REMARK  Name = 
REMARK  9 active torsions:
REMARK  status: ('A' for Active; 'I' for Inactive)
REMARK    1  A    between atoms: C_1  and  C_2
REMARK    2  A    between atoms: C_2  and  C_3
REMARK    3  A    between atoms: C_2  and  C_4
REMARK    4  A    between atoms: C_9  and  S_10
REMARK    5  A    between atoms: S_10  and  C_11
REMARK    6  A    between atoms: C_12  and  O_13
REMARK    7  A    between atoms: C_15  and  C_16
REMARK    8  A    between atoms: C_19  and  C_20
REMARK    9  A    between atoms: C_20  and  O_22
REMARK                            x       y       z     vdW  Elec       q    Type
REMARK                         _______ _______ _______ _____ _____    ______ ____
ROOT
ATOM      1  C   UNL     1       1.128   9.723  19.636  0.00  0.00    +0.000 A 
ATOM      2  C   UNL     1       0.781   8.939  20.670  0.00  0.00    +0.000 A 
ATOM      3  C   UNL     1       1.265   7.596  20.804  0.00  0.00    +0.000 A 
ATOM      4  C   UNL     1       2.034   7.071  19.842  0.00  0.00    +0.000 A 
ATOM      5  O   UNL     1       2.312   7.812  18.665  0.00  0.00    +0.000 OA
ATOM      6  C   UNL     1       1.836   9.090  18.482  0.00  0.00    +0.000 A 
ATOM      7  O   UNL     1       2.002   9.665  17.410  0.00  0.00    +0.000 OA
ENDROOT
BRANCH   4   8
ATOM      8  C   UNL     1       2.699   5.751  19.936  0.00  0.00    +0.000 A 
ATOM      9  C   UNL     1       3.917   5.480  19.290  0.00  0.00    +0.000 A 
ATOM     10  C   UNL     1       4.510   4.213  19.361  0.00  0.00    +0.000 A 
ATOM     11  C   UNL     1       3.901   3.180  20.086  0.00  0.00    +0.000 A 
ATOM     12  C   UNL     1       2.704   3.443  20.761  0.00  0.00    +0.000 A 
ATOM     13  C   UNL     1       2.114   4.714  20.683  0.00  0.00    +0.000 A 
BRANCH  11  14
ATOM     14  C   UNL     1       4.589   1.859  20.146  0.00  0.00    +0.000 C 
ATOM     15  O   UNL     1       5.260   1.512  21.108  0.00  0.00    +0.000 OA
BRANCH  14  16
ATOM     16  O   UNL     1       4.443   1.104  19.044  0.00  0.00    +0.000 OA
ATOM     17  H   UNL     1       5.267   0.868  18.585  0.00  0.00    +0.000 HD
ENDBRANCH  14  16
ENDBRANCH  11  14
ENDBRANCH   4   8
BRANCH   2  18
ATOM     18  O   UNL     1      -0.034   9.334  21.704  0.00  0.00    +0.000 OA
ATOM     19  H   UNL     1       0.550   9.582  22.447  0.00  0.00    +0.000 HD
ENDBRANCH   2  18
BRANCH   1  20
ATOM     20  S   UNL     1       0.600  11.377  19.521  0.00  0.00    +0.000 S 
BRANCH  20  26
ATOM     21  C   UNL     1      -2.209  11.939  19.391  0.00  0.00    +0.000 A 
ATOM     22  C   UNL     1      -3.480  11.702  18.812  0.00  0.00    +0.000 A 
ATOM     23  C   UNL     1      -3.660  10.786  17.781  0.00  0.00    +0.000 A 
ATOM     24  C   UNL     1      -2.571  10.080  17.300  0.00  0.00    +0.000 A 
ATOM     25  C   UNL     1      -1.302  10.301  17.841  0.00  0.00    +0.000 A 
ATOM     26  C   UNL     1      -1.083  11.245  18.864  0.00  0.00    +0.000 A 
BRANCH  21  28
ATOM     27  C   UNL     1      -1.573  14.302  20.216  0.00  0.00    +0.000 C 
ATOM     28  C   UNL     1      -2.207  12.947  20.540  0.00  0.00    +0.000 C 
ATOM     29  C   UNL     1      -3.564  13.013  21.241  0.00  0.00    +0.000 C 
ENDBRANCH  21  28
ENDBRANCH  20  26
ENDBRANCH   1  20
TORSDOF 7
ENDMDL
MODEL 6
REMARK VINA RESULT:      -7.8      5.824      9.832
REMARK  Name = 
REMARK  9 active torsions:
REMARK  status: ('A' for Active; 'I' for Inactive)
REMARK    1  A    between atoms: C_1  and  C_2
REMARK    2  A    between atoms: C_2  and  C_3
REMARK    3  A    between atoms: C_2  and  C_4
REMARK    4  A    between atoms: C_9  and  S_10
REMARK    5  A    between atoms: S_10  and  C_11
REMARK    6  A    between atoms: C_12  and  O_13
REMARK    7  A    between atoms: C_15  and  C_16
REMARK    8  A    between atoms: C_19  and  C_20
REMARK    9  A    between atoms: C_20  and  O_22
REMARK                            x       y       z     vdW  Elec       q    Type
REMARK                         _______ _______ _______ _____ _____    ______ ____
ROOT
ATOM      1  C   UNL     1       6.824   6.060  17.918  0.00  0.00    +0.000 A 
ATOM      2  C   UNL     1       7.798   6.229  18.826  0.00  0.00    +0.000 A 
ATOM      3  C   UNL     1       8.463   7.487  19.005  0.00  0.00    +0.000 A 
ATOM      4  C   UNL     1       8.159   8.515  18.204  0.00  0.00    +0.000 A 
ATOM      5  O   UNL     1       7.238   8.344  17.140  0.00  0.00    +0.000 OA
ATOM      6  C   UNL     1       6.606   7.144  16.911  0.00  0.00    +0.000 A 
ATOM      7  O   UNL     1       5.897   6.995  15.920  0.00  0.00    +0.000 OA
ENDROOT
BRANCH   4   8
ATOM      8  C   UNL     1       8.679   9.890  18.383  0.00  0.00    +0.000 A 
ATOM      9  C   UNL     1       9.614  10.212  19.382  0.00  0.00    +0.000 A 
ATOM     10  C   UNL     1      10.065  11.526  19.557  0.00  0.00    +0.000 A 
ATOM     11  C   UNL     1       9.595  12.558  18.733  0.00  0.00    +0.000 A 
ATOM     12  C   UNL     1       8.689  12.248  17.713  0.00  0.00    +0.000 A 
ATOM     13  C   UNL     1       8.239  10.929  17.545  0.00  0.00    +0.000 A 
BRANCH  11  14
ATOM     14  C   UNL     1      10.128  13.933  18.951  0.00  0.00    +0.000 C 
ATOM     15  O   UNL     1      10.006  14.522  20.016  0.00  0.00    +0.000 OA
BRANCH  14  16
ATOM     16  O   UNL     1      10.711  14.483  17.872  0.00  0.00    +0.000 OA
ATOM     17  H   UNL     1      10.376  14.176  17.013  0.00  0.00    +0.000 HD
ENDBRANCH  14  16
ENDBRANCH  11  14
ENDBRANCH   4   8
BRANCH   2  18
ATOM     18  O   UNL     1       8.238   5.249  19.684  0.00  0.00    +0.000 OA
ATOM     19  H   UNL     1       7.456   4.721  19.936  0.00  0.00    +0.000 HD
ENDBRANCH   2  18
BRANCH   1  20
ATOM     20  S   UNL     1       5.968   4.553  17.760  0.00  0.00    +0.000 S 
BRANCH  20  26
ATOM     21  C   UNL     1       3.840   3.731  19.497  0.00  0.00    +0.000 A 
ATOM     22  C   UNL     1       2.672   4.044  20.235  0.00  0.00    +0.000 A 
ATOM     23  C   UNL     1       2.137   5.326  20.259  0.00  0.00    +0.000 A 
ATOM     24  C   UNL     1       2.758   6.336  19.545  0.00  0.00    +0.000 A 
ATOM     25  C   UNL     1       3.920   6.064  18.819  0.00  0.00    +0.000 A 
ATOM     26  C   UNL     1       4.503   4.781  18.800  0.00  0.00    +0.000 A 
BRANCH  21  28
ATOM     27  C   UNL     1       4.430   1.686  20.959  0.00  0.00    +0.000 C 
ATOM     28  C   UNL     1       4.258   2.263  19.552  0.00  0.00    +0.000 C 
ATOM     29  C   UNL     1       3.438   1.401  18.591  0.00  0.00    +0.000 C 
ENDBRANCH  21  28
ENDBRANCH  20  26
ENDBRANCH   1  20
TORSDOF 7
ENDMDL
MODEL 7
REMARK VINA RESULT:      -7.8      0.936      2.068
REMARK  Name = 
REMARK  9 active torsions:
REMARK  status: ('A' for Active; 'I' for Inactive)
REMARK    1  A    between atoms: C_1  and  C_2
REMARK    2  A    between atoms: C_2  and  C_3
REMARK    3  A    between atoms: C_2  and  C_4
REMARK    4  A    between atoms: C_9  and  S_10
REMARK    5  A    between atoms: S_10  and  C_11
REMARK    6  A    between atoms: C_12  and  O_13
REMARK    7  A    between atoms: C_15  and  C_16
REMARK    8  A    between atoms: C_19  and  C_20
REMARK    9  A    between atoms: C_20  and  O_22
REMARK                            x       y       z     vdW  Elec       q    Type
REMARK                         _______ _______ _______ _____ _____    ______ ____
ROOT
ATOM      1  C   UNL     1       1.164   9.795  19.697  0.00  0.00    +0.000 A 
ATOM      2  C   UNL     1       0.822   8.995  20.720  0.00  0.00    +0.000 A 
ATOM      3  C   UNL     1       1.281   7.640  20.816  0.00  0.00    +0.000 A 
ATOM      4  C   UNL     1       2.021   7.122  19.828  0.00  0.00    +0.000 A 
ATOM      5  O   UNL     1       2.291   7.883  18.662  0.00  0.00    +0.000 OA
ATOM      6  C   UNL     1       1.837   9.173  18.515  0.00  0.00    +0.000 A 
ATOM      7  O   UNL     1       1.994   9.769  17.453  0.00  0.00    +0.000 OA
ENDROOT
BRANCH   4   8
ATOM      8  C   UNL     1       2.661   5.787  19.880  0.00  0.00    +0.000 A 
ATOM      9  C   UNL     1       2.077   4.705  20.561  0.00  0.00    +0.000 A 
ATOM     10  C   UNL     1       2.717   3.461  20.630  0.00  0.00    +0.000 A 
ATOM     11  C   UNL     1       3.959   3.263  20.013  0.00  0.00    +0.000 A 
ATOM     12  C   UNL     1       4.539   4.321  19.305  0.00  0.00    +0.000 A 
ATOM     13  C   UNL     1       3.893   5.567  19.243  0.00  0.00    +0.000 A 
BRANCH  11  14
ATOM     14  C   UNL     1       4.583   1.911  20.100  0.00  0.00    +0.000 C 
ATOM     15  O   UNL     1       5.236   1.552  21.069  0.00  0.00    +0.000 OA
BRANCH  14  16
ATOM     16  O   UNL     1       4.401   1.143  19.012  0.00  0.00    +0.000 OA
ATOM     17  H   UNL     1       3.475   0.960  18.779  0.00  0.00    +0.000 HD
ENDBRANCH  14  16
ENDBRANCH  11  14
ENDBRANCH   4   8
BRANCH   2  18
ATOM     18  O   UNL     1       0.035   9.384  21.779  0.00  0.00    +0.000 OA
ATOM     19  H   UNL     1      -0.828   8.941  21.668  0.00  0.00    +0.000 HD
ENDBRANCH   2  18
BRANCH   1  20
ATOM     20  S   UNL     1       0.667  11.461  19.628  0.00  0.00    +0.000 S 
BRANCH  20  26
ATOM     21  C   UNL     1      -2.140  12.044  19.650  0.00  0.00    +0.000 A 
ATOM     22  C   UNL     1      -3.436  11.846  19.113  0.00  0.00    +0.000 A 
ATOM     23  C   UNL     1      -3.667  10.990  18.043  0.00  0.00    +0.000 A 
ATOM     24  C   UNL     1      -2.604  10.306  17.478  0.00  0.00    +0.000 A 
ATOM     25  C   UNL     1      -1.312  10.490  17.975  0.00  0.00    +0.000 A 
ATOM     26  C   UNL     1      -1.042  11.375  19.038  0.00  0.00    +0.000 A 
BRANCH  21  28
ATOM     27  C   UNL     1      -3.006  14.204  20.770  0.00  0.00    +0.000 C 
ATOM     28  C   UNL     1      -2.081  12.987  20.851  0.00  0.00    +0.000 C 
ATOM     29  C   UNL     1      -2.124  12.224  22.176  0.00  0.00    +0.000 C 
ENDBRANCH  21  28
ENDBRANCH  20  26
ENDBRANCH   1  20
TORSDOF 7
ENDMDL
MODEL 8
REMARK VINA RESULT:      -7.7      0.829      1.060
REMARK  Name = 
REMARK  9 active torsions:
REMARK  status: ('A' for Active; 'I' for Inactive)
REMARK    1  A    between atoms: C_1  and  C_2
REMARK    2  A    between atoms: C_2  and  C_3
REMARK    3  A    between atoms: C_2  and  C_4
REMARK    4  A    between atoms: C_9  and  S_10
REMARK    5  A    between atoms: S_10  and  C_11
REMARK    6  A    between atoms: C_12  and  O_13
REMARK    7  A    between atoms: C_15  and  C_16
REMARK    8  A    between atoms: C_19  and  C_20
REMARK    9  A    between atoms: C_20  and  O_22
REMARK                            x       y       z     vdW  Elec       q    Type
REMARK                         _______ _______ _______ _____ _____    ______ ____
ROOT
ATOM      1  C   UNL     1       0.948  10.581  19.322  0.00  0.00    +0.000 A 
ATOM      2  C   UNL     1       1.791  10.155  18.367  0.00  0.00    +0.000 A 
ATOM      3  C   UNL     1       2.274   8.806  18.323  0.00  0.00    +0.000 A 
ATOM      4  C   UNL     1       1.933   7.950  19.294  0.00  0.00    +0.000 A 
ATOM      5  O   UNL     1       1.159   8.391  20.397  0.00  0.00    +0.000 OA
ATOM      6  C   UNL     1       0.708   9.687  20.496  0.00  0.00    +0.000 A 
ATOM      7  O   UNL     1       0.133  10.068  21.512  0.00  0.00    +0.000 OA
ENDROOT
BRANCH   4   8
ATOM      8  C   UNL     1       2.258   6.505  19.281  0.00  0.00    +0.000 A 
ATOM      9  C   UNL     1       2.792   5.869  18.147  0.00  0.00    +0.000 A 
ATOM     10  C   UNL     1       3.057   4.494  18.144  0.00  0.00    +0.000 A 
ATOM     11  C   UNL     1       2.800   3.715  19.280  0.00  0.00    +0.000 A 
ATOM     12  C   UNL     1       2.299   4.338  20.427  0.00  0.00    +0.000 A 
ATOM     13  C   UNL     1       2.031   5.717  20.422  0.00  0.00    +0.000 A 
BRANCH  11  14
ATOM     14  C   UNL     1       3.124   2.260  19.227  0.00  0.00    +0.000 C 
ATOM     15  O   UNL     1       4.196   1.813  19.608  0.00  0.00    +0.000 OA
BRANCH  14  16
ATOM     16  O   UNL     1       2.159   1.494  18.690  0.00  0.00    +0.000 OA
ATOM     17  H   UNL     1       1.454   1.220  19.301  0.00  0.00    +0.000 HD
ENDBRANCH  14  16
ENDBRANCH  11  14
ENDBRANCH   4   8
BRANCH   2  18
ATOM     18  O   UNL     1       2.254  10.937  17.336  0.00  0.00    +0.000 OA
ATOM     19  H   UNL     1       2.620  11.749  17.737  0.00  0.00    +0.000 HD
ENDBRANCH   2  18
BRANCH   1  20
ATOM     20  S   UNL     1       0.306  12.198  19.324  0.00  0.00    +0.000 S 
BRANCH  20  26
ATOM     21  C   UNL     1      -2.533  12.380  19.682  0.00  0.00    +0.000 A 
ATOM     22  C   UNL     1      -3.845  12.090  19.233  0.00  0.00    +0.000 A 
ATOM     23  C   UNL     1      -4.083  11.384  18.060  0.00  0.00    +0.000 A 
ATOM     24  C   UNL     1      -3.012  10.946  17.301  0.00  0.00    +0.000 A 
ATOM     25  C   UNL     1      -1.706  11.228  17.709  0.00  0.00    +0.000 A 
ATOM     26  C   UNL     1      -1.434  11.969  18.876  0.00  0.00    +0.000 A 
BRANCH  21  28
ATOM     27  C   UNL     1      -2.262  14.642  20.900  0.00  0.00    +0.000 C 
ATOM     28  C   UNL     1      -2.462  13.128  21.013  0.00  0.00    +0.000 C 
ATOM     29  C   UNL     1      -3.568  12.688  21.973  0.00  0.00    +0.000 C 
ENDBRANCH  21  28
ENDBRANCH  20  26
ENDBRANCH   1  20
TORSDOF 7
ENDMDL
MODEL 9
REMARK VINA RESULT:      -7.6      5.703      9.339
REMARK  Name = 
REMARK  9 active torsions:
REMARK  status: ('A' for Active; 'I' for Inactive)
REMARK    1  A    between atoms: C_1  and  C_2
REMARK    2  A    between atoms: C_2  and  C_3
REMARK    3  A    between atoms: C_2  and  C_4
REMARK    4  A    between atoms: C_9  and  S_10
REMARK    5  A    between atoms: S_10  and  C_11
REMARK    6  A    between atoms: C_12  and  O_13
REMARK    7  A    between atoms: C_15  and  C_16
REMARK    8  A    between atoms: C_19  and  C_20
REMARK    9  A    between atoms: C_20  and  O_22
REMARK                            x       y       z     vdW  Elec       q    Type
REMARK                         _______ _______ _______ _____ _____    ______ ____
ROOT
ATOM      1  C   UNL     1       6.078   5.864  17.556  0.00  0.00    +0.000 A 
ATOM      2  C   UNL     1       7.117   5.873  18.406  0.00  0.00    +0.000 A 
ATOM      3  C   UNL     1       7.917   7.044  18.620  0.00  0.00    +0.000 A 
ATOM      4  C   UNL     1       7.672   8.151  17.908  0.00  0.00    +0.000 A 
ATOM      5  O   UNL     1       6.676   8.146  16.898  0.00  0.00    +0.000 OA
ATOM      6  C   UNL     1       5.912   7.032  16.637  0.00  0.00    +0.000 A 
ATOM      7  O   UNL     1       5.133   7.023  15.688  0.00  0.00    +0.000 OA
ENDROOT
BRANCH   4   8
ATOM      8  C   UNL     1       8.340   9.452  18.138  0.00  0.00    +0.000 A 
ATOM      9  C   UNL     1       8.023  10.597  17.387  0.00  0.00    +0.000 A 
ATOM     10  C   UNL     1       8.693  11.810  17.595  0.00  0.00    +0.000 A 
ATOM     11  C   UNL     1       9.698  11.911  18.566  0.00  0.00    +0.000 A 
ATOM     12  C   UNL     1      10.004  10.789  19.343  0.00  0.00    +0.000 A 
ATOM     13  C   UNL     1       9.330   9.576  19.126  0.00  0.00    +0.000 A 
BRANCH  11  14
ATOM     14  C   UNL     1      10.362  13.233  18.760  0.00  0.00    +0.000 C 
ATOM     15  O   UNL     1      10.353  14.103  17.900  0.00  0.00    +0.000 OA
BRANCH  14  16
ATOM     16  O   UNL     1      11.000  13.369  19.934  0.00  0.00    +0.000 OA
ATOM     17  H   UNL     1      11.828  12.867  20.022  0.00  0.00    +0.000 HD
ENDBRANCH  14  16
ENDBRANCH  11  14
ENDBRANCH   4   8
BRANCH   2  18
ATOM     18  O   UNL     1       7.505   4.797  19.168  0.00  0.00    +0.000 OA
ATOM     19  H   UNL     1       6.689   4.364  19.484  0.00  0.00    +0.000 HD
ENDBRANCH   2  18
BRANCH   1  20
ATOM     20  S   UNL     1       5.064   4.463  17.360  0.00  0.00    +0.000 S 
BRANCH  20  26
ATOM     21  C   UNL     1       2.690   3.794  18.822  0.00  0.00    +0.000 A 
ATOM     22  C   UNL     1       1.679   4.153  19.747  0.00  0.00    +0.000 A 
ATOM     23  C   UNL     1       1.655   5.398  20.365  0.00  0.00    +0.000 A 
ATOM     24  C   UNL     1       2.644   6.322  20.072  0.00  0.00    +0.000 A 
ATOM     25  C   UNL     1       3.663   5.993  19.175  0.00  0.00    +0.000 A 
ATOM     26  C   UNL     1       3.731   4.728  18.557  0.00  0.00    +0.000 A 
BRANCH  21  28
ATOM     27  C   UNL     1       3.680   1.430  18.500  0.00  0.00    +0.000 C 
ATOM     28  C   UNL     1       2.533   2.402  18.211  0.00  0.00    +0.000 C 
ATOM     29  C   UNL     1       1.129   1.838  18.433  0.00  0.00    +0.000 C 
ENDBRANCH  21  28
ENDBRANCH  20  26
ENDBRANCH   1  20
TORSDOF 7
ENDMDL
