MODEL 1
REMARK VINA RESULT:      -8.4      0.000      0.000
REMARK  Name = 
REMARK  3 active torsions:
REMARK  status: ('A' for Active; 'I' for Inactive)
REMARK    1  A    between atoms: S_2  and  C_4
REMARK    2  A    between atoms: S_2  and  N_11
REMARK    3  A    between atoms: C_14  and  C_15
REMARK                            x       y       z     vdW  Elec       q    Type
REMARK                         _______ _______ _______ _____ _____    ______ ____
ROOT
ATOM      1  N   UNL     1       4.461   5.710  18.376  0.00  0.00    +0.000 NA
ATOM      2  C   UNL     1       5.243   4.444  18.245  0.00  0.00    +0.000 C 
ATOM      3  C   UNL     1       6.751   4.685  18.255  0.00  0.00    +0.000 C 
ATOM      4  C   UNL     1       7.197   5.710  17.214  0.00  0.00    +0.000 C 
ATOM      5  C   UNL     1       6.424   7.005  17.454  0.00  0.00    +0.000 C 
ATOM      6  C   UNL     1       4.916   6.794  17.441  0.00  0.00    +0.000 C 
ENDROOT
BRANCH   4   7
ATOM      7  C   UNL     1       7.046   5.195  15.809  0.00  0.00    +0.000 A 
ATOM      8  N   UNL     1       7.749   5.565  14.757  0.00  0.00    +0.000 NA
ATOM      9  C   UNL     1       7.259   4.846  13.698  0.00  0.00    +0.000 A 
ATOM     10  C   UNL     1       7.651   4.855  12.351  0.00  0.00    +0.000 A 
ATOM     11  C   UNL     1       6.974   4.024  11.451  0.00  0.00    +0.000 A 
ATOM     12  C   UNL     1       5.929   3.202  11.886  0.00  0.00    +0.000 A 
ATOM     13  C   UNL     1       5.528   3.180  13.229  0.00  0.00    +0.000 A 
ATOM     14  C   UNL     1       6.221   4.019  14.104  0.00  0.00    +0.000 A 
ATOM     15  N   UNL     1       6.108   4.255  15.451  0.00  0.00    +0.000 N 
ATOM     16  H   UNL     1       5.442   3.818  16.071  0.00  0.00    +0.000 HD
ENDBRANCH   4   7
BRANCH   1  18
ATOM     17  O   UNL     1       2.552   4.765  16.914  0.00  0.00    +0.000 OA
ATOM     18  S   UNL     1       2.749   5.480  18.156  0.00  0.00    +0.000 S 
ATOM     19  O   UNL     1       2.107   6.761  18.378  0.00  0.00    +0.000 OA
BRANCH  18  20
ATOM     20  C   UNL     1       2.258   4.403  19.479  0.00  0.00    +0.000 A 
ATOM     21  C   UNL     1       2.621   4.712  20.793  0.00  0.00    +0.000 A 
ATOM     22  C   UNL     1       2.216   3.866  21.826  0.00  0.00    +0.000 A 
ATOM     23  C   UNL     1       1.451   2.738  21.538  0.00  0.00    +0.000 A 
ATOM     24  F   UNL     1       1.063   1.933  22.536  0.00  0.00    +0.000 F 
ATOM     25  C   UNL     1       1.076   2.434  20.233  0.00  0.00    +0.000 A 
ATOM     26  C   UNL     1       1.479   3.271  19.193  0.00  0.00    +0.000 A 
ENDBRANCH  18  20
ENDBRANCH   1  18
TORSDOF 3
ENDMDL
MODEL 2
REMARK VINA RESULT:      -8.4      0.146      1.170
REMARK  Name = 
REMARK  3 active torsions:
REMARK  status: ('A' for Active; 'I' for Inactive)
REMARK    1  A    between atoms: S_2  and  C_4
REMARK    2  A    between atoms: S_2  and  N_11
REMARK    3  A    between atoms: C_14  and  C_15
REMARK                            x       y       z     vdW  Elec       q    Type
REMARK                         _______ _______ _______ _____ _____    ______ ____
ROOT
ATOM      1  N   UNL     1       4.476   5.817  18.491  0.00  0.00    +0.000 NA
ATOM      2  C   UNL     1       5.184   4.509  18.359  0.00  0.00    +0.000 C 
ATOM      3  C   UNL     1       6.703   4.666  18.340  0.00  0.00    +0.000 C 
ATOM      4  C   UNL     1       7.186   5.656  17.281  0.00  0.00    +0.000 C 
ATOM      5  C   UNL     1       6.490   6.994  17.523  0.00  0.00    +0.000 C 
ATOM      6  C   UNL     1       4.973   6.867  17.538  0.00  0.00    +0.000 C 
ENDROOT
BRANCH   4   7
ATOM      7  C   UNL     1       6.982   5.139  15.884  0.00  0.00    +0.000 A 
ATOM      8  N   UNL     1       6.115   4.222  15.505  0.00  0.00    +0.000 NA
ATOM      9  C   UNL     1       6.293   4.063  14.155  0.00  0.00    +0.000 A 
ATOM     10  C   UNL     1       5.627   3.214  13.257  0.00  0.00    +0.000 A 
ATOM     11  C   UNL     1       6.010   3.232  11.911  0.00  0.00    +0.000 A 
ATOM     12  C   UNL     1       7.032   4.078  11.470  0.00  0.00    +0.000 A 
ATOM     13  C   UNL     1       7.703   4.934  12.354  0.00  0.00    +0.000 A 
ATOM     14  C   UNL     1       7.302   4.895  13.691  0.00  0.00    +0.000 A 
ATOM     15  N   UNL     1       7.722   5.572  14.808  0.00  0.00    +0.000 N 
ATOM     16  H   UNL     1       8.455   6.266  14.834  0.00  0.00    +0.000 HD
ENDBRANCH   4   7
BRANCH   1  18
ATOM     17  O   UNL     1       2.490   5.068  17.020  0.00  0.00    +0.000 OA
ATOM     18  S   UNL     1       2.750   5.680  18.305  0.00  0.00    +0.000 S 
ATOM     19  O   UNL     1       2.174   6.968  18.636  0.00  0.00    +0.000 OA
BRANCH  18  20
ATOM     20  C   UNL     1       2.243   4.531  19.559  0.00  0.00    +0.000 A 
ATOM     21  C   UNL     1       2.613   4.753  20.889  0.00  0.00    +0.000 A 
ATOM     22  C   UNL     1       2.196   3.852  21.869  0.00  0.00    +0.000 A 
ATOM     23  C   UNL     1       1.411   2.757  21.514  0.00  0.00    +0.000 A 
ATOM     24  F   UNL     1       1.011   1.898  22.461  0.00  0.00    +0.000 F 
ATOM     25  C   UNL     1       1.029   2.540  20.193  0.00  0.00    +0.000 A 
ATOM     26  C   UNL     1       1.445   3.433  19.206  0.00  0.00    +0.000 A 
ENDBRANCH  18  20
ENDBRANCH   1  18
TORSDOF 3
ENDMDL
MODEL 3
REMARK VINA RESULT:      -8.4      2.722      3.519
REMARK  Name = 
REMARK  3 active torsions:
REMARK  status: ('A' for Active; 'I' for Inactive)
REMARK    1  A    between atoms: S_2  and  C_4
REMARK    2  A    between atoms: S_2  and  N_11
REMARK    3  A    between atoms: C_14  and  C_15
REMARK                            x       y       z     vdW  Elec       q    Type
REMARK                         _______ _______ _______ _____ _____    ______ ____
ROOT
ATOM      1  N   UNL     1       4.853   5.774  18.766  0.00  0.00    +0.000 NA
ATOM      2  C   UNL     1       5.686   4.552  18.568  0.00  0.00    +0.000 C 
ATOM      3  C   UNL     1       7.157   4.880  18.323  0.00  0.00    +0.000 C 
ATOM      4  C   UNL     1       7.363   5.870  17.178  0.00  0.00    +0.000 C 
ATOM      5  C   UNL     1       6.554   7.129  17.481  0.00  0.00    +0.000 C 
ATOM      6  C   UNL     1       5.081   6.831  17.722  0.00  0.00    +0.000 C 
ENDROOT
BRANCH   4   7
ATOM      7  C   UNL     1       7.026   5.271  15.840  0.00  0.00    +0.000 A 
ATOM      8  N   UNL     1       6.027   4.454  15.575  0.00  0.00    +0.000 NA
ATOM      9  C   UNL     1       6.119   4.159  14.240  0.00  0.00    +0.000 A 
ATOM     10  C   UNL     1       5.303   3.338  13.445  0.00  0.00    +0.000 A 
ATOM     11  C   UNL     1       5.621   3.190  12.090  0.00  0.00    +0.000 A 
ATOM     12  C   UNL     1       6.726   3.848  11.540  0.00  0.00    +0.000 A 
ATOM     13  C   UNL     1       7.546   4.674  12.320  0.00  0.00    +0.000 A 
ATOM     14  C   UNL     1       7.206   4.803  13.668  0.00  0.00    +0.000 A 
ATOM     15  N   UNL     1       7.766   5.507  14.705  0.00  0.00    +0.000 N 
ATOM     16  H   UNL     1       8.585   6.093  14.643  0.00  0.00    +0.000 HD
ENDBRANCH   4   7
BRANCH   1  18
ATOM     17  O   UNL     1       2.897   4.668  20.040  0.00  0.00    +0.000 OA
ATOM     18  S   UNL     1       3.146   5.434  18.838  0.00  0.00    +0.000 S 
ATOM     19  O   UNL     1       2.751   4.918  17.542  0.00  0.00    +0.000 OA
BRANCH  18  20
ATOM     20  C   UNL     1       2.371   7.017  19.040  0.00  0.00    +0.000 A 
ATOM     21  C   UNL     1       2.168   7.835  17.924  0.00  0.00    +0.000 A 
ATOM     22  C   UNL     1       1.543   9.070  18.091  0.00  0.00    +0.000 A 
ATOM     23  C   UNL     1       1.122   9.467  19.359  0.00  0.00    +0.000 A 
ATOM     24  F   UNL     1       0.520  10.654  19.512  0.00  0.00    +0.000 F 
ATOM     25  C   UNL     1       1.311   8.651  20.471  0.00  0.00    +0.000 A 
ATOM     26  C   UNL     1       1.938   7.415  20.313  0.00  0.00    +0.000 A 
ENDBRANCH  18  20
ENDBRANCH   1  18
TORSDOF 3
ENDMDL
MODEL 4
REMARK VINA RESULT:      -8.1      2.708      3.302
REMARK  Name = 
REMARK  3 active torsions:
REMARK  status: ('A' for Active; 'I' for Inactive)
REMARK    1  A    between atoms: S_2  and  C_4
REMARK    2  A    between atoms: S_2  and  N_11
REMARK    3  A    between atoms: C_14  and  C_15
REMARK                            x       y       z     vdW  Elec       q    Type
REMARK                         _______ _______ _______ _____ _____    ______ ____
ROOT
ATOM      1  N   UNL     1       4.884   5.842  18.683  0.00  0.00    +0.000 NA
ATOM      2  C   UNL     1       5.747   4.638  18.502  0.00  0.00    +0.000 C 
ATOM      3  C   UNL     1       7.208   4.999  18.246  0.00  0.00    +0.000 C 
ATOM      4  C   UNL     1       7.386   5.976  17.085  0.00  0.00    +0.000 C 
ATOM      5  C   UNL     1       6.546   7.219  17.371  0.00  0.00    +0.000 C 
ATOM      6  C   UNL     1       5.081   6.887  17.622  0.00  0.00    +0.000 C 
ENDROOT
BRANCH   4   7
ATOM      7  C   UNL     1       7.060   5.347  15.758  0.00  0.00    +0.000 A 
ATOM      8  N   UNL     1       7.788   5.403  14.662  0.00  0.00    +0.000 NA
ATOM      9  C   UNL     1       7.097   4.703  13.708  0.00  0.00    +0.000 A 
ATOM     10  C   UNL     1       7.426   4.452  12.367  0.00  0.00    +0.000 A 
ATOM     11  C   UNL     1       6.533   3.709  11.586  0.00  0.00    +0.000 A 
ATOM     12  C   UNL     1       5.339   3.226  12.132  0.00  0.00    +0.000 A 
ATOM     13  C   UNL     1       4.999   3.465  13.471  0.00  0.00    +0.000 A 
ATOM     14  C   UNL     1       5.908   4.209  14.225  0.00  0.00    +0.000 A 
ATOM     15  N   UNL     1       5.909   4.628  15.532  0.00  0.00    +0.000 N 
ATOM     16  H   UNL     1       5.182   4.445  16.209  0.00  0.00    +0.000 HD
ENDBRANCH   4   7
BRANCH   1  18
ATOM     17  O   UNL     1       2.971   4.649  19.945  0.00  0.00    +0.000 OA
ATOM     18  S   UNL     1       3.186   5.460  18.766  0.00  0.00    +0.000 S 
ATOM     19  O   UNL     1       2.785   4.980  17.459  0.00  0.00    +0.000 OA
BRANCH  18  20
ATOM     20  C   UNL     1       2.378   7.018  19.033  0.00  0.00    +0.000 A 
ATOM     21  C   UNL     1       2.174   7.884  17.954  0.00  0.00    +0.000 A 
ATOM     22  C   UNL     1       1.524   9.098  18.172  0.00  0.00    +0.000 A 
ATOM     23  C   UNL     1       1.079   9.426  19.451  0.00  0.00    +0.000 A 
ATOM     24  F   UNL     1       0.453  10.593  19.652  0.00  0.00    +0.000 F 
ATOM     25  C   UNL     1       1.269   8.561  20.525  0.00  0.00    +0.000 A 
ATOM     26  C   UNL     1       1.921   7.347  20.317  0.00  0.00    +0.000 A 
ENDBRANCH  18  20
ENDBRANCH   1  18
TORSDOF 3
ENDMDL
MODEL 5
REMARK VINA RESULT:      -7.9      3.863      7.785
REMARK  Name = 
REMARK  3 active torsions:
REMARK  status: ('A' for Active; 'I' for Inactive)
REMARK    1  A    between atoms: S_2  and  C_4
REMARK    2  A    between atoms: S_2  and  N_11
REMARK    3  A    between atoms: C_14  and  C_15
REMARK                            x       y       z     vdW  Elec       q    Type
REMARK                         _______ _______ _______ _____ _____    ______ ____
ROOT
ATOM      1  N   UNL     1       5.488   4.950  17.109  0.00  0.00    +0.000 NA
ATOM      2  C   UNL     1       5.731   5.383  18.517  0.00  0.00    +0.000 C 
ATOM      3  C   UNL     1       4.936   4.558  19.527  0.00  0.00    +0.000 C 
ATOM      4  C   UNL     1       3.441   4.518  19.220  0.00  0.00    +0.000 C 
ATOM      5  C   UNL     1       3.257   3.988  17.799  0.00  0.00    +0.000 C 
ATOM      6  C   UNL     1       4.032   4.799  16.770  0.00  0.00    +0.000 C 
ENDROOT
BRANCH   4   7
ATOM      7  C   UNL     1       2.782   5.853  19.432  0.00  0.00    +0.000 A 
ATOM      8  N   UNL     1       2.613   6.798  18.530  0.00  0.00    +0.000 NA
ATOM      9  C   UNL     1       1.982   7.832  19.172  0.00  0.00    +0.000 A 
ATOM     10  C   UNL     1       1.569   9.077  18.674  0.00  0.00    +0.000 A 
ATOM     11  C   UNL     1       0.948   9.975  19.550  0.00  0.00    +0.000 A 
ATOM     12  C   UNL     1       0.744   9.638  20.892  0.00  0.00    +0.000 A 
ATOM     13  C   UNL     1       1.148   8.397  21.402  0.00  0.00    +0.000 A 
ATOM     14  C   UNL     1       1.764   7.521  20.506  0.00  0.00    +0.000 A 
ATOM     15  N   UNL     1       2.277   6.256  20.647  0.00  0.00    +0.000 N 
ATOM     16  H   UNL     1       2.288   5.717  21.501  0.00  0.00    +0.000 HD
ENDBRANCH   4   7
BRANCH   1  18
ATOM     17  O   UNL     1       7.536   6.361  16.413  0.00  0.00    +0.000 OA
ATOM     18  S   UNL     1       6.218   6.009  15.934  0.00  0.00    +0.000 S 
ATOM     19  O   UNL     1       5.250   7.040  15.619  0.00  0.00    +0.000 OA
BRANCH  18  20
ATOM     20  C   UNL     1       6.423   5.009  14.482  0.00  0.00    +0.000 A 
ATOM     21  C   UNL     1       5.458   4.050  14.161  0.00  0.00    +0.000 A 
ATOM     22  C   UNL     1       5.622   3.281  13.009  0.00  0.00    +0.000 A 
ATOM     23  C   UNL     1       6.732   3.485  12.192  0.00  0.00    +0.000 A 
ATOM     24  F   UNL     1       6.881   2.745  11.085  0.00  0.00    +0.000 F 
ATOM     25  C   UNL     1       7.689   4.448  12.501  0.00  0.00    +0.000 A 
ATOM     26  C   UNL     1       7.535   5.219  13.653  0.00  0.00    +0.000 A 
ENDBRANCH  18  20
ENDBRANCH   1  18
TORSDOF 3
ENDMDL
MODEL 6
REMARK VINA RESULT:      -7.9      1.253      2.020
REMARK  Name = 
REMARK  3 active torsions:
REMARK  status: ('A' for Active; 'I' for Inactive)
REMARK    1  A    between atoms: S_2  and  C_4
REMARK    2  A    between atoms: S_2  and  N_11
REMARK    3  A    between atoms: C_14  and  C_15
REMARK                            x       y       z     vdW  Elec       q    Type
REMARK                         _______ _______ _______ _____ _____    ______ ____
ROOT
ATOM      1  N   UNL     1       4.774   6.352  18.664  0.00  0.00    +0.000 NA
ATOM      2  C   UNL     1       5.106   4.901  18.548  0.00  0.00    +0.000 C 
ATOM      3  C   UNL     1       6.611   4.644  18.538  0.00  0.00    +0.000 C 
ATOM      4  C   UNL     1       7.348   5.458  17.476  0.00  0.00    +0.000 C 
ATOM      5  C   UNL     1       7.035   6.935  17.701  0.00  0.00    +0.000 C 
ATOM      6  C   UNL     1       5.540   7.220  17.706  0.00  0.00    +0.000 C 
ENDROOT
BRANCH   4   7
ATOM      7  C   UNL     1       7.019   5.000  16.081  0.00  0.00    +0.000 A 
ATOM      8  N   UNL     1       6.047   4.184  15.731  0.00  0.00    +0.000 NA
ATOM      9  C   UNL     1       6.136   4.044  14.371  0.00  0.00    +0.000 A 
ATOM     10  C   UNL     1       5.342   3.289  13.493  0.00  0.00    +0.000 A 
ATOM     11  C   UNL     1       5.652   3.305  12.128  0.00  0.00    +0.000 A 
ATOM     12  C   UNL     1       6.728   4.058  11.650  0.00  0.00    +0.000 A 
ATOM     13  C   UNL     1       7.527   4.821  12.513  0.00  0.00    +0.000 A 
ATOM     14  C   UNL     1       7.196   4.786  13.869  0.00  0.00    +0.000 A 
ATOM     15  N   UNL     1       7.740   5.388  14.975  0.00  0.00    +0.000 N 
ATOM     16  H   UNL     1       8.538   6.006  14.976  0.00  0.00    +0.000 HD
ENDBRANCH   4   7
BRANCH   1  18
ATOM     17  O   UNL     1       2.871   7.159  17.116  0.00  0.00    +0.000 OA
ATOM     18  S   UNL     1       3.076   6.682  18.466  0.00  0.00    +0.000 S 
ATOM     19  O   UNL     1       2.652   7.479  19.600  0.00  0.00    +0.000 OA
BRANCH  18  20
ATOM     20  C   UNL     1       2.283   5.100  18.601  0.00  0.00    +0.000 A 
ATOM     21  C   UNL     1       2.323   4.212  17.522  0.00  0.00    +0.000 A 
ATOM     22  C   UNL     1       1.711   2.964  17.645  0.00  0.00    +0.000 A 
ATOM     23  C   UNL     1       1.080   2.617  18.838  0.00  0.00    +0.000 A 
ATOM     24  F   UNL     1       0.496   1.417  18.950  0.00  0.00    +0.000 F 
ATOM     25  C   UNL     1       1.049   3.493  19.919  0.00  0.00    +0.000 A 
ATOM     26  C   UNL     1       1.655   4.744  19.804  0.00  0.00    +0.000 A 
ENDBRANCH  18  20
ENDBRANCH   1  18
TORSDOF 3
ENDMDL
MODEL 7
REMARK VINA RESULT:      -7.7      3.856      7.800
REMARK  Name = 
REMARK  3 active torsions:
REMARK  status: ('A' for Active; 'I' for Inactive)
REMARK    1  A    between atoms: S_2  and  C_4
REMARK    2  A    between atoms: S_2  and  N_11
REMARK    3  A    between atoms: C_14  and  C_15
REMARK                            x       y       z     vdW  Elec       q    Type
REMARK                         _______ _______ _______ _____ _____    ______ ____
ROOT
ATOM      1  N   UNL     1       5.465   4.589  17.309  0.00  0.00    +0.000 NA
ATOM      2  C   UNL     1       5.497   4.768  18.791  0.00  0.00    +0.000 C 
ATOM      3  C   UNL     1       4.423   3.948  19.502  0.00  0.00    +0.000 C 
ATOM      4  C   UNL     1       3.020   4.202  18.953  0.00  0.00    +0.000 C 
ATOM      5  C   UNL     1       3.034   3.920  17.453  0.00  0.00    +0.000 C 
ATOM      6  C   UNL     1       4.092   4.732  16.718  0.00  0.00    +0.000 C 
ENDROOT
BRANCH   4   7
ATOM      7  C   UNL     1       2.523   5.583  19.281  0.00  0.00    +0.000 A 
ATOM      8  N   UNL     1       2.070   5.999  20.446  0.00  0.00    +0.000 NA
ATOM      9  C   UNL     1       1.720   7.313  20.274  0.00  0.00    +0.000 A 
ATOM     10  C   UNL     1       1.187   8.227  21.196  0.00  0.00    +0.000 A 
ATOM     11  C   UNL     1       0.902   9.526  20.761  0.00  0.00    +0.000 A 
ATOM     12  C   UNL     1       1.144   9.905  19.437  0.00  0.00    +0.000 A 
ATOM     13  C   UNL     1       1.680   9.005  18.506  0.00  0.00    +0.000 A 
ATOM     14  C   UNL     1       1.954   7.716  18.967  0.00  0.00    +0.000 A 
ATOM     15  N   UNL     1       2.468   6.599  18.356  0.00  0.00    +0.000 N 
ATOM     16  H   UNL     1       2.751   6.536  17.389  0.00  0.00    +0.000 HD
ENDBRANCH   4   7
BRANCH   1  18
ATOM     17  O   UNL     1       7.828   5.616  17.123  0.00  0.00    +0.000 OA
ATOM     18  S   UNL     1       6.540   5.671  16.467  0.00  0.00    +0.000 S 
ATOM     19  O   UNL     1       5.848   6.935  16.310  0.00  0.00    +0.000 OA
BRANCH  18  20
ATOM     20  C   UNL     1       6.729   4.963  14.851  0.00  0.00    +0.000 A 
ATOM     21  C   UNL     1       5.924   3.885  14.470  0.00  0.00    +0.000 A 
ATOM     22  C   UNL     1       6.070   3.347  13.192  0.00  0.00    +0.000 A 
ATOM     23  C   UNL     1       7.003   3.893  12.313  0.00  0.00    +0.000 A 
ATOM     24  F   UNL     1       7.136   3.373  11.085  0.00  0.00    +0.000 F 
ATOM     25  C   UNL     1       7.798   4.974  12.683  0.00  0.00    +0.000 A 
ATOM     26  C   UNL     1       7.661   5.516  13.961  0.00  0.00    +0.000 A 
ENDBRANCH  18  20
ENDBRANCH   1  18
TORSDOF 3
ENDMDL
MODEL 8
REMARK VINA RESULT:      -7.6      3.848      7.623
REMARK  Name = 
REMARK  3 active torsions:
REMARK  status: ('A' for Active; 'I' for Inactive)
REMARK    1  A    between atoms: S_2  and  C_4
REMARK    2  A    between atoms: S_2  and  N_11
REMARK    3  A    between atoms: C_14  and  C_15
REMARK                            x       y       z     vdW  Elec       q    Type
REMARK                         _______ _______ _______ _____ _____    ______ ____
ROOT
ATOM      1  N   UNL     1       5.578   4.048  17.489  0.00  0.00    +0.000 NA
ATOM      2  C   UNL     1       5.375   4.192  18.961  0.00  0.00    +0.000 C 
ATOM      3  C   UNL     1       4.104   3.498  19.447  0.00  0.00    +0.000 C 
ATOM      4  C   UNL     1       2.857   3.933  18.680  0.00  0.00    +0.000 C 
ATOM      5  C   UNL     1       3.096   3.681  17.193  0.00  0.00    +0.000 C 
ATOM      6  C   UNL     1       4.353   4.371  16.680  0.00  0.00    +0.000 C 
ENDROOT
BRANCH   4   7
ATOM      7  C   UNL     1       2.477   5.358  18.975  0.00  0.00    +0.000 A 
ATOM      8  N   UNL     1       2.108   5.847  20.141  0.00  0.00    +0.000 NA
ATOM      9  C   UNL     1       1.848   7.177  19.933  0.00  0.00    +0.000 A 
ATOM     10  C   UNL     1       1.425   8.160  20.840  0.00  0.00    +0.000 A 
ATOM     11  C   UNL     1       1.216   9.461  20.368  0.00  0.00    +0.000 A 
ATOM     12  C   UNL     1       1.426   9.774  19.021  0.00  0.00    +0.000 A 
ATOM     13  C   UNL     1       1.853   8.804  18.104  0.00  0.00    +0.000 A 
ATOM     14  C   UNL     1       2.053   7.515  18.603  0.00  0.00    +0.000 A 
ATOM     15  N   UNL     1       2.456   6.342  18.014  0.00  0.00    +0.000 N 
ATOM     16  H   UNL     1       2.690   6.224  17.039  0.00  0.00    +0.000 HD
ENDBRANCH   4   7
BRANCH   1  18
ATOM     17  O   UNL     1       8.127   4.459  17.424  0.00  0.00    +0.000 OA
ATOM     18  S   UNL     1       6.901   5.006  16.885  0.00  0.00    +0.000 S 
ATOM     19  O   UNL     1       6.562   6.399  17.097  0.00  0.00    +0.000 OA
BRANCH  18  20
ATOM     20  C   UNL     1       6.911   4.720  15.134  0.00  0.00    +0.000 A 
ATOM     21  C   UNL     1       7.781   5.452  14.319  0.00  0.00    +0.000 A 
ATOM     22  C   UNL     1       7.792   5.208  12.946  0.00  0.00    +0.000 A 
ATOM     23  C   UNL     1       6.950   4.237  12.408  0.00  0.00    +0.000 A 
ATOM     24  F   UNL     1       6.968   4.006  11.089  0.00  0.00    +0.000 F 
ATOM     25  C   UNL     1       6.092   3.498  13.217  0.00  0.00    +0.000 A 
ATOM     26  C   UNL     1       6.071   3.737  14.591  0.00  0.00    +0.000 A 
ENDBRANCH  18  20
ENDBRANCH   1  18
TORSDOF 3
ENDMDL
MODEL 9
REMARK VINA RESULT:      -7.6      1.247      1.457
REMARK  Name = 
REMARK  3 active torsions:
REMARK  status: ('A' for Active; 'I' for Inactive)
REMARK    1  A    between atoms: S_2  and  C_4
REMARK    2  A    between atoms: S_2  and  N_11
REMARK    3  A    between atoms: C_14  and  C_15
REMARK                            x       y       z     vdW  Elec       q    Type
REMARK                         _______ _______ _______ _____ _____    ______ ____
ROOT
ATOM      1  N   UNL     1       4.799   6.334  18.650  0.00  0.00    +0.000 NA
ATOM      2  C   UNL     1       5.145   4.888  18.515  0.00  0.00    +0.000 C 
ATOM      3  C   UNL     1       6.653   4.645  18.521  0.00  0.00    +0.000 C 
ATOM      4  C   UNL     1       7.395   5.482  17.480  0.00  0.00    +0.000 C 
ATOM      5  C   UNL     1       7.066   6.953  17.724  0.00  0.00    +0.000 C 
ATOM      6  C   UNL     1       5.568   7.224  17.715  0.00  0.00    +0.000 C 
ENDROOT
BRANCH   4   7
ATOM      7  C   UNL     1       7.088   5.044  16.075  0.00  0.00    +0.000 A 
ATOM      8  N   UNL     1       7.764   5.357  14.989  0.00  0.00    +0.000 NA
ATOM      9  C   UNL     1       7.117   4.748  13.945  0.00  0.00    +0.000 A 
ATOM     10  C   UNL     1       7.420   4.755  12.575  0.00  0.00    +0.000 A 
ATOM     11  C   UNL     1       6.582   4.053  11.701  0.00  0.00    +0.000 A 
ATOM     12  C   UNL     1       5.468   3.359  12.183  0.00  0.00    +0.000 A 
ATOM     13  C   UNL     1       5.155   3.339  13.549  0.00  0.00    +0.000 A 
ATOM     14  C   UNL     1       6.007   4.048  14.398  0.00  0.00    +0.000 A 
ATOM     15  N   UNL     1       6.013   4.247  15.756  0.00  0.00    +0.000 N 
ATOM     16  H   UNL     1       5.336   3.877  16.407  0.00  0.00    +0.000 HD
ENDBRANCH   4   7
BRANCH   1  18
ATOM     17  O   UNL     1       2.899   7.088  17.071  0.00  0.00    +0.000 OA
ATOM     18  S   UNL     1       3.100   6.651  18.435  0.00  0.00    +0.000 S 
ATOM     19  O   UNL     1       2.669   7.480  19.544  0.00  0.00    +0.000 OA
BRANCH  18  20
ATOM     20  C   UNL     1       2.312   5.071  18.614  0.00  0.00    +0.000 A 
ATOM     21  C   UNL     1       1.679   4.746  19.818  0.00  0.00    +0.000 A 
ATOM     22  C   UNL     1       1.050   3.508  19.942  0.00  0.00    +0.000 A 
ATOM     23  C   UNL     1       1.049   2.620  18.868  0.00  0.00    +0.000 A 
ATOM     24  F   UNL     1       0.440   1.434  18.993  0.00  0.00    +0.000 F 
ATOM     25  C   UNL     1       1.667   2.945  17.663  0.00  0.00    +0.000 A 
ATOM     26  C   UNL     1       2.302   4.179  17.531  0.00  0.00    +0.000 A 
ENDBRANCH  18  20
ENDBRANCH   1  18
TORSDOF 3
ENDMDL
