MODEL 1
REMARK VINA RESULT:      -7.1      0.000      0.000
REMARK  Name = 
REMARK  12 active torsions:
REMARK  status: ('A' for Active; 'I' for Inactive)
REMARK    1  A    between atoms: C_1  and  C_2
REMARK    2  A    between atoms: C_2  and  C_3
REMARK    3  A    between atoms: C_3  and  C_4
REMARK    4  A    between atoms: C_4  and  C_5
REMARK    5  A    between atoms: C_5  and  C_6
REMARK    6  A    between atoms: C_6  and  C_7
REMARK    7  A    between atoms: C_7  and  C_8
REMARK    8  A    between atoms: C_8  and  C_9
REMARK    9  A    between atoms: C_9  and  C_10
REMARK   10  A    between atoms: C_10  and  O_11
REMARK   11  A    between atoms: O_11  and  C_12
REMARK   12  A    between atoms: N_17  and  C_18
REMARK                            x       y       z     vdW  Elec       q    Type
REMARK                         _______ _______ _______ _____ _____    ______ ____
ROOT
ATOM      1  C   UNL     1       7.222   5.618  19.158  0.00  0.00    +0.000 C 
ATOM      2  N   UNL     1       7.919   5.388  20.218  0.00  0.00    +0.000 NA
ATOM      3  N   UNL     1       7.718   5.390  17.905  0.00  0.00    +0.000 N 
ATOM      4  C   UNL     1       7.218   5.656  16.666  0.00  0.00    +0.000 C 
ATOM      5  N   UNL     1       6.335   6.582  16.470  0.00  0.00    +0.000 NA
ATOM      6  N   UNL     1       7.656   4.847  15.640  0.00  0.00    +0.000 N 
ATOM      7  H   UNL     1       7.398   5.611  21.066  0.00  0.00    +0.000 HD
ATOM      8  H   UNL     1       8.662   5.038  17.949  0.00  0.00    +0.000 HD
ATOM      9  H   UNL     1       6.128   7.010  17.379  0.00  0.00    +0.000 HD
ATOM     10  H   UNL     1       8.526   4.336  15.710  0.00  0.00    +0.000 HD
ENDROOT
BRANCH   6  11
ATOM     11  C   UNL     1       6.853   4.505  14.525  0.00  0.00    +0.000 A 
ATOM     12  C   UNL     1       5.527   4.080  14.689  0.00  0.00    +0.000 A 
ATOM     13  C   UNL     1       4.784   3.615  13.590  0.00  0.00    +0.000 A 
ATOM     14  C   UNL     1       5.355   3.583  12.320  0.00  0.00    +0.000 A 
ATOM     15 CL   UNL     1       4.459   2.983  10.979  0.00  0.00    +0.000 Cl
ATOM     16  C   UNL     1       6.660   4.017  12.131  0.00  0.00    +0.000 A 
ATOM     17  C   UNL     1       7.395   4.470  13.228  0.00  0.00    +0.000 A 
ENDBRANCH   6  11
BRANCH   1  18
ATOM     18  O   UNL     1       5.947   6.094  19.176  0.00  0.00    +0.000 OA
BRANCH  18  19
ATOM     19  C   UNL     1       4.838   5.183  19.156  0.00  0.00    +0.000 C 
BRANCH  19  20
ATOM     20  C   UNL     1       3.830   5.530  18.055  0.00  0.00    +0.000 C 
BRANCH  20  21
ATOM     21  C   UNL     1       2.960   4.341  17.645  0.00  0.00    +0.000 C 
BRANCH  21  22
ATOM     22  C   UNL     1       3.705   3.016  17.831  0.00  0.00    +0.000 C 
BRANCH  22  23
ATOM     23  C   UNL     1       2.844   1.995  18.576  0.00  0.00    +0.000 C 
BRANCH  23  24
ATOM     24  C   UNL     1       1.358   2.314  18.424  0.00  0.00    +0.000 C 
BRANCH  24  25
ATOM     25  C   UNL     1       0.781   2.890  19.716  0.00  0.00    +0.000 C 
BRANCH  25  26
ATOM     26  C   UNL     1       1.704   2.610  20.899  0.00  0.00    +0.000 C 
BRANCH  26  28
ATOM     27  C   UNL     1       1.538   5.116  20.895  0.00  0.00    +0.000 C 
ATOM     28  C   UNL     1       2.209   3.907  21.525  0.00  0.00    +0.000 C 
ENDBRANCH  26  28
ENDBRANCH  25  26
ENDBRANCH  24  25
ENDBRANCH  23  24
ENDBRANCH  22  23
ENDBRANCH  21  22
ENDBRANCH  20  21
ENDBRANCH  19  20
ENDBRANCH  18  19
ENDBRANCH   1  18
TORSDOF 11
ENDMDL
MODEL 2
REMARK VINA RESULT:      -6.9      0.800      1.231
REMARK  Name = 
REMARK  12 active torsions:
REMARK  status: ('A' for Active; 'I' for Inactive)
REMARK    1  A    between atoms: C_1  and  C_2
REMARK    2  A    between atoms: C_2  and  C_3
REMARK    3  A    between atoms: C_3  and  C_4
REMARK    4  A    between atoms: C_4  and  C_5
REMARK    5  A    between atoms: C_5  and  C_6
REMARK    6  A    between atoms: C_6  and  C_7
REMARK    7  A    between atoms: C_7  and  C_8
REMARK    8  A    between atoms: C_8  and  C_9
REMARK    9  A    between atoms: C_9  and  C_10
REMARK   10  A    between atoms: C_10  and  O_11
REMARK   11  A    between atoms: O_11  and  C_12
REMARK   12  A    between atoms: N_17  and  C_18
REMARK                            x       y       z     vdW  Elec       q    Type
REMARK                         _______ _______ _______ _____ _____    ______ ____
ROOT
ATOM      1  C   UNL     1       7.254   5.557  19.088  0.00  0.00    +0.000 C 
ATOM      2  N   UNL     1       8.013   5.381  20.115  0.00  0.00    +0.000 NA
ATOM      3  N   UNL     1       7.726   5.430  17.811  0.00  0.00    +0.000 N 
ATOM      4  C   UNL     1       7.151   5.671  16.600  0.00  0.00    +0.000 C 
ATOM      5  N   UNL     1       6.155   6.487  16.467  0.00  0.00    +0.000 NA
ATOM      6  N   UNL     1       7.645   4.954  15.532  0.00  0.00    +0.000 N 
ATOM      7  H   UNL     1       7.501   5.512  20.987  0.00  0.00    +0.000 HD
ATOM      8  H   UNL     1       8.707   5.196  17.811  0.00  0.00    +0.000 HD
ATOM      9  H   UNL     1       5.931   6.858  17.396  0.00  0.00    +0.000 HD
ATOM     10  H   UNL     1       8.573   4.552  15.555  0.00  0.00    +0.000 HD
ENDROOT
BRANCH   6  11
ATOM     11  C   UNL     1       6.848   4.551  14.433  0.00  0.00    +0.000 A 
ATOM     12  C   UNL     1       5.539   4.085  14.619  0.00  0.00    +0.000 A 
ATOM     13  C   UNL     1       4.806   3.561  13.540  0.00  0.00    +0.000 A 
ATOM     14  C   UNL     1       5.371   3.510  12.267  0.00  0.00    +0.000 A 
ATOM     15 CL   UNL     1       4.489   2.839  10.951  0.00  0.00    +0.000 Cl
ATOM     16  C   UNL     1       6.658   3.984  12.056  0.00  0.00    +0.000 A 
ATOM     17  C   UNL     1       7.383   4.495  13.134  0.00  0.00    +0.000 A 
ENDBRANCH   6  11
BRANCH   1  18
ATOM     18  O   UNL     1       5.931   5.870  19.165  0.00  0.00    +0.000 OA
BRANCH  18  19
ATOM     19  C   UNL     1       4.986   4.898  19.634  0.00  0.00    +0.000 C 
BRANCH  19  20
ATOM     20  C   UNL     1       4.763   3.777  18.612  0.00  0.00    +0.000 C 
BRANCH  20  21
ATOM     21  C   UNL     1       4.271   2.477  19.251  0.00  0.00    +0.000 C 
BRANCH  21  22
ATOM     22  C   UNL     1       3.267   1.756  18.346  0.00  0.00    +0.000 C 
BRANCH  22  23
ATOM     23  C   UNL     1       1.899   2.436  18.385  0.00  0.00    +0.000 C 
BRANCH  23  24
ATOM     24  C   UNL     1       1.385   2.557  19.818  0.00  0.00    +0.000 C 
BRANCH  24  25
ATOM     25  C   UNL     1       0.810   3.948  20.084  0.00  0.00    +0.000 C 
BRANCH  25  26
ATOM     26  C   UNL     1       1.820   4.823  20.823  0.00  0.00    +0.000 C 
BRANCH  26  28
ATOM     27  C   UNL     1       2.258   7.068  19.786  0.00  0.00    +0.000 C 
ATOM     28  C   UNL     1       1.412   6.293  20.783  0.00  0.00    +0.000 C 
ENDBRANCH  26  28
ENDBRANCH  25  26
ENDBRANCH  24  25
ENDBRANCH  23  24
ENDBRANCH  22  23
ENDBRANCH  21  22
ENDBRANCH  20  21
ENDBRANCH  19  20
ENDBRANCH  18  19
ENDBRANCH   1  18
TORSDOF 11
ENDMDL
MODEL 3
REMARK VINA RESULT:      -6.7      3.692      5.616
REMARK  Name = 
REMARK  12 active torsions:
REMARK  status: ('A' for Active; 'I' for Inactive)
REMARK    1  A    between atoms: C_1  and  C_2
REMARK    2  A    between atoms: C_2  and  C_3
REMARK    3  A    between atoms: C_3  and  C_4
REMARK    4  A    between atoms: C_4  and  C_5
REMARK    5  A    between atoms: C_5  and  C_6
REMARK    6  A    between atoms: C_6  and  C_7
REMARK    7  A    between atoms: C_7  and  C_8
REMARK    8  A    between atoms: C_8  and  C_9
REMARK    9  A    between atoms: C_9  and  C_10
REMARK   10  A    between atoms: C_10  and  O_11
REMARK   11  A    between atoms: O_11  and  C_12
REMARK   12  A    between atoms: N_17  and  C_18
REMARK                            x       y       z     vdW  Elec       q    Type
REMARK                         _______ _______ _______ _____ _____    ______ ____
ROOT
ATOM      1  C   UNL     1       2.869   2.654  17.868  0.00  0.00    +0.000 C 
ATOM      2  N   UNL     1       2.257   1.683  17.282  0.00  0.00    +0.000 NA
ATOM      3  N   UNL     1       4.217   2.840  17.742  0.00  0.00    +0.000 N 
ATOM      4  C   UNL     1       5.076   3.709  18.342  0.00  0.00    +0.000 C 
ATOM      5  N   UNL     1       4.810   4.254  19.486  0.00  0.00    +0.000 NA
ATOM      6  N   UNL     1       6.218   4.028  17.640  0.00  0.00    +0.000 N 
ATOM      7  H   UNL     1       1.257   1.694  17.481  0.00  0.00    +0.000 HD
ATOM      8  H   UNL     1       4.625   2.129  17.155  0.00  0.00    +0.000 HD
ATOM      9  H   UNL     1       3.892   3.909  19.787  0.00  0.00    +0.000 HD
ATOM     10  H   UNL     1       6.575   3.418  16.916  0.00  0.00    +0.000 HD
ENDROOT
BRANCH   6  11
ATOM     11  C   UNL     1       6.852   5.293  17.720  0.00  0.00    +0.000 A 
ATOM     12  C   UNL     1       7.775   5.577  18.735  0.00  0.00    +0.000 A 
ATOM     13  C   UNL     1       8.294   6.875  18.886  0.00  0.00    +0.000 A 
ATOM     14  C   UNL     1       7.903   7.892  18.018  0.00  0.00    +0.000 A 
ATOM     15 CL   UNL     1       8.511   9.489  18.221  0.00  0.00    +0.000 Cl
ATOM     16  C   UNL     1       7.005   7.628  16.994  0.00  0.00    +0.000 A 
ATOM     17  C   UNL     1       6.487   6.339  16.855  0.00  0.00    +0.000 A 
ENDBRANCH   6  11
BRANCH   1  18
ATOM     18  O   UNL     1       2.249   3.582  18.649  0.00  0.00    +0.000 OA
BRANCH  18  19
ATOM     19  C   UNL     1       1.059   3.235  19.372  0.00  0.00    +0.000 C 
BRANCH  19  20
ATOM     20  C   UNL     1       1.160   3.611  20.855  0.00  0.00    +0.000 C 
BRANCH  20  21
ATOM     21  C   UNL     1       1.968   4.889  21.093  0.00  0.00    +0.000 C 
BRANCH  21  22
ATOM     22  C   UNL     1       1.362   6.079  20.343  0.00  0.00    +0.000 C 
BRANCH  22  23
ATOM     23  C   UNL     1       2.449   7.029  19.840  0.00  0.00    +0.000 C 
BRANCH  23  24
ATOM     24  C   UNL     1       2.599   6.940  18.323  0.00  0.00    +0.000 C 
BRANCH  24  25
ATOM     25  C   UNL     1       2.643   8.329  17.689  0.00  0.00    +0.000 C 
BRANCH  25  26
ATOM     26  C   UNL     1       1.308   9.049  17.858  0.00  0.00    +0.000 C 
BRANCH  26  28
ATOM     27  C   UNL     1       0.815  10.442  19.890  0.00  0.00    +0.000 C 
ATOM     28  C   UNL     1       1.494  10.407  18.530  0.00  0.00    +0.000 C 
ENDBRANCH  26  28
ENDBRANCH  25  26
ENDBRANCH  24  25
ENDBRANCH  23  24
ENDBRANCH  22  23
ENDBRANCH  21  22
ENDBRANCH  20  21
ENDBRANCH  19  20
ENDBRANCH  18  19
ENDBRANCH   1  18
TORSDOF 11
ENDMDL
MODEL 4
REMARK VINA RESULT:      -6.7      0.645      2.039
REMARK  Name = 
REMARK  12 active torsions:
REMARK  status: ('A' for Active; 'I' for Inactive)
REMARK    1  A    between atoms: C_1  and  C_2
REMARK    2  A    between atoms: C_2  and  C_3
REMARK    3  A    between atoms: C_3  and  C_4
REMARK    4  A    between atoms: C_4  and  C_5
REMARK    5  A    between atoms: C_5  and  C_6
REMARK    6  A    between atoms: C_6  and  C_7
REMARK    7  A    between atoms: C_7  and  C_8
REMARK    8  A    between atoms: C_8  and  C_9
REMARK    9  A    between atoms: C_9  and  C_10
REMARK   10  A    between atoms: C_10  and  O_11
REMARK   11  A    between atoms: O_11  and  C_12
REMARK   12  A    between atoms: N_17  and  C_18
REMARK                            x       y       z     vdW  Elec       q    Type
REMARK                         _______ _______ _______ _____ _____    ______ ____
ROOT
ATOM      1  C   UNL     1       7.134   5.661  18.982  0.00  0.00    +0.000 C 
ATOM      2  N   UNL     1       7.855   5.550  20.045  0.00  0.00    +0.000 NA
ATOM      3  N   UNL     1       7.654   5.463  17.734  0.00  0.00    +0.000 N 
ATOM      4  C   UNL     1       7.124   5.630  16.490  0.00  0.00    +0.000 C 
ATOM      5  N   UNL     1       6.130   6.430  16.272  0.00  0.00    +0.000 NA
ATOM      6  N   UNL     1       7.661   4.855  15.485  0.00  0.00    +0.000 N 
ATOM      7  H   UNL     1       7.311   5.728  20.889  0.00  0.00    +0.000 HD
ATOM      8  H   UNL     1       8.636   5.237  17.783  0.00  0.00    +0.000 HD
ATOM      9  H   UNL     1       5.870   6.853  17.170  0.00  0.00    +0.000 HD
ATOM     10  H   UNL     1       8.589   4.461  15.565  0.00  0.00    +0.000 HD
ENDROOT
BRANCH   6  11
ATOM     11  C   UNL     1       6.907   4.383  14.382  0.00  0.00    +0.000 A 
ATOM     12  C   UNL     1       7.401   4.473  13.074  0.00  0.00    +0.000 A 
ATOM     13  C   UNL     1       6.592   4.127  11.978  0.00  0.00    +0.000 A 
ATOM     14  C   UNL     1       5.289   3.679  12.182  0.00  0.00    +0.000 A 
ATOM     15 CL   UNL     1       4.284   3.288  10.841  0.00  0.00    +0.000 Cl
ATOM     16  C   UNL     1       4.784   3.564  13.470  0.00  0.00    +0.000 A 
ATOM     17  C   UNL     1       5.591   3.917  14.554  0.00  0.00    +0.000 A 
ENDBRANCH   6  11
BRANCH   1  18
ATOM     18  O   UNL     1       5.809   5.970  18.992  0.00  0.00    +0.000 OA
BRANCH  18  19
ATOM     19  C   UNL     1       4.828   4.933  19.138  0.00  0.00    +0.000 C 
BRANCH  19  20
ATOM     20  C   UNL     1       3.846   4.903  17.960  0.00  0.00    +0.000 C 
BRANCH  20  21
ATOM     21  C   UNL     1       2.514   5.585  18.278  0.00  0.00    +0.000 C 
BRANCH  21  22
ATOM     22  C   UNL     1       2.522   6.197  19.681  0.00  0.00    +0.000 C 
BRANCH  22  23
ATOM     23  C   UNL     1       1.491   5.521  20.586  0.00  0.00    +0.000 C 
BRANCH  23  24
ATOM     24  C   UNL     1       2.129   4.401  21.406  0.00  0.00    +0.000 C 
BRANCH  24  25
ATOM     25  C   UNL     1       1.328   3.105  21.289  0.00  0.00    +0.000 C 
BRANCH  25  26
ATOM     26  C   UNL     1       2.162   2.005  20.636  0.00  0.00    +0.000 C 
BRANCH  26  28
ATOM     27  C   UNL     1       0.629   2.328  18.674  0.00  0.00    +0.000 C 
ATOM     28  C   UNL     1       2.059   2.061  19.115  0.00  0.00    +0.000 C 
ENDBRANCH  26  28
ENDBRANCH  25  26
ENDBRANCH  24  25
ENDBRANCH  23  24
ENDBRANCH  22  23
ENDBRANCH  21  22
ENDBRANCH  20  21
ENDBRANCH  19  20
ENDBRANCH  18  19
ENDBRANCH   1  18
TORSDOF 11
ENDMDL
MODEL 5
REMARK VINA RESULT:      -6.7      5.353      8.898
REMARK  Name = 
REMARK  12 active torsions:
REMARK  status: ('A' for Active; 'I' for Inactive)
REMARK    1  A    between atoms: C_1  and  C_2
REMARK    2  A    between atoms: C_2  and  C_3
REMARK    3  A    between atoms: C_3  and  C_4
REMARK    4  A    between atoms: C_4  and  C_5
REMARK    5  A    between atoms: C_5  and  C_6
REMARK    6  A    between atoms: C_6  and  C_7
REMARK    7  A    between atoms: C_7  and  C_8
REMARK    8  A    between atoms: C_8  and  C_9
REMARK    9  A    between atoms: C_9  and  C_10
REMARK   10  A    between atoms: C_10  and  O_11
REMARK   11  A    between atoms: O_11  and  C_12
REMARK   12  A    between atoms: N_17  and  C_18
REMARK                            x       y       z     vdW  Elec       q    Type
REMARK                         _______ _______ _______ _____ _____    ______ ____
ROOT
ATOM      1  C   UNL     1       6.634   5.849  16.315  0.00  0.00    +0.000 C 
ATOM      2  N   UNL     1       7.576   5.801  15.437  0.00  0.00    +0.000 NA
ATOM      3  N   UNL     1       5.585   4.973  16.298  0.00  0.00    +0.000 N 
ATOM      4  C   UNL     1       4.444   4.904  17.038  0.00  0.00    +0.000 C 
ATOM      5  N   UNL     1       3.950   5.943  17.631  0.00  0.00    +0.000 NA
ATOM      6  N   UNL     1       3.876   3.656  17.177  0.00  0.00    +0.000 N 
ATOM      7  H   UNL     1       8.277   6.524  15.597  0.00  0.00    +0.000 HD
ATOM      8  H   UNL     1       5.667   4.327  15.527  0.00  0.00    +0.000 HD
ATOM      9  H   UNL     1       4.566   6.738  17.428  0.00  0.00    +0.000 HD
ATOM     10  H   UNL     1       4.066   2.917  16.512  0.00  0.00    +0.000 HD
ENDROOT
BRANCH   6  11
ATOM     11  C   UNL     1       3.169   3.249  18.335  0.00  0.00    +0.000 A 
ATOM     12  C   UNL     1       1.770   3.292  18.383  0.00  0.00    +0.000 A 
ATOM     13  C   UNL     1       1.086   3.015  19.579  0.00  0.00    +0.000 A 
ATOM     14  C   UNL     1       1.795   2.683  20.732  0.00  0.00    +0.000 A 
ATOM     15 CL   UNL     1       0.963   2.378  22.206  0.00  0.00    +0.000 Cl
ATOM     16  C   UNL     1       3.181   2.616  20.703  0.00  0.00    +0.000 A 
ATOM     17  C   UNL     1       3.854   2.899  19.512  0.00  0.00    +0.000 A 
ENDBRANCH   6  11
BRANCH   1  18
ATOM     18  O   UNL     1       6.589   6.752  17.333  0.00  0.00    +0.000 OA
BRANCH  18  19
ATOM     19  C   UNL     1       7.806   7.233  17.923  0.00  0.00    +0.000 C 
BRANCH  19  20
ATOM     20  C   UNL     1       8.027   8.724  17.645  0.00  0.00    +0.000 C 
BRANCH  20  21
ATOM     21  C   UNL     1       8.838   9.421  18.739  0.00  0.00    +0.000 C 
BRANCH  21  22
ATOM     22  C   UNL     1       9.048  10.904  18.418  0.00  0.00    +0.000 C 
BRANCH  22  23
ATOM     23  C   UNL     1      10.409  11.141  17.763  0.00  0.00    +0.000 C 
BRANCH  23  24
ATOM     24  C   UNL     1      11.359  11.863  18.716  0.00  0.00    +0.000 C 
BRANCH  24  25
ATOM     25  C   UNL     1      12.102  12.994  18.006  0.00  0.00    +0.000 C 
BRANCH  25  26
ATOM     26  C   UNL     1      11.157  13.784  17.102  0.00  0.00    +0.000 C 
BRANCH  26  28
ATOM     27  C   UNL     1       9.040  14.697  18.099  0.00  0.00    +0.000 C 
ATOM     28  C   UNL     1      10.519  14.949  17.852  0.00  0.00    +0.000 C 
ENDBRANCH  26  28
ENDBRANCH  25  26
ENDBRANCH  24  25
ENDBRANCH  23  24
ENDBRANCH  22  23
ENDBRANCH  21  22
ENDBRANCH  20  21
ENDBRANCH  19  20
ENDBRANCH  18  19
ENDBRANCH   1  18
TORSDOF 11
ENDMDL
MODEL 6
REMARK VINA RESULT:      -6.6      0.695      1.833
REMARK  Name = 
REMARK  12 active torsions:
REMARK  status: ('A' for Active; 'I' for Inactive)
REMARK    1  A    between atoms: C_1  and  C_2
REMARK    2  A    between atoms: C_2  and  C_3
REMARK    3  A    between atoms: C_3  and  C_4
REMARK    4  A    between atoms: C_4  and  C_5
REMARK    5  A    between atoms: C_5  and  C_6
REMARK    6  A    between atoms: C_6  and  C_7
REMARK    7  A    between atoms: C_7  and  C_8
REMARK    8  A    between atoms: C_8  and  C_9
REMARK    9  A    between atoms: C_9  and  C_10
REMARK   10  A    between atoms: C_10  and  O_11
REMARK   11  A    between atoms: O_11  and  C_12
REMARK   12  A    between atoms: N_17  and  C_18
REMARK                            x       y       z     vdW  Elec       q    Type
REMARK                         _______ _______ _______ _____ _____    ______ ____
ROOT
ATOM      1  C   UNL     1       7.388   5.683  18.928  0.00  0.00    +0.000 C 
ATOM      2  N   UNL     1       8.141   5.483  19.955  0.00  0.00    +0.000 NA
ATOM      3  N   UNL     1       7.826   5.446  17.655  0.00  0.00    +0.000 N 
ATOM      4  C   UNL     1       7.260   5.684  16.439  0.00  0.00    +0.000 C 
ATOM      5  N   UNL     1       6.350   6.589  16.273  0.00  0.00    +0.000 NA
ATOM      6  N   UNL     1       7.663   4.868  15.404  0.00  0.00    +0.000 N 
ATOM      7  H   UNL     1       7.658   5.708  20.824  0.00  0.00    +0.000 HD
ATOM      8  H   UNL     1       8.778   5.114  17.656  0.00  0.00    +0.000 HD
ATOM      9  H   UNL     1       6.179   7.027  17.185  0.00  0.00    +0.000 HD
ATOM     10  H   UNL     1       8.545   4.375  15.438  0.00  0.00    +0.000 HD
ENDROOT
BRANCH   6  11
ATOM     11  C   UNL     1       6.812   4.493  14.334  0.00  0.00    +0.000 A 
ATOM     12  C   UNL     1       5.489   4.096  14.566  0.00  0.00    +0.000 A 
ATOM     13  C   UNL     1       4.697   3.598  13.517  0.00  0.00    +0.000 A 
ATOM     14  C   UNL     1       5.218   3.506  12.228  0.00  0.00    +0.000 A 
ATOM     15 CL   UNL     1       4.263   2.866  10.948  0.00  0.00    +0.000 Cl
ATOM     16  C   UNL     1       6.520   3.912  11.971  0.00  0.00    +0.000 A 
ATOM     17  C   UNL     1       7.303   4.398  13.021  0.00  0.00    +0.000 A 
ENDBRANCH   6  11
BRANCH   1  18
ATOM     18  O   UNL     1       6.106   6.134  19.002  0.00  0.00    +0.000 OA
BRANCH  18  19
ATOM     19  C   UNL     1       5.030   5.211  19.227  0.00  0.00    +0.000 C 
BRANCH  19  20
ATOM     20  C   UNL     1       3.911   5.373  18.191  0.00  0.00    +0.000 C 
BRANCH  20  21
ATOM     21  C   UNL     1       2.557   5.705  18.823  0.00  0.00    +0.000 C 
BRANCH  21  22
ATOM     22  C   UNL     1       2.409   5.049  20.198  0.00  0.00    +0.000 C 
BRANCH  22  23
ATOM     23  C   UNL     1       0.948   4.714  20.498  0.00  0.00    +0.000 C 
BRANCH  23  24
ATOM     24  C   UNL     1       0.665   3.231  20.268  0.00  0.00    +0.000 C 
BRANCH  24  25
ATOM     25  C   UNL     1       1.962   2.433  20.141  0.00  0.00    +0.000 C 
BRANCH  25  26
ATOM     26  C   UNL     1       2.103   1.841  18.741  0.00  0.00    +0.000 C 
BRANCH  26  28
ATOM     27  C   UNL     1       4.471   1.776  19.577  0.00  0.00    +0.000 C 
ATOM     28  C   UNL     1       3.571   1.673  18.357  0.00  0.00    +0.000 C 
ENDBRANCH  26  28
ENDBRANCH  25  26
ENDBRANCH  24  25
ENDBRANCH  23  24
ENDBRANCH  22  23
ENDBRANCH  21  22
ENDBRANCH  20  21
ENDBRANCH  19  20
ENDBRANCH  18  19
ENDBRANCH   1  18
TORSDOF 11
ENDMDL
MODEL 7
REMARK VINA RESULT:      -6.6      4.496      6.132
REMARK  Name = 
REMARK  12 active torsions:
REMARK  status: ('A' for Active; 'I' for Inactive)
REMARK    1  A    between atoms: C_1  and  C_2
REMARK    2  A    between atoms: C_2  and  C_3
REMARK    3  A    between atoms: C_3  and  C_4
REMARK    4  A    between atoms: C_4  and  C_5
REMARK    5  A    between atoms: C_5  and  C_6
REMARK    6  A    between atoms: C_6  and  C_7
REMARK    7  A    between atoms: C_7  and  C_8
REMARK    8  A    between atoms: C_8  and  C_9
REMARK    9  A    between atoms: C_9  and  C_10
REMARK   10  A    between atoms: C_10  and  O_11
REMARK   11  A    between atoms: O_11  and  C_12
REMARK   12  A    between atoms: N_17  and  C_18
REMARK                            x       y       z     vdW  Elec       q    Type
REMARK                         _______ _______ _______ _____ _____    ______ ____
ROOT
ATOM      1  C   UNL     1       2.082   2.307  18.741  0.00  0.00    +0.000 C 
ATOM      2  N   UNL     1       1.088   1.612  18.304  0.00  0.00    +0.000 NA
ATOM      3  N   UNL     1       3.209   2.504  17.995  0.00  0.00    +0.000 N 
ATOM      4  C   UNL     1       4.402   3.094  18.285  0.00  0.00    +0.000 C 
ATOM      5  N   UNL     1       4.830   3.208  19.502  0.00  0.00    +0.000 NA
ATOM      6  N   UNL     1       5.102   3.622  17.221  0.00  0.00    +0.000 N 
ATOM      7  H   UNL     1       0.331   1.568  18.986  0.00  0.00    +0.000 HD
ATOM      8  H   UNL     1       3.137   2.038  17.103  0.00  0.00    +0.000 HD
ATOM      9  H   UNL     1       4.124   2.793  20.119  0.00  0.00    +0.000 HD
ATOM     10  H   UNL     1       4.940   3.300  16.276  0.00  0.00    +0.000 HD
ENDROOT
BRANCH   6  11
ATOM     11  C   UNL     1       5.927   4.768  17.327  0.00  0.00    +0.000 A 
ATOM     12  C   UNL     1       7.107   4.744  18.084  0.00  0.00    +0.000 A 
ATOM     13  C   UNL     1       7.846   5.921  18.293  0.00  0.00    +0.000 A 
ATOM     14  C   UNL     1       7.419   7.126  17.739  0.00  0.00    +0.000 A 
ATOM     15 CL   UNL     1       8.303   8.574  18.021  0.00  0.00    +0.000 Cl
ATOM     16  C   UNL     1       6.264   7.169  16.970  0.00  0.00    +0.000 A 
ATOM     17  C   UNL     1       5.530   5.997  16.773  0.00  0.00    +0.000 A 
ENDBRANCH   6  11
BRANCH   1  18
ATOM     18  O   UNL     1       2.108   2.911  19.961  0.00  0.00    +0.000 OA
BRANCH  18  19
ATOM     19  C   UNL     1       1.277   4.052  20.218  0.00  0.00    +0.000 C 
BRANCH  19  20
ATOM     20  C   UNL     1       2.049   5.368  20.070  0.00  0.00    +0.000 C 
BRANCH  20  21
ATOM     21  C   UNL     1       2.097   5.872  18.626  0.00  0.00    +0.000 C 
BRANCH  21  22
ATOM     22  C   UNL     1       2.734   7.262  18.542  0.00  0.00    +0.000 C 
BRANCH  22  23
ATOM     23  C   UNL     1       1.798   8.336  19.095  0.00  0.00    +0.000 C 
BRANCH  23  24
ATOM     24  C   UNL     1       1.319   9.271  17.987  0.00  0.00    +0.000 C 
BRANCH  24  25
ATOM     25  C   UNL     1       1.934  10.662  18.133  0.00  0.00    +0.000 C 
BRANCH  25  26
ATOM     26  C   UNL     1       1.187  11.482  19.183  0.00  0.00    +0.000 C 
BRANCH  26  28
ATOM     27  C   UNL     1       2.687  13.210  18.148  0.00  0.00    +0.000 C 
ATOM     28  C   UNL     1       1.791  12.875  19.329  0.00  0.00    +0.000 C 
ENDBRANCH  26  28
ENDBRANCH  25  26
ENDBRANCH  24  25
ENDBRANCH  23  24
ENDBRANCH  22  23
ENDBRANCH  21  22
ENDBRANCH  20  21
ENDBRANCH  19  20
ENDBRANCH  18  19
ENDBRANCH   1  18
TORSDOF 11
ENDMDL
MODEL 8
REMARK VINA RESULT:      -6.5      0.727      1.330
REMARK  Name = 
REMARK  12 active torsions:
REMARK  status: ('A' for Active; 'I' for Inactive)
REMARK    1  A    between atoms: C_1  and  C_2
REMARK    2  A    between atoms: C_2  and  C_3
REMARK    3  A    between atoms: C_3  and  C_4
REMARK    4  A    between atoms: C_4  and  C_5
REMARK    5  A    between atoms: C_5  and  C_6
REMARK    6  A    between atoms: C_6  and  C_7
REMARK    7  A    between atoms: C_7  and  C_8
REMARK    8  A    between atoms: C_8  and  C_9
REMARK    9  A    between atoms: C_9  and  C_10
REMARK   10  A    between atoms: C_10  and  O_11
REMARK   11  A    between atoms: O_11  and  C_12
REMARK   12  A    between atoms: N_17  and  C_18
REMARK                            x       y       z     vdW  Elec       q    Type
REMARK                         _______ _______ _______ _____ _____    ______ ____
ROOT
ATOM      1  C   UNL     1       7.375   5.844  18.809  0.00  0.00    +0.000 C 
ATOM      2  N   UNL     1       8.208   5.884  19.792  0.00  0.00    +0.000 NA
ATOM      3  N   UNL     1       7.794   5.776  17.510  0.00  0.00    +0.000 N 
ATOM      4  C   UNL     1       7.116   5.834  16.331  0.00  0.00    +0.000 C 
ATOM      5  N   UNL     1       5.955   6.399  16.237  0.00  0.00    +0.000 NA
ATOM      6  N   UNL     1       7.701   5.204  15.254  0.00  0.00    +0.000 N 
ATOM      7  H   UNL     1       7.728   5.931  20.690  0.00  0.00    +0.000 HD
ATOM      8  H   UNL     1       8.801   5.769  17.456  0.00  0.00    +0.000 HD
ATOM      9  H   UNL     1       5.703   6.747  17.168  0.00  0.00    +0.000 HD
ATOM     10  H   UNL     1       8.696   5.022  15.230  0.00  0.00    +0.000 HD
ENDROOT
BRANCH   6  11
ATOM     11  C   UNL     1       6.958   4.589  14.216  0.00  0.00    +0.000 A 
ATOM     12  C   UNL     1       7.444   4.548  12.902  0.00  0.00    +0.000 A 
ATOM     13  C   UNL     1       6.642   4.057  11.858  0.00  0.00    +0.000 A 
ATOM     14  C   UNL     1       5.355   3.594  12.121  0.00  0.00    +0.000 A 
ATOM     15 CL   UNL     1       4.357   3.024  10.840  0.00  0.00    +0.000 Cl
ATOM     16  C   UNL     1       4.860   3.606  13.417  0.00  0.00    +0.000 A 
ATOM     17  C   UNL     1       5.660   4.103  14.449  0.00  0.00    +0.000 A 
ENDBRANCH   6  11
BRANCH   1  18
ATOM     18  O   UNL     1       6.022   5.855  18.959  0.00  0.00    +0.000 OA
BRANCH  18  19
ATOM     19  C   UNL     1       5.331   4.662  19.354  0.00  0.00    +0.000 C 
BRANCH  19  20
ATOM     20  C   UNL     1       4.491   4.081  18.211  0.00  0.00    +0.000 C 
BRANCH  20  21
ATOM     21  C   UNL     1       4.275   2.572  18.336  0.00  0.00    +0.000 C 
BRANCH  21  22
ATOM     22  C   UNL     1       2.920   2.153  17.757  0.00  0.00    +0.000 C 
BRANCH  22  23
ATOM     23  C   UNL     1       1.959   3.339  17.682  0.00  0.00    +0.000 C 
BRANCH  23  24
ATOM     24  C   UNL     1       0.777   3.150  18.631  0.00  0.00    +0.000 C 
BRANCH  24  25
ATOM     25  C   UNL     1       1.203   2.430  19.909  0.00  0.00    +0.000 C 
BRANCH  25  26
ATOM     26  C   UNL     1       1.222   3.390  21.097  0.00  0.00    +0.000 C 
BRANCH  26  28
ATOM     27  C   UNL     1       1.467   5.875  20.828  0.00  0.00    +0.000 C 
ATOM     28  C   UNL     1       2.195   4.541  20.862  0.00  0.00    +0.000 C 
ENDBRANCH  26  28
ENDBRANCH  25  26
ENDBRANCH  24  25
ENDBRANCH  23  24
ENDBRANCH  22  23
ENDBRANCH  21  22
ENDBRANCH  20  21
ENDBRANCH  19  20
ENDBRANCH  18  19
ENDBRANCH   1  18
TORSDOF 11
ENDMDL
MODEL 9
REMARK VINA RESULT:      -6.5      4.049      5.690
REMARK  Name = 
REMARK  12 active torsions:
REMARK  status: ('A' for Active; 'I' for Inactive)
REMARK    1  A    between atoms: C_1  and  C_2
REMARK    2  A    between atoms: C_2  and  C_3
REMARK    3  A    between atoms: C_3  and  C_4
REMARK    4  A    between atoms: C_4  and  C_5
REMARK    5  A    between atoms: C_5  and  C_6
REMARK    6  A    between atoms: C_6  and  C_7
REMARK    7  A    between atoms: C_7  and  C_8
REMARK    8  A    between atoms: C_8  and  C_9
REMARK    9  A    between atoms: C_9  and  C_10
REMARK   10  A    between atoms: C_10  and  O_11
REMARK   11  A    between atoms: O_11  and  C_12
REMARK   12  A    between atoms: N_17  and  C_18
REMARK                            x       y       z     vdW  Elec       q    Type
REMARK                         _______ _______ _______ _____ _____    ______ ____
ROOT
ATOM      1  C   UNL     1       1.498   2.221  18.792  0.00  0.00    +0.000 C 
ATOM      2  N   UNL     1       0.291   1.863  18.514  0.00  0.00    +0.000 NA
ATOM      3  N   UNL     1       2.353   2.684  17.832  0.00  0.00    +0.000 N 
ATOM      4  C   UNL     1       3.676   3.008  17.871  0.00  0.00    +0.000 C 
ATOM      5  N   UNL     1       4.473   2.520  18.766  0.00  0.00    +0.000 NA
ATOM      6  N   UNL     1       4.109   3.934  16.946  0.00  0.00    +0.000 N 
ATOM      7  H   UNL     1      -0.208   1.545  19.345  0.00  0.00    +0.000 HD
ATOM      8  H   UNL     1       1.909   2.692  16.927  0.00  0.00    +0.000 HD
ATOM      9  H   UNL     1       3.920   1.902  19.370  0.00  0.00    +0.000 HD
ATOM     10  H   UNL     1       3.596   4.098  16.089  0.00  0.00    +0.000 HD
ENDROOT
BRANCH   6  11
ATOM     11  C   UNL     1       5.155   4.854  17.200  0.00  0.00    +0.000 A 
ATOM     12  C   UNL     1       5.916   4.780  18.375  0.00  0.00    +0.000 A 
ATOM     13  C   UNL     1       6.859   5.777  18.680  0.00  0.00    +0.000 A 
ATOM     14  C   UNL     1       7.057   6.846  17.808  0.00  0.00    +0.000 A 
ATOM     15 CL   UNL     1       8.187   8.085  18.194  0.00  0.00    +0.000 Cl
ATOM     16  C   UNL     1       6.329   6.929  16.629  0.00  0.00    +0.000 A 
ATOM     17  C   UNL     1       5.387   5.939  16.337  0.00  0.00    +0.000 A 
ENDBRANCH   6  11
BRANCH   1  18
ATOM     18  O   UNL     1       2.032   2.185  20.044  0.00  0.00    +0.000 OA
BRANCH  18  19
ATOM     19  C   UNL     1       1.610   3.134  21.035  0.00  0.00    +0.000 C 
BRANCH  19  20
ATOM     20  C   UNL     1       1.154   4.455  20.404  0.00  0.00    +0.000 C 
BRANCH  20  21
ATOM     21  C   UNL     1       2.289   5.471  20.261  0.00  0.00    +0.000 C 
BRANCH  21  22
ATOM     22  C   UNL     1       2.133   6.303  18.985  0.00  0.00    +0.000 C 
BRANCH  22  23
ATOM     23  C   UNL     1       2.476   7.772  19.236  0.00  0.00    +0.000 C 
BRANCH  23  24
ATOM     24  C   UNL     1       1.258   8.541  19.744  0.00  0.00    +0.000 C 
BRANCH  24  25
ATOM     25  C   UNL     1       1.183   8.512  21.270  0.00  0.00    +0.000 C 
BRANCH  25  26
ATOM     26  C   UNL     1      -0.245   8.764  21.751  0.00  0.00    +0.000 C 
BRANCH  26  28
ATOM     27  C   UNL     1      -0.676  11.048  22.701  0.00  0.00    +0.000 C 
ATOM     28  C   UNL     1      -0.260   9.620  23.014  0.00  0.00    +0.000 C 
ENDBRANCH  26  28
ENDBRANCH  25  26
ENDBRANCH  24  25
ENDBRANCH  23  24
ENDBRANCH  22  23
ENDBRANCH  21  22
ENDBRANCH  20  21
ENDBRANCH  19  20
ENDBRANCH  18  19
ENDBRANCH   1  18
TORSDOF 11
ENDMDL
