MODEL 1
REMARK VINA RESULT:      -6.9      0.000      0.000
REMARK  Name = 
REMARK  5 active torsions:
REMARK  status: ('A' for Active; 'I' for Inactive)
REMARK    1  A    between atoms: C_1  and  N_2
REMARK    2  A    between atoms: N_6  and  C_7
REMARK    3  A    between atoms: C_8  and  C_9
REMARK    4  A    between atoms: C_11  and  N_12
REMARK    5  A    between atoms: C_17  and  O_18
REMARK                            x       y       z     vdW  Elec       q    Type
REMARK                         _______ _______ _______ _____ _____    ______ ____
ROOT
ATOM      1  C   UNL     1       5.228   4.584  18.176  0.00  0.00    +0.000 A 
ATOM      2  C   UNL     1       5.181   4.514  16.770  0.00  0.00    +0.000 A 
ATOM      3  C   UNL     1       6.293   4.782  15.966  0.00  0.00    +0.000 A 
ATOM      4  C   UNL     1       7.510   5.129  16.548  0.00  0.00    +0.000 A 
ATOM      5  C   UNL     1       7.595   5.204  17.940  0.00  0.00    +0.000 A 
ATOM      6  C   UNL     1       6.469   4.938  18.738  0.00  0.00    +0.000 A 
ENDROOT
BRANCH   1  14
ATOM      7  C   UNL     1       3.011   2.802  20.717  0.00  0.00    +0.000 C 
ATOM      8  N   UNL     1       3.953   2.913  19.593  0.00  0.00    +0.000 NA
ATOM      9  C   UNL     1       3.638   1.910  18.576  0.00  0.00    +0.000 C 
ATOM     10  C   UNL     1       2.389   2.232  17.756  0.00  0.00    +0.000 C 
ATOM     11  C   UNL     1       2.230   3.712  17.396  0.00  0.00    +0.000 C 
ATOM     12  N   UNL     1       2.674   4.606  18.455  0.00  0.00    +0.000 NA
ATOM     13  C   UNL     1       2.530   6.013  18.103  0.00  0.00    +0.000 C 
ATOM     14  C   UNL     1       3.984   4.290  19.050  0.00  0.00    +0.000 C 
ENDBRANCH   1  14
BRANCH   3  15
ATOM     15  N   UNL     1       6.161   4.693  14.504  0.00  0.00    +0.000 N 
ATOM     16  O   UNL     1       5.154   4.134  14.046  0.00  0.00    +0.000 OA
ATOM     17  O   UNL     1       7.063   5.187  13.818  0.00  0.00    +0.000 OA
ENDBRANCH   3  15
BRANCH   6  18
ATOM     18  O   UNL     1       6.593   5.042  20.095  0.00  0.00    +0.000 OA
ATOM     19  H   UNL     1       6.055   4.354  20.526  0.00  0.00    +0.000 HD
ENDBRANCH   6  18
TORSDOF 3
ENDMDL
MODEL 2
REMARK VINA RESULT:      -6.8      1.880      2.370
REMARK  Name = 
REMARK  5 active torsions:
REMARK  status: ('A' for Active; 'I' for Inactive)
REMARK    1  A    between atoms: C_1  and  N_2
REMARK    2  A    between atoms: N_6  and  C_7
REMARK    3  A    between atoms: C_8  and  C_9
REMARK    4  A    between atoms: C_11  and  N_12
REMARK    5  A    between atoms: C_17  and  O_18
REMARK                            x       y       z     vdW  Elec       q    Type
REMARK                         _______ _______ _______ _____ _____    ______ ____
ROOT
ATOM      1  C   UNL     1       3.974   5.043  18.335  0.00  0.00    +0.000 A 
ATOM      2  C   UNL     1       5.177   4.517  17.826  0.00  0.00    +0.000 A 
ATOM      3  C   UNL     1       6.080   5.287  17.085  0.00  0.00    +0.000 A 
ATOM      4  C   UNL     1       5.811   6.630  16.830  0.00  0.00    +0.000 A 
ATOM      5  C   UNL     1       4.628   7.185  17.323  0.00  0.00    +0.000 A 
ATOM      6  C   UNL     1       3.726   6.400  18.061  0.00  0.00    +0.000 A 
ENDROOT
BRANCH   1  14
ATOM      7  C   UNL     1       2.663   2.868  21.181  0.00  0.00    +0.000 C 
ATOM      8  N   UNL     1       3.637   3.345  20.187  0.00  0.00    +0.000 NA
ATOM      9  C   UNL     1       4.376   2.213  19.628  0.00  0.00    +0.000 C 
ATOM     10  C   UNL     1       3.563   1.368  18.648  0.00  0.00    +0.000 C 
ATOM     11  C   UNL     1       2.651   2.175  17.719  0.00  0.00    +0.000 C 
ATOM     12  N   UNL     1       2.057   3.333  18.370  0.00  0.00    +0.000 NA
ATOM     13  C   UNL     1       1.199   4.102  17.479  0.00  0.00    +0.000 C 
ATOM     14  C   UNL     1       2.984   4.173  19.147  0.00  0.00    +0.000 C 
ENDBRANCH   1  14
BRANCH   3  15
ATOM     15  N   UNL     1       7.314   4.663  16.582  0.00  0.00    +0.000 N 
ATOM     16  O   UNL     1       8.111   4.204  17.413  0.00  0.00    +0.000 OA
ATOM     17  O   UNL     1       7.479   4.629  15.358  0.00  0.00    +0.000 OA
ENDBRANCH   3  15
BRANCH   6  18
ATOM     18  O   UNL     1       2.572   6.982  18.508  0.00  0.00    +0.000 OA
ATOM     19  H   UNL     1       2.736   7.415  19.365  0.00  0.00    +0.000 HD
ENDBRANCH   6  18
TORSDOF 3
ENDMDL
MODEL 3
REMARK VINA RESULT:      -6.7      2.130      3.340
REMARK  Name = 
REMARK  5 active torsions:
REMARK  status: ('A' for Active; 'I' for Inactive)
REMARK    1  A    between atoms: C_1  and  N_2
REMARK    2  A    between atoms: N_6  and  C_7
REMARK    3  A    between atoms: C_8  and  C_9
REMARK    4  A    between atoms: C_11  and  N_12
REMARK    5  A    between atoms: C_17  and  O_18
REMARK                            x       y       z     vdW  Elec       q    Type
REMARK                         _______ _______ _______ _____ _____    ______ ____
ROOT
ATOM      1  C   UNL     1       3.667   4.615  18.186  0.00  0.00    +0.000 A 
ATOM      2  C   UNL     1       5.022   4.243  18.084  0.00  0.00    +0.000 A 
ATOM      3  C   UNL     1       6.021   5.142  17.696  0.00  0.00    +0.000 A 
ATOM      4  C   UNL     1       5.697   6.464  17.400  0.00  0.00    +0.000 A 
ATOM      5  C   UNL     1       4.364   6.869  17.496  0.00  0.00    +0.000 A 
ATOM      6  C   UNL     1       3.367   5.955  17.880  0.00  0.00    +0.000 A 
ENDROOT
BRANCH   1  14
ATOM      7  C   UNL     1       0.379   3.337  19.636  0.00  0.00    +0.000 C 
ATOM      8  N   UNL     1       1.599   4.156  19.579  0.00  0.00    +0.000 NA
ATOM      9  C   UNL     1       2.161   4.311  20.920  0.00  0.00    +0.000 C 
ATOM     10  C   UNL     1       2.849   3.054  21.452  0.00  0.00    +0.000 C 
ATOM     11  C   UNL     1       3.661   2.285  20.406  0.00  0.00    +0.000 C 
ATOM     12  N   UNL     1       3.043   2.291  19.088  0.00  0.00    +0.000 NA
ATOM     13  C   UNL     1       3.824   1.567  18.095  0.00  0.00    +0.000 C 
ATOM     14  C   UNL     1       2.574   3.603  18.610  0.00  0.00    +0.000 C 
ENDBRANCH   1  14
BRANCH   3  15
ATOM     15  N   UNL     1       7.413   4.676  17.607  0.00  0.00    +0.000 N 
ATOM     16  O   UNL     1       7.854   4.381  16.487  0.00  0.00    +0.000 OA
ATOM     17  O   UNL     1       8.062   4.609  18.657  0.00  0.00    +0.000 OA
ENDBRANCH   3  15
BRANCH   6  18
ATOM     18  O   UNL     1       2.072   6.391  17.941  0.00  0.00    +0.000 OA
ATOM     19  H   UNL     1       1.996   7.094  18.611  0.00  0.00    +0.000 HD
ENDBRANCH   6  18
TORSDOF 3
ENDMDL
MODEL 4
REMARK VINA RESULT:      -6.3      2.733      3.824
REMARK  Name = 
REMARK  5 active torsions:
REMARK  status: ('A' for Active; 'I' for Inactive)
REMARK    1  A    between atoms: C_1  and  N_2
REMARK    2  A    between atoms: N_6  and  C_7
REMARK    3  A    between atoms: C_8  and  C_9
REMARK    4  A    between atoms: C_11  and  N_12
REMARK    5  A    between atoms: C_17  and  O_18
REMARK                            x       y       z     vdW  Elec       q    Type
REMARK                         _______ _______ _______ _____ _____    ______ ____
ROOT
ATOM      1  C   UNL     1       3.804   4.917  18.549  0.00  0.00    +0.000 A 
ATOM      2  C   UNL     1       2.965   6.031  18.738  0.00  0.00    +0.000 A 
ATOM      3  C   UNL     1       3.149   7.237  18.052  0.00  0.00    +0.000 A 
ATOM      4  C   UNL     1       4.190   7.369  17.137  0.00  0.00    +0.000 A 
ATOM      5  C   UNL     1       5.041   6.283  16.921  0.00  0.00    +0.000 A 
ATOM      6  C   UNL     1       4.849   5.078  17.621  0.00  0.00    +0.000 A 
ENDROOT
BRANCH   1  14
ATOM      7  C   UNL     1       3.795   1.166  19.239  0.00  0.00    +0.000 C 
ATOM      8  N   UNL     1       3.589   2.393  18.455  0.00  0.00    +0.000 NA
ATOM      9  C   UNL     1       2.373   2.275  17.651  0.00  0.00    +0.000 C 
ATOM     10  C   UNL     1       1.082   2.397  18.462  0.00  0.00    +0.000 C 
ATOM     11  C   UNL     1       1.126   3.454  19.569  0.00  0.00    +0.000 C 
ATOM     12  N   UNL     1       2.424   3.540  20.222  0.00  0.00    +0.000 NA
ATOM     13  C   UNL     1       2.462   4.554  21.268  0.00  0.00    +0.000 C 
ATOM     14  C   UNL     1       3.588   3.593  19.323  0.00  0.00    +0.000 C 
ENDBRANCH   1  14
BRANCH   3  15
ATOM     15  N   UNL     1       2.232   8.358  18.309  0.00  0.00    +0.000 N 
ATOM     16  O   UNL     1       1.692   8.421  19.423  0.00  0.00    +0.000 OA
ATOM     17  O   UNL     1       2.058   9.174  17.398  0.00  0.00    +0.000 OA
ENDBRANCH   3  15
BRANCH   6  18
ATOM     18  O   UNL     1       5.718   4.047  17.392  0.00  0.00    +0.000 OA
ATOM     19  H   UNL     1       6.535   4.392  16.989  0.00  0.00    +0.000 HD
ENDBRANCH   6  18
TORSDOF 3
ENDMDL
MODEL 5
REMARK VINA RESULT:      -6.2      2.870      4.607
REMARK  Name = 
REMARK  5 active torsions:
REMARK  status: ('A' for Active; 'I' for Inactive)
REMARK    1  A    between atoms: C_1  and  N_2
REMARK    2  A    between atoms: N_6  and  C_7
REMARK    3  A    between atoms: C_8  and  C_9
REMARK    4  A    between atoms: C_11  and  N_12
REMARK    5  A    between atoms: C_17  and  O_18
REMARK                            x       y       z     vdW  Elec       q    Type
REMARK                         _______ _______ _______ _____ _____    ______ ____
ROOT
ATOM      1  C   UNL     1       3.311   5.146  18.839  0.00  0.00    +0.000 A 
ATOM      2  C   UNL     1       2.500   6.125  19.444  0.00  0.00    +0.000 A 
ATOM      3  C   UNL     1       2.446   7.445  18.985  0.00  0.00    +0.000 A 
ATOM      4  C   UNL     1       3.208   7.836  17.887  0.00  0.00    +0.000 A 
ATOM      5  C   UNL     1       4.021   6.890  17.259  0.00  0.00    +0.000 A 
ATOM      6  C   UNL     1       4.072   5.568  17.733  0.00  0.00    +0.000 A 
ENDROOT
BRANCH   1  14
ATOM      7  C   UNL     1       3.811   1.365  18.789  0.00  0.00    +0.000 C 
ATOM      8  N   UNL     1       3.355   2.671  18.290  0.00  0.00    +0.000 NA
ATOM      9  C   UNL     1       2.046   2.533  17.651  0.00  0.00    +0.000 C 
ATOM     10  C   UNL     1       0.894   2.337  18.637  0.00  0.00    +0.000 C 
ATOM     11  C   UNL     1       0.998   3.181  19.911  0.00  0.00    +0.000 C 
ATOM     12  N   UNL     1       2.366   3.326  20.387  0.00  0.00    +0.000 NA
ATOM     13  C   UNL     1       2.461   4.138  21.593  0.00  0.00    +0.000 C 
ATOM     14  C   UNL     1       3.362   3.690  19.365  0.00  0.00    +0.000 C 
ENDBRANCH   1  14
BRANCH   3  15
ATOM     15  N   UNL     1       1.577   8.411  19.675  0.00  0.00    +0.000 N 
ATOM     16  O   UNL     1       1.103   9.342  19.009  0.00  0.00    +0.000 OA
ATOM     17  O   UNL     1       1.369   8.233  20.880  0.00  0.00    +0.000 OA
ENDBRANCH   3  15
BRANCH   6  18
ATOM     18  O   UNL     1       4.897   4.680  17.099  0.00  0.00    +0.000 OA
ATOM     19  H   UNL     1       5.191   5.058  16.251  0.00  0.00    +0.000 HD
ENDBRANCH   6  18
TORSDOF 3
ENDMDL
MODEL 6
REMARK VINA RESULT:      -6.2      1.077      1.123
REMARK  Name = 
REMARK  5 active torsions:
REMARK  status: ('A' for Active; 'I' for Inactive)
REMARK    1  A    between atoms: C_1  and  N_2
REMARK    2  A    between atoms: N_6  and  C_7
REMARK    3  A    between atoms: C_8  and  C_9
REMARK    4  A    between atoms: C_11  and  N_12
REMARK    5  A    between atoms: C_17  and  O_18
REMARK                            x       y       z     vdW  Elec       q    Type
REMARK                         _______ _______ _______ _____ _____    ______ ____
ROOT
ATOM      1  C   UNL     1       5.219   5.042  18.576  0.00  0.00    +0.000 A 
ATOM      2  C   UNL     1       4.998   5.336  17.217  0.00  0.00    +0.000 A 
ATOM      3  C   UNL     1       6.014   5.797  16.373  0.00  0.00    +0.000 A 
ATOM      4  C   UNL     1       7.305   5.976  16.863  0.00  0.00    +0.000 A 
ATOM      5  C   UNL     1       7.562   5.690  18.206  0.00  0.00    +0.000 A 
ATOM      6  C   UNL     1       6.532   5.233  19.047  0.00  0.00    +0.000 A 
ENDROOT
BRANCH   1  14
ATOM      7  C   UNL     1       3.228   2.653  20.785  0.00  0.00    +0.000 C 
ATOM      8  N   UNL     1       4.023   3.064  19.617  0.00  0.00    +0.000 NA
ATOM      9  C   UNL     1       3.508   2.419  18.410  0.00  0.00    +0.000 C 
ATOM     10  C   UNL     1       2.190   3.006  17.908  0.00  0.00    +0.000 C 
ATOM     11  C   UNL     1       2.091   4.531  18.019  0.00  0.00    +0.000 C 
ATOM     12  N   UNL     1       2.731   5.057  19.216  0.00  0.00    +0.000 NA
ATOM     13  C   UNL     1       2.644   6.508  19.310  0.00  0.00    +0.000 C 
ATOM     14  C   UNL     1       4.081   4.539  19.498  0.00  0.00    +0.000 C 
ENDBRANCH   1  14
BRANCH   3  15
ATOM     15  N   UNL     1       5.702   6.088  14.965  0.00  0.00    +0.000 N 
ATOM     16  O   UNL     1       6.211   5.363  14.097  0.00  0.00    +0.000 OA
ATOM     17  O   UNL     1       4.945   7.036  14.732  0.00  0.00    +0.000 OA
ENDBRANCH   3  15
BRANCH   6  18
ATOM     18  O   UNL     1       6.824   4.984  20.359  0.00  0.00    +0.000 OA
ATOM     19  H   UNL     1       7.153   5.799  20.780  0.00  0.00    +0.000 HD
ENDBRANCH   6  18
TORSDOF 3
ENDMDL
MODEL 7
REMARK VINA RESULT:      -6.1      3.025      5.282
REMARK  Name = 
REMARK  5 active torsions:
REMARK  status: ('A' for Active; 'I' for Inactive)
REMARK    1  A    between atoms: C_1  and  N_2
REMARK    2  A    between atoms: N_6  and  C_7
REMARK    3  A    between atoms: C_8  and  C_9
REMARK    4  A    between atoms: C_11  and  N_12
REMARK    5  A    between atoms: C_17  and  O_18
REMARK                            x       y       z     vdW  Elec       q    Type
REMARK                         _______ _______ _______ _____ _____    ______ ____
ROOT
ATOM      1  C   UNL     1       4.479   5.686  18.339  0.00  0.00    +0.000 A 
ATOM      2  C   UNL     1       3.777   6.888  18.127  0.00  0.00    +0.000 A 
ATOM      3  C   UNL     1       2.626   7.224  18.847  0.00  0.00    +0.000 A 
ATOM      4  C   UNL     1       2.134   6.360  19.823  0.00  0.00    +0.000 A 
ATOM      5  C   UNL     1       2.807   5.161  20.064  0.00  0.00    +0.000 A 
ATOM      6  C   UNL     1       3.960   4.831  19.329  0.00  0.00    +0.000 A 
ENDROOT
BRANCH   1  14
ATOM      7  C   UNL     1       7.905   4.195  17.575  0.00  0.00    +0.000 C 
ATOM      8  N   UNL     1       6.890   4.903  18.369  0.00  0.00    +0.000 NA
ATOM      9  C   UNL     1       7.506   6.017  19.090  0.00  0.00    +0.000 C 
ATOM     10  C   UNL     1       7.860   7.209  18.201  0.00  0.00    +0.000 C 
ATOM     11  C   UNL     1       6.822   7.525  17.121  0.00  0.00    +0.000 C 
ATOM     12  N   UNL     1       6.209   6.333  16.554  0.00  0.00    +0.000 NA
ATOM     13  C   UNL     1       5.215   6.639  15.534  0.00  0.00    +0.000 C 
ATOM     14  C   UNL     1       5.748   5.328  17.527  0.00  0.00    +0.000 C 
ENDBRANCH   1  14
BRANCH   3  15
ATOM     15  N   UNL     1       1.945   8.496  18.563  0.00  0.00    +0.000 N 
ATOM     16  O   UNL     1       1.283   9.015  19.473  0.00  0.00    +0.000 OA
ATOM     17  O   UNL     1       2.079   8.975  17.431  0.00  0.00    +0.000 OA
ENDBRANCH   3  15
BRANCH   6  18
ATOM     18  O   UNL     1       4.575   3.637  19.585  0.00  0.00    +0.000 OA
ATOM     19  H   UNL     1       4.149   2.932  19.065  0.00  0.00    +0.000 HD
ENDBRANCH   6  18
TORSDOF 3
ENDMDL
MODEL 8
REMARK VINA RESULT:      -6.0      2.034      3.733
REMARK  Name = 
REMARK  5 active torsions:
REMARK  status: ('A' for Active; 'I' for Inactive)
REMARK    1  A    between atoms: C_1  and  N_2
REMARK    2  A    between atoms: N_6  and  C_7
REMARK    3  A    between atoms: C_8  and  C_9
REMARK    4  A    between atoms: C_11  and  N_12
REMARK    5  A    between atoms: C_17  and  O_18
REMARK                            x       y       z     vdW  Elec       q    Type
REMARK                         _______ _______ _______ _____ _____    ______ ____
ROOT
ATOM      1  C   UNL     1       4.371   3.858  18.129  0.00  0.00    +0.000 A 
ATOM      2  C   UNL     1       5.395   4.428  18.910  0.00  0.00    +0.000 A 
ATOM      3  C   UNL     1       6.408   5.221  18.360  0.00  0.00    +0.000 A 
ATOM      4  C   UNL     1       6.427   5.481  16.992  0.00  0.00    +0.000 A 
ATOM      5  C   UNL     1       5.425   4.936  16.187  0.00  0.00    +0.000 A 
ATOM      6  C   UNL     1       4.416   4.135  16.750  0.00  0.00    +0.000 A 
ENDROOT
BRANCH   1  14
ATOM      7  C   UNL     1       0.903   2.369  18.681  0.00  0.00    +0.000 C 
ATOM      8  N   UNL     1       1.891   3.430  18.430  0.00  0.00    +0.000 NA
ATOM      9  C   UNL     1       1.511   4.647  19.148  0.00  0.00    +0.000 C 
ATOM     10  C   UNL     1       1.749   4.574  20.656  0.00  0.00    +0.000 C 
ATOM     11  C   UNL     1       3.043   3.862  21.060  0.00  0.00    +0.000 C 
ATOM     12  N   UNL     1       3.361   2.728  20.204  0.00  0.00    +0.000 NA
ATOM     13  C   UNL     1       4.598   2.061  20.587  0.00  0.00    +0.000 C 
ATOM     14  C   UNL     1       3.263   2.977  18.755  0.00  0.00    +0.000 C 
ENDBRANCH   1  14
BRANCH   3  15
ATOM     15  N   UNL     1       7.446   5.776  19.242  0.00  0.00    +0.000 N 
ATOM     16  O   UNL     1       7.582   5.270  20.365  0.00  0.00    +0.000 OA
ATOM     17  O   UNL     1       8.125   6.712  18.806  0.00  0.00    +0.000 OA
ENDBRANCH   3  15
BRANCH   6  18
ATOM     18  O   UNL     1       3.465   3.607  15.921  0.00  0.00    +0.000 OA
ATOM     19  H   UNL     1       3.563   2.638  15.890  0.00  0.00    +0.000 HD
ENDBRANCH   6  18
TORSDOF 3
ENDMDL
MODEL 9
REMARK VINA RESULT:      -6.0      1.746      3.746
REMARK  Name = 
REMARK  5 active torsions:
REMARK  status: ('A' for Active; 'I' for Inactive)
REMARK    1  A    between atoms: C_1  and  N_2
REMARK    2  A    between atoms: N_6  and  C_7
REMARK    3  A    between atoms: C_8  and  C_9
REMARK    4  A    between atoms: C_11  and  N_12
REMARK    5  A    between atoms: C_17  and  O_18
REMARK                            x       y       z     vdW  Elec       q    Type
REMARK                         _______ _______ _______ _____ _____    ______ ____
ROOT
ATOM      1  C   UNL     1       4.899   4.252  17.710  0.00  0.00    +0.000 A 
ATOM      2  C   UNL     1       5.770   4.840  18.648  0.00  0.00    +0.000 A 
ATOM      3  C   UNL     1       7.028   5.340  18.295  0.00  0.00    +0.000 A 
ATOM      4  C   UNL     1       7.462   5.275  16.974  0.00  0.00    +0.000 A 
ATOM      5  C   UNL     1       6.623   4.703  16.016  0.00  0.00    +0.000 A 
ATOM      6  C   UNL     1       5.363   4.198  16.382  0.00  0.00    +0.000 A 
ENDROOT
BRANCH   1  14
ATOM      7  C   UNL     1       1.111   3.806  17.718  0.00  0.00    +0.000 C 
ATOM      8  N   UNL     1       2.381   4.546  17.681  0.00  0.00    +0.000 NA
ATOM      9  C   UNL     1       2.264   5.780  18.459  0.00  0.00    +0.000 C 
ATOM     10  C   UNL     1       2.263   5.559  19.971  0.00  0.00    +0.000 C 
ATOM     11  C   UNL     1       3.237   4.481  20.456  0.00  0.00    +0.000 C 
ATOM     12  N   UNL     1       3.338   3.353  19.541  0.00  0.00    +0.000 NA
ATOM     13  C   UNL     1       4.273   2.335  20.002  0.00  0.00    +0.000 C 
ATOM     14  C   UNL     1       3.513   3.698  18.120  0.00  0.00    +0.000 C 
ENDBRANCH   1  14
BRANCH   3  15
ATOM     15  N   UNL     1       7.883   5.934  19.335  0.00  0.00    +0.000 N 
ATOM     16  O   UNL     1       7.955   5.352  20.427  0.00  0.00    +0.000 OA
ATOM     17  O   UNL     1       8.483   6.977  19.055  0.00  0.00    +0.000 OA
ENDBRANCH   3  15
BRANCH   6  18
ATOM     18  O   UNL     1       4.582   3.629  15.415  0.00  0.00    +0.000 OA
ATOM     19  H   UNL     1       5.052   2.872  15.020  0.00  0.00    +0.000 HD
ENDBRANCH   6  18
TORSDOF 3
ENDMDL
