MODEL 1
REMARK VINA RESULT:      -8.4      0.000      0.000
REMARK  Name = 
REMARK  9 active torsions:
REMARK  status: ('A' for Active; 'I' for Inactive)
REMARK    1  A    between atoms: C_2  and  C_11
REMARK    2  A    between atoms: N_3  and  C_4
REMARK    3  A    between atoms: C_4  and  C_5
REMARK    4  A    between atoms: C_15  and  O_16
REMARK    5  A    between atoms: O_16  and  C_17
REMARK    6  A    between atoms: C_17  and  C_18
REMARK    7  A    between atoms: C_22  and  O_23
REMARK    8  A    between atoms: O_23  and  C_24
REMARK    9  A    between atoms: C_24  and  C_25
REMARK                            x       y       z     vdW  Elec       q    Type
REMARK                         _______ _______ _______ _____ _____    ______ ____
ROOT
ATOM      1  C   UNL     1       4.261   6.445  17.769  0.00  0.00    +0.000 A 
ATOM      2  C   UNL     1       3.344   7.509  17.630  0.00  0.00    +0.000 A 
ATOM      3  C   UNL     1       2.319   7.685  18.547  0.00  0.00    +0.000 A 
ATOM      4  C   UNL     1       2.174   6.783  19.593  0.00  0.00    +0.000 A 
ATOM      5  C   UNL     1       3.046   5.696  19.730  0.00  0.00    +0.000 A 
ATOM      6  C   UNL     1       4.129   5.522  18.831  0.00  0.00    +0.000 A 
ENDROOT
BRANCH   1   8
ATOM      7  O   UNL     1       5.216   6.996  15.670  0.00  0.00    +0.000 OA
ATOM      8  C   UNL     1       5.310   6.357  16.712  0.00  0.00    +0.000 C 
ATOM      9  N   UNL     1       6.344   5.481  16.980  0.00  0.00    +0.000 N 
ATOM     10  H   UNL     1       6.410   4.999  17.867  0.00  0.00    +0.000 HD
BRANCH   9  11
ATOM     11  C   UNL     1       7.433   5.239  16.048  0.00  0.00    +0.000 C 
BRANCH  11  12
ATOM     12  C   UNL     1       6.935   5.105  14.587  0.00  0.00    +0.000 C 
ATOM     13  C   UNL     1       6.311   3.719  14.339  0.00  0.00    +0.000 C 
ATOM     14  C   UNL     1       5.843   3.558  12.894  0.00  0.00    +0.000 C 
ATOM     15  C   UNL     1       6.958   3.918  11.919  0.00  0.00    +0.000 C 
ATOM     16  C   UNL     1       7.554   5.285  12.246  0.00  0.00    +0.000 C 
ATOM     17  N   UNL     1       8.041   5.333  13.631  0.00  0.00    +0.000 NA
ATOM     18  H   UNL     1       8.440   6.257  13.801  0.00  0.00    +0.000 HD
ENDBRANCH  11  12
ENDBRANCH   9  11
ENDBRANCH   1   8
BRANCH   5  19
ATOM     19  O   UNL     1       2.769   4.934  20.839  0.00  0.00    +0.000 OA
BRANCH  19  20
ATOM     20  C   UNL     1       1.495   4.281  20.888  0.00  0.00    +0.000 C 
BRANCH  20  21
ATOM     21  C   UNL     1       1.632   2.835  21.361  0.00  0.00    +0.000 C 
ATOM     22  F   UNL     1       1.498   1.938  20.358  0.00  0.00    +0.000 F 
ATOM     23  F   UNL     1       2.847   2.626  21.922  0.00  0.00    +0.000 F 
ATOM     24  F   UNL     1       0.704   2.534  22.299  0.00  0.00    +0.000 F 
ENDBRANCH  20  21
ENDBRANCH  19  20
ENDBRANCH   5  19
BRANCH   6  25
ATOM     25  O   UNL     1       4.919   4.429  19.068  0.00  0.00    +0.000 OA
BRANCH  25  26
ATOM     26  C   UNL     1       4.324   3.126  19.123  0.00  0.00    +0.000 C 
BRANCH  26  27
ATOM     27  C   UNL     1       3.662   2.731  17.805  0.00  0.00    +0.000 C 
ATOM     28  F   UNL     1       4.335   3.182  16.724  0.00  0.00    +0.000 F 
ATOM     29  F   UNL     1       3.561   1.387  17.689  0.00  0.00    +0.000 F 
ATOM     30  F   UNL     1       2.407   3.235  17.734  0.00  0.00    +0.000 F 
ENDBRANCH  26  27
ENDBRANCH  25  26
ENDBRANCH   6  25
TORSDOF 9
ENDMDL
MODEL 2
REMARK VINA RESULT:      -8.2      4.866      7.729
REMARK  Name = 
REMARK  9 active torsions:
REMARK  status: ('A' for Active; 'I' for Inactive)
REMARK    1  A    between atoms: C_2  and  C_11
REMARK    2  A    between atoms: N_3  and  C_4
REMARK    3  A    between atoms: C_4  and  C_5
REMARK    4  A    between atoms: C_15  and  O_16
REMARK    5  A    between atoms: O_16  and  C_17
REMARK    6  A    between atoms: C_17  and  C_18
REMARK    7  A    between atoms: C_22  and  O_23
REMARK    8  A    between atoms: O_23  and  C_24
REMARK    9  A    between atoms: C_24  and  C_25
REMARK                            x       y       z     vdW  Elec       q    Type
REMARK                         _______ _______ _______ _____ _____    ______ ____
ROOT
ATOM      1  C   UNL     1       2.103   8.312  18.726  0.00  0.00    +0.000 A 
ATOM      2  C   UNL     1       3.038   7.917  17.745  0.00  0.00    +0.000 A 
ATOM      3  C   UNL     1       3.702   6.703  17.847  0.00  0.00    +0.000 A 
ATOM      4  C   UNL     1       3.467   5.885  18.945  0.00  0.00    +0.000 A 
ATOM      5  C   UNL     1       2.575   6.273  19.952  0.00  0.00    +0.000 A 
ATOM      6  C   UNL     1       1.851   7.488  19.846  0.00  0.00    +0.000 A 
ENDROOT
BRANCH   1   8
ATOM      7  O   UNL     1       2.101  10.581  18.038  0.00  0.00    +0.000 OA
ATOM      8  C   UNL     1       1.466   9.644  18.508  0.00  0.00    +0.000 C 
ATOM      9  N   UNL     1       0.150   9.740  18.915  0.00  0.00    +0.000 N 
ATOM     10  H   UNL     1      -0.355   8.934  19.263  0.00  0.00    +0.000 HD
BRANCH   9  11
ATOM     11  C   UNL     1      -0.618  10.970  18.815  0.00  0.00    +0.000 C 
BRANCH  11  12
ATOM     12  C   UNL     1      -2.046  10.727  18.264  0.00  0.00    +0.000 C 
ATOM     13  C   UNL     1      -1.998  10.084  16.866  0.00  0.00    +0.000 C 
ATOM     14  C   UNL     1      -3.397   9.867  16.294  0.00  0.00    +0.000 C 
ATOM     15  C   UNL     1      -4.215  11.152  16.358  0.00  0.00    +0.000 C 
ATOM     16  C   UNL     1      -4.188  11.751  17.761  0.00  0.00    +0.000 C 
ATOM     17  N   UNL     1      -2.810  11.992  18.207  0.00  0.00    +0.000 NA
ATOM     18  H   UNL     1      -2.840  12.404  19.141  0.00  0.00    +0.000 HD
ENDBRANCH  11  12
ENDBRANCH   9  11
ENDBRANCH   1   8
BRANCH   5  19
ATOM     19  O   UNL     1       2.447   5.325  20.937  0.00  0.00    +0.000 OA
BRANCH  19  20
ATOM     20  C   UNL     1       2.669   3.959  20.570  0.00  0.00    +0.000 C 
BRANCH  20  21
ATOM     21  C   UNL     1       1.373   3.153  20.623  0.00  0.00    +0.000 C 
ATOM     22  F   UNL     1       0.296   3.859  20.209  0.00  0.00    +0.000 F 
ATOM     23  F   UNL     1       1.456   2.056  19.832  0.00  0.00    +0.000 F 
ATOM     24  F   UNL     1       1.113   2.719  21.879  0.00  0.00    +0.000 F 
ENDBRANCH  20  21
ENDBRANCH  19  20
ENDBRANCH   5  19
BRANCH   6  25
ATOM     25  O   UNL     1       1.002   7.758  20.886  0.00  0.00    +0.000 OA
BRANCH  25  26
ATOM     26  C   UNL     1       1.400   8.694  21.897  0.00  0.00    +0.000 C 
BRANCH  26  27
ATOM     27  C   UNL     1       0.207   9.317  22.618  0.00  0.00    +0.000 C 
ATOM     28  F   UNL     1       0.383   9.394  23.955  0.00  0.00    +0.000 F 
ATOM     29  F   UNL     1      -0.042  10.567  22.168  0.00  0.00    +0.000 F 
ATOM     30  F   UNL     1      -0.912   8.583  22.405  0.00  0.00    +0.000 F 
ENDBRANCH  26  27
ENDBRANCH  25  26
ENDBRANCH   6  25
TORSDOF 9
ENDMDL
MODEL 3
REMARK VINA RESULT:      -8.0      5.036      7.934
REMARK  Name = 
REMARK  9 active torsions:
REMARK  status: ('A' for Active; 'I' for Inactive)
REMARK    1  A    between atoms: C_2  and  C_11
REMARK    2  A    between atoms: N_3  and  C_4
REMARK    3  A    between atoms: C_4  and  C_5
REMARK    4  A    between atoms: C_15  and  O_16
REMARK    5  A    between atoms: O_16  and  C_17
REMARK    6  A    between atoms: C_17  and  C_18
REMARK    7  A    between atoms: C_22  and  O_23
REMARK    8  A    between atoms: O_23  and  C_24
REMARK    9  A    between atoms: C_24  and  C_25
REMARK                            x       y       z     vdW  Elec       q    Type
REMARK                         _______ _______ _______ _____ _____    ______ ____
ROOT
ATOM      1  C   UNL     1       1.703   8.844  18.915  0.00  0.00    +0.000 A 
ATOM      2  C   UNL     1       2.460   8.695  17.733  0.00  0.00    +0.000 A 
ATOM      3  C   UNL     1       3.196   7.542  17.503  0.00  0.00    +0.000 A 
ATOM      4  C   UNL     1       3.214   6.539  18.463  0.00  0.00    +0.000 A 
ATOM      5  C   UNL     1       2.505   6.679  19.662  0.00  0.00    +0.000 A 
ATOM      6  C   UNL     1       1.709   7.829  19.899  0.00  0.00    +0.000 A 
ENDROOT
BRANCH   1   8
ATOM      7  O   UNL     1       1.562  11.199  19.147  0.00  0.00    +0.000 OA
ATOM      8  C   UNL     1       0.965  10.133  19.049  0.00  0.00    +0.000 C 
ATOM      9  N   UNL     1      -0.411  10.021  19.101  0.00  0.00    +0.000 N 
ATOM     10  H   UNL     1      -0.872   9.128  18.979  0.00  0.00    +0.000 HD
BRANCH   9  11
ATOM     11  C   UNL     1      -1.289  11.167  19.269  0.00  0.00    +0.000 C 
BRANCH  11  12
ATOM     12  C   UNL     1      -2.135  11.447  18.001  0.00  0.00    +0.000 C 
ATOM     13  C   UNL     1      -3.641  11.413  18.321  0.00  0.00    +0.000 C 
ATOM     14  C   UNL     1      -4.491  11.656  17.076  0.00  0.00    +0.000 C 
ATOM     15  C   UNL     1      -4.078  10.720  15.946  0.00  0.00    +0.000 C 
ATOM     16  C   UNL     1      -2.572  10.777  15.708  0.00  0.00    +0.000 C 
ATOM     17  N   UNL     1      -1.829  10.465  16.936  0.00  0.00    +0.000 NA
ATOM     18  H   UNL     1      -0.830  10.503  16.729  0.00  0.00    +0.000 HD
ENDBRANCH  11  12
ENDBRANCH   9  11
ENDBRANCH   1   8
BRANCH   5  19
ATOM     19  O   UNL     1       2.614   5.576  20.472  0.00  0.00    +0.000 OA
BRANCH  19  20
ATOM     20  C   UNL     1       2.737   4.299  19.834  0.00  0.00    +0.000 C 
BRANCH  20  21
ATOM     21  C   UNL     1       1.367   3.714  19.496  0.00  0.00    +0.000 C 
ATOM     22  F   UNL     1       1.323   2.369  19.624  0.00  0.00    +0.000 F 
ATOM     23  F   UNL     1       0.413   4.222  20.313  0.00  0.00    +0.000 F 
ATOM     24  F   UNL     1       1.004   4.011  18.227  0.00  0.00    +0.000 F 
ENDBRANCH  20  21
ENDBRANCH  19  20
ENDBRANCH   5  19
BRANCH   6  25
ATOM     25  O   UNL     1       1.054   7.852  21.101  0.00  0.00    +0.000 OA
BRANCH  25  26
ATOM     26  C   UNL     1       1.365   8.876  22.055  0.00  0.00    +0.000 C 
BRANCH  26  27
ATOM     27  C   UNL     1       0.121   9.417  22.757  0.00  0.00    +0.000 C 
ATOM     28  F   UNL     1      -1.000   8.733  22.440  0.00  0.00    +0.000 F 
ATOM     29  F   UNL     1       0.257   9.374  24.102  0.00  0.00    +0.000 F 
ATOM     30  F   UNL     1      -0.091  10.711  22.416  0.00  0.00    +0.000 F 
ENDBRANCH  26  27
ENDBRANCH  25  26
ENDBRANCH   6  25
TORSDOF 9
ENDMDL
MODEL 4
REMARK VINA RESULT:      -8.0      2.912      3.816
REMARK  Name = 
REMARK  9 active torsions:
REMARK  status: ('A' for Active; 'I' for Inactive)
REMARK    1  A    between atoms: C_2  and  C_11
REMARK    2  A    between atoms: N_3  and  C_4
REMARK    3  A    between atoms: C_4  and  C_5
REMARK    4  A    between atoms: C_15  and  O_16
REMARK    5  A    between atoms: O_16  and  C_17
REMARK    6  A    between atoms: C_17  and  C_18
REMARK    7  A    between atoms: C_22  and  O_23
REMARK    8  A    between atoms: O_23  and  C_24
REMARK    9  A    between atoms: C_24  and  C_25
REMARK                            x       y       z     vdW  Elec       q    Type
REMARK                         _______ _______ _______ _____ _____    ______ ____
ROOT
ATOM      1  C   UNL     1       3.086   6.880  18.372  0.00  0.00    +0.000 A 
ATOM      2  C   UNL     1       2.910   8.022  17.562  0.00  0.00    +0.000 A 
ATOM      3  C   UNL     1       2.110   9.074  17.984  0.00  0.00    +0.000 A 
ATOM      4  C   UNL     1       1.450   8.986  19.202  0.00  0.00    +0.000 A 
ATOM      5  C   UNL     1       1.575   7.846  20.006  0.00  0.00    +0.000 A 
ATOM      6  C   UNL     1       2.423   6.778  19.616  0.00  0.00    +0.000 A 
ENDROOT
BRANCH   1   8
ATOM      7  O   UNL     1       3.567   4.657  17.704  0.00  0.00    +0.000 OA
ATOM      8  C   UNL     1       3.959   5.814  17.802  0.00  0.00    +0.000 C 
ATOM      9  N   UNL     1       5.230   6.222  17.446  0.00  0.00    +0.000 N 
ATOM     10  H   UNL     1       5.507   7.194  17.504  0.00  0.00    +0.000 HD
BRANCH   9  11
ATOM     11  C   UNL     1       6.229   5.313  16.910  0.00  0.00    +0.000 C 
BRANCH  11  12
ATOM     12  C   UNL     1       6.188   5.243  15.363  0.00  0.00    +0.000 C 
ATOM     13  C   UNL     1       5.416   3.999  14.884  0.00  0.00    +0.000 C 
ATOM     14  C   UNL     1       5.393   3.898  13.360  0.00  0.00    +0.000 C 
ATOM     15  C   UNL     1       6.801   4.011  12.788  0.00  0.00    +0.000 C 
ATOM     16  C   UNL     1       7.519   5.243  13.332  0.00  0.00    +0.000 C 
ATOM     17  N   UNL     1       7.556   5.229  14.800  0.00  0.00    +0.000 NA
ATOM     18  H   UNL     1       8.054   6.061  15.119  0.00  0.00    +0.000 HD
ENDBRANCH  11  12
ENDBRANCH   9  11
ENDBRANCH   1   8
BRANCH   5  19
ATOM     19  O   UNL     1       0.878   7.952  21.185  0.00  0.00    +0.000 OA
BRANCH  19  20
ATOM     20  C   UNL     1       1.268   8.992  22.090  0.00  0.00    +0.000 C 
BRANCH  20  21
ATOM     21  C   UNL     1       0.079   9.489  22.909  0.00  0.00    +0.000 C 
ATOM     22  F   UNL     1      -0.241  10.777  22.646  0.00  0.00    +0.000 F 
ATOM     23  F   UNL     1      -1.025   8.747  22.652  0.00  0.00    +0.000 F 
ATOM     24  F   UNL     1       0.322   9.396  24.237  0.00  0.00    +0.000 F 
ENDBRANCH  20  21
ENDBRANCH  19  20
ENDBRANCH   5  19
BRANCH   6  25
ATOM     25  O   UNL     1       2.473   5.721  20.486  0.00  0.00    +0.000 OA
BRANCH  25  26
ATOM     26  C   UNL     1       1.428   4.739  20.464  0.00  0.00    +0.000 C 
BRANCH  26  27
ATOM     27  C   UNL     1       1.938   3.337  20.785  0.00  0.00    +0.000 C 
ATOM     28  F   UNL     1       3.285   3.243  20.734  0.00  0.00    +0.000 F 
ATOM     29  F   UNL     1       1.550   2.942  22.020  0.00  0.00    +0.000 F 
ATOM     30  F   UNL     1       1.441   2.437  19.902  0.00  0.00    +0.000 F 
ENDBRANCH  26  27
ENDBRANCH  25  26
ENDBRANCH   6  25
TORSDOF 9
ENDMDL
MODEL 5
REMARK VINA RESULT:      -8.0      0.359      1.089
REMARK  Name = 
REMARK  9 active torsions:
REMARK  status: ('A' for Active; 'I' for Inactive)
REMARK    1  A    between atoms: C_2  and  C_11
REMARK    2  A    between atoms: N_3  and  C_4
REMARK    3  A    between atoms: C_4  and  C_5
REMARK    4  A    between atoms: C_15  and  O_16
REMARK    5  A    between atoms: O_16  and  C_17
REMARK    6  A    between atoms: C_17  and  C_18
REMARK    7  A    between atoms: C_22  and  O_23
REMARK    8  A    between atoms: O_23  and  C_24
REMARK    9  A    between atoms: C_24  and  C_25
REMARK                            x       y       z     vdW  Elec       q    Type
REMARK                         _______ _______ _______ _____ _____    ______ ____
ROOT
ATOM      1  C   UNL     1       4.444   6.545  17.980  0.00  0.00    +0.000 A 
ATOM      2  C   UNL     1       3.495   7.561  17.735  0.00  0.00    +0.000 A 
ATOM      3  C   UNL     1       2.354   7.668  18.518  0.00  0.00    +0.000 A 
ATOM      4  C   UNL     1       2.130   6.745  19.531  0.00  0.00    +0.000 A 
ATOM      5  C   UNL     1       3.037   5.704  19.768  0.00  0.00    +0.000 A 
ATOM      6  C   UNL     1       4.231   5.601  19.010  0.00  0.00    +0.000 A 
ENDROOT
BRANCH   1   8
ATOM      7  O   UNL     1       6.027   7.558  16.534  0.00  0.00    +0.000 OA
ATOM      8  C   UNL     1       5.620   6.529  17.062  0.00  0.00    +0.000 C 
ATOM      9  N   UNL     1       6.167   5.283  16.828  0.00  0.00    +0.000 N 
ATOM     10  H   UNL     1       5.830   4.460  17.311  0.00  0.00    +0.000 HD
BRANCH   9  11
ATOM     11  C   UNL     1       7.291   5.072  15.932  0.00  0.00    +0.000 C 
BRANCH  11  12
ATOM     12  C   UNL     1       6.851   4.995  14.448  0.00  0.00    +0.000 C 
ATOM     13  C   UNL     1       6.192   3.639  14.134  0.00  0.00    +0.000 C 
ATOM     14  C   UNL     1       5.781   3.535  12.667  0.00  0.00    +0.000 C 
ATOM     15  C   UNL     1       6.948   3.882  11.750  0.00  0.00    +0.000 C 
ATOM     16  C   UNL     1       7.575   5.217  12.141  0.00  0.00    +0.000 C 
ATOM     17  N   UNL     1       8.004   5.210  13.545  0.00  0.00    +0.000 NA
ATOM     18  H   UNL     1       8.427   6.115  13.758  0.00  0.00    +0.000 HD
ENDBRANCH  11  12
ENDBRANCH   9  11
ENDBRANCH   1   8
BRANCH   5  19
ATOM     19  O   UNL     1       2.666   4.912  20.827  0.00  0.00    +0.000 OA
BRANCH  19  20
ATOM     20  C   UNL     1       1.425   4.205  20.719  0.00  0.00    +0.000 C 
BRANCH  20  21
ATOM     21  C   UNL     1       1.550   2.781  21.255  0.00  0.00    +0.000 C 
ATOM     22  F   UNL     1       0.588   2.470  22.154  0.00  0.00    +0.000 F 
ATOM     23  F   UNL     1       1.459   1.879  20.249  0.00  0.00    +0.000 F 
ATOM     24  F   UNL     1       2.745   2.585  21.860  0.00  0.00    +0.000 F 
ENDBRANCH  20  21
ENDBRANCH  19  20
ENDBRANCH   5  19
BRANCH   6  25
ATOM     25  O   UNL     1       5.044   4.549  19.336  0.00  0.00    +0.000 OA
BRANCH  25  26
ATOM     26  C   UNL     1       4.502   3.223  19.375  0.00  0.00    +0.000 C 
BRANCH  26  27
ATOM     27  C   UNL     1       3.888   2.804  18.041  0.00  0.00    +0.000 C 
ATOM     28  F   UNL     1       3.563   1.493  18.001  0.00  0.00    +0.000 F 
ATOM     29  F   UNL     1       2.767   3.510  17.771  0.00  0.00    +0.000 F 
ATOM     30  F   UNL     1       4.758   3.030  17.027  0.00  0.00    +0.000 F 
ENDBRANCH  26  27
ENDBRANCH  25  26
ENDBRANCH   6  25
TORSDOF 9
ENDMDL
MODEL 6
REMARK VINA RESULT:      -8.0      4.778      7.661
REMARK  Name = 
REMARK  9 active torsions:
REMARK  status: ('A' for Active; 'I' for Inactive)
REMARK    1  A    between atoms: C_2  and  C_11
REMARK    2  A    between atoms: N_3  and  C_4
REMARK    3  A    between atoms: C_4  and  C_5
REMARK    4  A    between atoms: C_15  and  O_16
REMARK    5  A    between atoms: O_16  and  C_17
REMARK    6  A    between atoms: C_17  and  C_18
REMARK    7  A    between atoms: C_22  and  O_23
REMARK    8  A    between atoms: O_23  and  C_24
REMARK    9  A    between atoms: C_24  and  C_25
REMARK                            x       y       z     vdW  Elec       q    Type
REMARK                         _______ _______ _______ _____ _____    ______ ____
ROOT
ATOM      1  C   UNL     1       2.224   8.178  18.596  0.00  0.00    +0.000 A 
ATOM      2  C   UNL     1       3.198   7.720  17.683  0.00  0.00    +0.000 A 
ATOM      3  C   UNL     1       3.814   6.490  17.861  0.00  0.00    +0.000 A 
ATOM      4  C   UNL     1       3.492   5.718  18.969  0.00  0.00    +0.000 A 
ATOM      5  C   UNL     1       2.559   6.168  19.912  0.00  0.00    +0.000 A 
ATOM      6  C   UNL     1       1.883   7.401  19.726  0.00  0.00    +0.000 A 
ENDROOT
BRANCH   1   8
ATOM      7  O   UNL     1       2.302  10.383  17.728  0.00  0.00    +0.000 OA
ATOM      8  C   UNL     1       1.645   9.521  18.300  0.00  0.00    +0.000 C 
ATOM      9  N   UNL     1       0.356   9.719  18.755  0.00  0.00    +0.000 N 
ATOM     10  H   UNL     1      -0.171   8.972  19.189  0.00  0.00    +0.000 HD
BRANCH   9  11
ATOM     11  C   UNL     1      -0.353  10.977  18.591  0.00  0.00    +0.000 C 
BRANCH  11  12
ATOM     12  C   UNL     1      -1.852  10.766  18.259  0.00  0.00    +0.000 C 
ATOM     13  C   UNL     1      -2.034  10.241  16.823  0.00  0.00    +0.000 C 
ATOM     14  C   UNL     1      -3.508  10.057  16.469  0.00  0.00    +0.000 C 
ATOM     15  C   UNL     1      -4.300  11.325  16.770  0.00  0.00    +0.000 C 
ATOM     16  C   UNL     1      -4.044  11.808  18.194  0.00  0.00    +0.000 C 
ATOM     17  N   UNL     1      -2.611  12.025  18.431  0.00  0.00    +0.000 NA
ATOM     18  H   UNL     1      -2.488  12.358  19.388  0.00  0.00    +0.000 HD
ENDBRANCH  11  12
ENDBRANCH   9  11
ENDBRANCH   1   8
BRANCH   5  19
ATOM     19  O   UNL     1       2.345   5.259  20.919  0.00  0.00    +0.000 OA
BRANCH  19  20
ATOM     20  C   UNL     1       1.310   4.288  20.722  0.00  0.00    +0.000 C 
BRANCH  20  21
ATOM     21  C   UNL     1       1.806   2.878  21.034  0.00  0.00    +0.000 C 
ATOM     22  F   UNL     1       1.541   1.995  20.045  0.00  0.00    +0.000 F 
ATOM     23  F   UNL     1       3.148   2.872  21.223  0.00  0.00    +0.000 F 
ATOM     24  F   UNL     1       1.243   2.397  22.167  0.00  0.00    +0.000 F 
ENDBRANCH  20  21
ENDBRANCH  19  20
ENDBRANCH   5  19
BRANCH   6  25
ATOM     25  O   UNL     1       0.987   7.733  20.707  0.00  0.00    +0.000 OA
BRANCH  25  26
ATOM     26  C   UNL     1       1.395   8.608  21.768  0.00  0.00    +0.000 C 
BRANCH  26  27
ATOM     27  C   UNL     1       0.208   9.258  22.476  0.00  0.00    +0.000 C 
ATOM     28  F   UNL     1      -0.928   8.536  22.369  0.00  0.00    +0.000 F 
ATOM     29  F   UNL     1       0.457   9.432  23.794  0.00  0.00    +0.000 F 
ATOM     30  F   UNL     1      -0.045  10.481  21.951  0.00  0.00    +0.000 F 
ENDBRANCH  26  27
ENDBRANCH  25  26
ENDBRANCH   6  25
TORSDOF 9
ENDMDL
MODEL 7
REMARK VINA RESULT:      -8.0      2.676      3.436
REMARK  Name = 
REMARK  9 active torsions:
REMARK  status: ('A' for Active; 'I' for Inactive)
REMARK    1  A    between atoms: C_2  and  C_11
REMARK    2  A    between atoms: N_3  and  C_4
REMARK    3  A    between atoms: C_4  and  C_5
REMARK    4  A    between atoms: C_15  and  O_16
REMARK    5  A    between atoms: O_16  and  C_17
REMARK    6  A    between atoms: C_17  and  C_18
REMARK    7  A    between atoms: C_22  and  O_23
REMARK    8  A    between atoms: O_23  and  C_24
REMARK    9  A    between atoms: C_24  and  C_25
REMARK                            x       y       z     vdW  Elec       q    Type
REMARK                         _______ _______ _______ _____ _____    ______ ____
ROOT
ATOM      1  C   UNL     1       3.466   6.488  18.006  0.00  0.00    +0.000 A 
ATOM      2  C   UNL     1       3.147   7.625  17.233  0.00  0.00    +0.000 A 
ATOM      3  C   UNL     1       2.345   8.632  17.750  0.00  0.00    +0.000 A 
ATOM      4  C   UNL     1       1.823   8.502  19.030  0.00  0.00    +0.000 A 
ATOM      5  C   UNL     1       2.091   7.365  19.803  0.00  0.00    +0.000 A 
ATOM      6  C   UNL     1       2.945   6.344  19.313  0.00  0.00    +0.000 A 
ENDROOT
BRANCH   1   8
ATOM      7  O   UNL     1       3.910   4.344  17.098  0.00  0.00    +0.000 OA
ATOM      8  C   UNL     1       4.327   5.473  17.333  0.00  0.00    +0.000 C 
ATOM      9  N   UNL     1       5.613   5.887  17.049  0.00  0.00    +0.000 N 
ATOM     10  H   UNL     1       5.911   6.839  17.223  0.00  0.00    +0.000 HD
BRANCH   9  11
ATOM     11  C   UNL     1       6.602   5.020  16.431  0.00  0.00    +0.000 C 
BRANCH  11  12
ATOM     12  C   UNL     1       6.505   5.030  14.884  0.00  0.00    +0.000 C 
ATOM     13  C   UNL     1       5.963   3.690  14.353  0.00  0.00    +0.000 C 
ATOM     14  C   UNL     1       5.891   3.672  12.828  0.00  0.00    +0.000 C 
ATOM     15  C   UNL     1       7.225   4.086  12.217  0.00  0.00    +0.000 C 
ATOM     16  C   UNL     1       7.719   5.400  12.815  0.00  0.00    +0.000 C 
ATOM     17  N   UNL     1       7.825   5.311  14.276  0.00  0.00    +0.000 NA
ATOM     18  H   UNL     1       8.169   6.205  14.631  0.00  0.00    +0.000 HD
ENDBRANCH  11  12
ENDBRANCH   9  11
ENDBRANCH   1   8
BRANCH   5  19
ATOM     19  O   UNL     1       1.519   7.427  21.050  0.00  0.00    +0.000 OA
BRANCH  19  20
ATOM     20  C   UNL     1       1.320   8.727  21.619  0.00  0.00    +0.000 C 
BRANCH  20  21
ATOM     21  C   UNL     1      -0.151   8.964  21.956  0.00  0.00    +0.000 C 
ATOM     22  F   UNL     1      -0.942   7.918  21.628  0.00  0.00    +0.000 F 
ATOM     23  F   UNL     1      -0.310   9.181  23.284  0.00  0.00    +0.000 F 
ATOM     24  F   UNL     1      -0.634  10.054  21.314  0.00  0.00    +0.000 F 
ENDBRANCH  20  21
ENDBRANCH  19  20
ENDBRANCH   5  19
BRANCH   6  25
ATOM     25  O   UNL     1       3.142   5.286  20.159  0.00  0.00    +0.000 OA
BRANCH  25  26
ATOM     26  C   UNL     1       2.780   3.965  19.733  0.00  0.00    +0.000 C 
BRANCH  26  27
ATOM     27  C   UNL     1       1.311   3.647  20.002  0.00  0.00    +0.000 C 
ATOM     28  F   UNL     1       0.679   4.626  20.686  0.00  0.00    +0.000 F 
ATOM     29  F   UNL     1       0.630   3.452  18.850  0.00  0.00    +0.000 F 
ATOM     30  F   UNL     1       1.197   2.512  20.733  0.00  0.00    +0.000 F 
ENDBRANCH  26  27
ENDBRANCH  25  26
ENDBRANCH   6  25
TORSDOF 9
ENDMDL
MODEL 8
REMARK VINA RESULT:      -7.9      3.926      7.194
REMARK  Name = 
REMARK  9 active torsions:
REMARK  status: ('A' for Active; 'I' for Inactive)
REMARK    1  A    between atoms: C_2  and  C_11
REMARK    2  A    between atoms: N_3  and  C_4
REMARK    3  A    between atoms: C_4  and  C_5
REMARK    4  A    between atoms: C_15  and  O_16
REMARK    5  A    between atoms: O_16  and  C_17
REMARK    6  A    between atoms: C_17  and  C_18
REMARK    7  A    between atoms: C_22  and  O_23
REMARK    8  A    between atoms: O_23  and  C_24
REMARK    9  A    between atoms: C_24  and  C_25
REMARK                            x       y       z     vdW  Elec       q    Type
REMARK                         _______ _______ _______ _____ _____    ______ ____
ROOT
ATOM      1  C   UNL     1       2.819   4.334  19.245  0.00  0.00    +0.000 A 
ATOM      2  C   UNL     1       1.954   3.259  18.947  0.00  0.00    +0.000 A 
ATOM      3  C   UNL     1       2.242   2.384  17.910  0.00  0.00    +0.000 A 
ATOM      4  C   UNL     1       3.377   2.589  17.137  0.00  0.00    +0.000 A 
ATOM      5  C   UNL     1       4.230   3.672  17.386  0.00  0.00    +0.000 A 
ATOM      6  C   UNL     1       3.980   4.552  18.469  0.00  0.00    +0.000 A 
ENDROOT
BRANCH   1   8
ATOM      7  O   UNL     1       2.191   4.749  21.493  0.00  0.00    +0.000 OA
ATOM      8  C   UNL     1       2.392   5.209  20.375  0.00  0.00    +0.000 C 
ATOM      9  N   UNL     1       2.201   6.538  20.050  0.00  0.00    +0.000 N 
ATOM     10  H   UNL     1       2.414   6.891  19.125  0.00  0.00    +0.000 HD
BRANCH   9  11
ATOM     11  C   UNL     1       1.748   7.527  21.013  0.00  0.00    +0.000 C 
BRANCH  11  12
ATOM     12  C   UNL     1       1.347   8.863  20.337  0.00  0.00    +0.000 C 
ATOM     13  C   UNL     1      -0.110   9.235  20.667  0.00  0.00    +0.000 C 
ATOM     14  C   UNL     1      -0.532  10.533  19.983  0.00  0.00    +0.000 C 
ATOM     15  C   UNL     1      -0.229  10.483  18.490  0.00  0.00    +0.000 C 
ATOM     16  C   UNL     1       1.218  10.073  18.236  0.00  0.00    +0.000 C 
ATOM     17  N   UNL     1       1.522   8.783  18.870  0.00  0.00    +0.000 NA
ATOM     18  H   UNL     1       2.493   8.543  18.665  0.00  0.00    +0.000 HD
ENDBRANCH  11  12
ENDBRANCH   9  11
ENDBRANCH   1   8
BRANCH   5  19
ATOM     19  O   UNL     1       5.314   3.694  16.544  0.00  0.00    +0.000 OA
BRANCH  19  20
ATOM     20  C   UNL     1       5.167   4.386  15.299  0.00  0.00    +0.000 C 
BRANCH  20  21
ATOM     21  C   UNL     1       6.481   4.410  14.520  0.00  0.00    +0.000 C 
ATOM     22  F   UNL     1       7.563   4.211  15.305  0.00  0.00    +0.000 F 
ATOM     23  F   UNL     1       6.495   3.443  13.572  0.00  0.00    +0.000 F 
ATOM     24  F   UNL     1       6.655   5.593  13.884  0.00  0.00    +0.000 F 
ENDBRANCH  20  21
ENDBRANCH  19  20
ENDBRANCH   5  19
BRANCH   6  25
ATOM     25  O   UNL     1       4.885   5.568  18.621  0.00  0.00    +0.000 OA
BRANCH  25  26
ATOM     26  C   UNL     1       6.125   5.314  19.296  0.00  0.00    +0.000 C 
BRANCH  26  27
ATOM     27  C   UNL     1       7.339   5.678  18.445  0.00  0.00    +0.000 C 
ATOM     28  F   UNL     1       7.005   6.307  17.297  0.00  0.00    +0.000 F 
ATOM     29  F   UNL     1       8.188   6.487  19.120  0.00  0.00    +0.000 F 
ATOM     30  F   UNL     1       8.030   4.564  18.104  0.00  0.00    +0.000 F 
ENDBRANCH  26  27
ENDBRANCH  25  26
ENDBRANCH   6  25
TORSDOF 9
ENDMDL
MODEL 9
REMARK VINA RESULT:      -7.9      4.829      7.753
REMARK  Name = 
REMARK  9 active torsions:
REMARK  status: ('A' for Active; 'I' for Inactive)
REMARK    1  A    between atoms: C_2  and  C_11
REMARK    2  A    between atoms: N_3  and  C_4
REMARK    3  A    between atoms: C_4  and  C_5
REMARK    4  A    between atoms: C_15  and  O_16
REMARK    5  A    between atoms: O_16  and  C_17
REMARK    6  A    between atoms: C_17  and  C_18
REMARK    7  A    between atoms: C_22  and  O_23
REMARK    8  A    between atoms: O_23  and  C_24
REMARK    9  A    between atoms: C_24  and  C_25
REMARK                            x       y       z     vdW  Elec       q    Type
REMARK                         _______ _______ _______ _____ _____    ______ ____
ROOT
ATOM      1  C   UNL     1       1.953   8.643  18.735  0.00  0.00    +0.000 A 
ATOM      2  C   UNL     1       2.860   8.173  17.761  0.00  0.00    +0.000 A 
ATOM      3  C   UNL     1       3.373   6.887  17.833  0.00  0.00    +0.000 A 
ATOM      4  C   UNL     1       3.016   6.066  18.894  0.00  0.00    +0.000 A 
ATOM      5  C   UNL     1       2.150   6.522  19.895  0.00  0.00    +0.000 A 
ATOM      6  C   UNL     1       1.577   7.817  19.819  0.00  0.00    +0.000 A 
ENDROOT
BRANCH   1   8
ATOM      7  O   UNL     1       2.227  10.913  18.107  0.00  0.00    +0.000 OA
ATOM      8  C   UNL     1       1.483  10.047  18.552  0.00  0.00    +0.000 C 
ATOM      9  N   UNL     1       0.187  10.292  18.962  0.00  0.00    +0.000 N 
ATOM     10  H   UNL     1      -0.413   9.544  19.290  0.00  0.00    +0.000 HD
BRANCH   9  11
ATOM     11  C   UNL     1      -0.426  11.608  18.896  0.00  0.00    +0.000 C 
BRANCH  11  12
ATOM     12  C   UNL     1      -1.622  11.648  17.911  0.00  0.00    +0.000 C 
ATOM     13  C   UNL     1      -2.964  11.602  18.666  0.00  0.00    +0.000 C 
ATOM     14  C   UNL     1      -4.153  11.610  17.709  0.00  0.00    +0.000 C 
ATOM     15  C   UNL     1      -4.003  10.525  16.648  0.00  0.00    +0.000 C 
ATOM     16  C   UNL     1      -2.639  10.607  15.967  0.00  0.00    +0.000 C 
ATOM     17  N   UNL     1      -1.551  10.525  16.950  0.00  0.00    +0.000 NA
ATOM     18  H   UNL     1      -0.661  10.571  16.452  0.00  0.00    +0.000 HD
ENDBRANCH  11  12
ENDBRANCH   9  11
ENDBRANCH   1   8
BRANCH   5  19
ATOM     19  O   UNL     1       1.887   5.563  20.843  0.00  0.00    +0.000 OA
BRANCH  19  20
ATOM     20  C   UNL     1       1.092   4.441  20.441  0.00  0.00    +0.000 C 
BRANCH  20  21
ATOM     21  C   UNL     1       1.727   3.125  20.885  0.00  0.00    +0.000 C 
ATOM     22  F   UNL     1       1.481   2.106  20.030  0.00  0.00    +0.000 F 
ATOM     23  F   UNL     1       3.073   3.248  20.978  0.00  0.00    +0.000 F 
ATOM     24  F   UNL     1       1.277   2.747  22.104  0.00  0.00    +0.000 F 
ENDBRANCH  20  21
ENDBRANCH  19  20
ENDBRANCH   5  19
BRANCH   6  25
ATOM     25  O   UNL     1       0.739   8.150  20.849  0.00  0.00    +0.000 OA
BRANCH  25  26
ATOM     26  C   UNL     1       1.263   8.849  21.987  0.00  0.00    +0.000 C 
BRANCH  26  27
ATOM     27  C   UNL     1       0.163   9.446  22.862  0.00  0.00    +0.000 C 
ATOM     28  F   UNL     1       0.467   9.421  24.177  0.00  0.00    +0.000 F 
ATOM     29  F   UNL     1      -0.088  10.732  22.527  0.00  0.00    +0.000 F 
ATOM     30  F   UNL     1      -0.993   8.757  22.706  0.00  0.00    +0.000 F 
ENDBRANCH  26  27
ENDBRANCH  25  26
ENDBRANCH   6  25
TORSDOF 9
ENDMDL
