MODEL 1
REMARK VINA RESULT:      -8.0      0.000      0.000
REMARK  Name = 
REMARK  7 active torsions:
REMARK  status: ('A' for Active; 'I' for Inactive)
REMARK    1  A    between atoms: C_1  and  C_2
REMARK    2  A    between atoms: C_2  and  C_3
REMARK    3  A    between atoms: C_2  and  O_4
REMARK    4  A    between atoms: O_4  and  C_5
REMARK    5  A    between atoms: C_8  and  C_9
REMARK    6  A    between atoms: C_11  and  C_12
REMARK    7  A    between atoms: C_26  and  C_27
REMARK                            x       y       z     vdW  Elec       q    Type
REMARK                         _______ _______ _______ _____ _____    ______ ____
ROOT
ATOM      1  C   UNL     1       1.421   7.828  20.552  0.00  0.00    +0.000 A 
ATOM      2  N   UNL     1       2.252   7.604  19.561  0.00  0.00    +0.000 NA
ATOM      3  C   UNL     1       2.439   6.242  19.622  0.00  0.00    +0.000 A 
ATOM      4  N   UNL     1       1.774   5.651  20.631  0.00  0.00    +0.000 NA
ATOM      5  O   UNL     1       1.107   6.706  21.254  0.00  0.00    +0.000 OA
ENDROOT
BRANCH   3   6
ATOM      6  C   UNL     1       3.290   5.542  18.669  0.00  0.00    +0.000 A 
ATOM      7  C   UNL     1       2.781   4.481  17.914  0.00  0.00    +0.000 A 
ATOM      8  C   UNL     1       3.576   3.844  16.962  0.00  0.00    +0.000 A 
ATOM      9  C   UNL     1       4.906   4.242  16.752  0.00  0.00    +0.000 A 
ATOM     10  C   UNL     1       5.452   5.261  17.553  0.00  0.00    +0.000 A 
ATOM     11  C   UNL     1       4.630   5.911  18.491  0.00  0.00    +0.000 A 
ATOM     12  C   UNL     1       6.911   5.650  17.475  0.00  0.00    +0.000 C 
ATOM     13  C   UNL     1       7.356   6.180  16.109  0.00  0.00    +0.000 C 
ATOM     14  N   UNL     1       7.575   5.145  15.096  0.00  0.00    +0.000 NA
ATOM     15  C   UNL     1       6.325   4.523  14.654  0.00  0.00    +0.000 C 
ATOM     16  C   UNL     1       5.709   3.552  15.674  0.00  0.00    +0.000 C 
ATOM     17  H   UNL     1       8.197   4.430  15.470  0.00  0.00    +0.000 HD
ENDBRANCH   3   6
BRANCH   1  21
ATOM     18  C   UNL     1      -0.290  11.537  21.635  0.00  0.00    +0.000 A 
ATOM     19  N   UNL     1       0.213  10.746  22.606  0.00  0.00    +0.000 NA
ATOM     20  C   UNL     1       0.785   9.566  22.243  0.00  0.00    +0.000 A 
ATOM     21  C   UNL     1       0.811   9.084  20.943  0.00  0.00    +0.000 A 
ATOM     22  C   UNL     1       0.218   9.893  19.964  0.00  0.00    +0.000 A 
ATOM     23  C   UNL     1      -0.322  11.152  20.289  0.00  0.00    +0.000 A 
BRANCH  23  24
ATOM     24  C   UNL     1      -0.689  12.036  19.195  0.00  0.00    +0.000 C 
ATOM     25  N   UNL     1      -0.818  12.813  18.360  0.00  0.00    +0.000 NA
ENDBRANCH  23  24
BRANCH  18  26
ATOM     26  O   UNL     1      -0.831  12.750  21.988  0.00  0.00    +0.000 OA
BRANCH  26  28
ATOM     27  C   UNL     1      -1.513  14.152  23.824  0.00  0.00    +0.000 C 
ATOM     28  C   UNL     1      -1.525  12.730  23.255  0.00  0.00    +0.000 C 
ATOM     29  C   UNL     1      -2.987  12.308  23.108  0.00  0.00    +0.000 C 
ENDBRANCH  26  28
ENDBRANCH  18  26
ENDBRANCH   1  21
TORSDOF 5
ENDMDL
MODEL 2
REMARK VINA RESULT:      -7.8      3.586      4.547
REMARK  Name = 
REMARK  7 active torsions:
REMARK  status: ('A' for Active; 'I' for Inactive)
REMARK    1  A    between atoms: C_1  and  C_2
REMARK    2  A    between atoms: C_2  and  C_3
REMARK    3  A    between atoms: C_2  and  O_4
REMARK    4  A    between atoms: O_4  and  C_5
REMARK    5  A    between atoms: C_8  and  C_9
REMARK    6  A    between atoms: C_11  and  C_12
REMARK    7  A    between atoms: C_26  and  C_27
REMARK                            x       y       z     vdW  Elec       q    Type
REMARK                         _______ _______ _______ _____ _____    ______ ____
ROOT
ATOM      1  C   UNL     1      -0.181   9.987  18.189  0.00  0.00    +0.000 A 
ATOM      2  N   UNL     1       0.378   8.839  17.886  0.00  0.00    +0.000 NA
ATOM      3  C   UNL     1       1.576   8.895  18.559  0.00  0.00    +0.000 A 
ATOM      4  N   UNL     1       1.766  10.047  19.227  0.00  0.00    +0.000 NA
ATOM      5  O   UNL     1       0.603  10.775  18.973  0.00  0.00    +0.000 OA
ENDROOT
BRANCH   3   6
ATOM      6  C   UNL     1       2.529   7.793  18.522  0.00  0.00    +0.000 A 
ATOM      7  C   UNL     1       2.503   6.803  19.509  0.00  0.00    +0.000 A 
ATOM      8  C   UNL     1       3.377   5.718  19.447  0.00  0.00    +0.000 A 
ATOM      9  C   UNL     1       4.309   5.605  18.404  0.00  0.00    +0.000 A 
ATOM     10  C   UNL     1       4.393   6.627  17.443  0.00  0.00    +0.000 A 
ATOM     11  C   UNL     1       3.488   7.702  17.505  0.00  0.00    +0.000 A 
ATOM     12  C   UNL     1       5.459   6.638  16.371  0.00  0.00    +0.000 C 
ATOM     13  C   UNL     1       5.413   5.442  15.415  0.00  0.00    +0.000 C 
ATOM     14  N   UNL     1       5.972   4.204  15.963  0.00  0.00    +0.000 NA
ATOM     15  C   UNL     1       5.133   3.631  17.018  0.00  0.00    +0.000 C 
ATOM     16  C   UNL     1       5.199   4.384  18.355  0.00  0.00    +0.000 C 
ATOM     17  H   UNL     1       6.905   4.386  16.332  0.00  0.00    +0.000 HD
ENDBRANCH   3   6
BRANCH   1  21
ATOM     18  C   UNL     1      -3.973  11.437  17.017  0.00  0.00    +0.000 A 
ATOM     19  N   UNL     1      -3.462  11.838  18.201  0.00  0.00    +0.000 NA
ATOM     20  C   UNL     1      -2.229  11.385  18.555  0.00  0.00    +0.000 A 
ATOM     21  C   UNL     1      -1.496  10.470  17.816  0.00  0.00    +0.000 A 
ATOM     22  C   UNL     1      -2.081  10.015  16.626  0.00  0.00    +0.000 A 
ATOM     23  C   UNL     1      -3.324  10.513  16.190  0.00  0.00    +0.000 A 
BRANCH  23  24
ATOM     24  C   UNL     1      -3.748  10.190  14.837  0.00  0.00    +0.000 C 
ATOM     25  N   UNL     1      -3.981  10.076  13.719  0.00  0.00    +0.000 NA
ENDBRANCH  23  24
BRANCH  18  26
ATOM     26  O   UNL     1      -5.199  11.924  16.631  0.00  0.00    +0.000 OA
BRANCH  26  28
ATOM     27  C   UNL     1      -7.082  13.300  17.231  0.00  0.00    +0.000 C 
ATOM     28  C   UNL     1      -6.057  12.281  17.737  0.00  0.00    +0.000 C 
ATOM     29  C   UNL     1      -6.834  11.080  18.279  0.00  0.00    +0.000 C 
ENDBRANCH  26  28
ENDBRANCH  18  26
ENDBRANCH   1  21
TORSDOF 5
ENDMDL
MODEL 3
REMARK VINA RESULT:      -7.8      2.764      4.447
REMARK  Name = 
REMARK  7 active torsions:
REMARK  status: ('A' for Active; 'I' for Inactive)
REMARK    1  A    between atoms: C_1  and  C_2
REMARK    2  A    between atoms: C_2  and  C_3
REMARK    3  A    between atoms: C_2  and  O_4
REMARK    4  A    between atoms: O_4  and  C_5
REMARK    5  A    between atoms: C_8  and  C_9
REMARK    6  A    between atoms: C_11  and  C_12
REMARK    7  A    between atoms: C_26  and  C_27
REMARK                            x       y       z     vdW  Elec       q    Type
REMARK                         _______ _______ _______ _____ _____    ______ ____
ROOT
ATOM      1  C   UNL     1      -0.044  10.488  21.835  0.00  0.00    +0.000 A 
ATOM      2  N   UNL     1       0.111   9.691  20.804  0.00  0.00    +0.000 NA
ATOM      3  C   UNL     1       1.075   8.812  21.240  0.00  0.00    +0.000 A 
ATOM      4  N   UNL     1       1.523   9.075  22.481  0.00  0.00    +0.000 NA
ATOM      5  O   UNL     1       0.786  10.194  22.872  0.00  0.00    +0.000 OA
ENDROOT
BRANCH   3   6
ATOM      6  C   UNL     1       1.549   7.716  20.405  0.00  0.00    +0.000 A 
ATOM      7  C   UNL     1       2.154   7.979  19.172  0.00  0.00    +0.000 A 
ATOM      8  C   UNL     1       2.659   6.936  18.395  0.00  0.00    +0.000 A 
ATOM      9  C   UNL     1       2.555   5.604  18.825  0.00  0.00    +0.000 A 
ATOM     10  C   UNL     1       1.888   5.320  20.029  0.00  0.00    +0.000 A 
ATOM     11  C   UNL     1       1.407   6.384  20.814  0.00  0.00    +0.000 A 
ATOM     12  C   UNL     1       1.622   3.904  20.487  0.00  0.00    +0.000 C 
ATOM     13  C   UNL     1       2.882   3.067  20.732  0.00  0.00    +0.000 C 
ATOM     14  N   UNL     1       3.519   2.558  19.516  0.00  0.00    +0.000 NA
ATOM     15  C   UNL     1       4.152   3.619  18.729  0.00  0.00    +0.000 C 
ATOM     16  C   UNL     1       3.162   4.516  17.969  0.00  0.00    +0.000 C 
ATOM     17  H   UNL     1       2.825   2.079  18.943  0.00  0.00    +0.000 HD
ENDBRANCH   3   6
BRANCH   1  21
ATOM     18  C   UNL     1      -2.855  13.613  22.270  0.00  0.00    +0.000 A 
ATOM     19  N   UNL     1      -1.966  13.676  21.257  0.00  0.00    +0.000 NA
ATOM     20  C   UNL     1      -1.083  12.651  21.111  0.00  0.00    +0.000 A 
ATOM     21  C   UNL     1      -0.982  11.583  21.988  0.00  0.00    +0.000 A 
ATOM     22  C   UNL     1      -1.870  11.579  23.074  0.00  0.00    +0.000 A 
ATOM     23  C   UNL     1      -2.845  12.585  23.220  0.00  0.00    +0.000 A 
BRANCH  23  24
ATOM     24  C   UNL     1      -3.883  12.383  24.216  0.00  0.00    +0.000 C 
ATOM     25  N   UNL     1      -4.741  12.072  24.913  0.00  0.00    +0.000 NA
ENDBRANCH  23  24
BRANCH  18  26
ATOM     26  O   UNL     1      -3.779  14.623  22.399  0.00  0.00    +0.000 OA
BRANCH  26  28
ATOM     27  C   UNL     1      -4.040  16.997  22.092  0.00  0.00    +0.000 C 
ATOM     28  C   UNL     1      -3.200  15.898  22.751  0.00  0.00    +0.000 C 
ATOM     29  C   UNL     1      -3.220  16.149  24.259  0.00  0.00    +0.000 C 
ENDBRANCH  26  28
ENDBRANCH  18  26
ENDBRANCH   1  21
TORSDOF 5
ENDMDL
MODEL 4
REMARK VINA RESULT:      -7.8      2.549      3.453
REMARK  Name = 
REMARK  7 active torsions:
REMARK  status: ('A' for Active; 'I' for Inactive)
REMARK    1  A    between atoms: C_1  and  C_2
REMARK    2  A    between atoms: C_2  and  C_3
REMARK    3  A    between atoms: C_2  and  O_4
REMARK    4  A    between atoms: O_4  and  C_5
REMARK    5  A    between atoms: C_8  and  C_9
REMARK    6  A    between atoms: C_11  and  C_12
REMARK    7  A    between atoms: C_26  and  C_27
REMARK                            x       y       z     vdW  Elec       q    Type
REMARK                         _______ _______ _______ _____ _____    ______ ____
ROOT
ATOM      1  C   UNL     1       1.204  10.125  19.038  0.00  0.00    +0.000 A 
ATOM      2  N   UNL     1       1.337   8.826  19.173  0.00  0.00    +0.000 NA
ATOM      3  C   UNL     1       2.219   8.503  18.170  0.00  0.00    +0.000 A 
ATOM      4  N   UNL     1       2.594   9.556  17.421  0.00  0.00    +0.000 NA
ATOM      5  O   UNL     1       1.912  10.631  17.993  0.00  0.00    +0.000 OA
ENDROOT
BRANCH   3   6
ATOM      6  C   UNL     1       2.677   7.135  17.961  0.00  0.00    +0.000 A 
ATOM      7  C   UNL     1       4.013   6.879  17.638  0.00  0.00    +0.000 A 
ATOM      8  C   UNL     1       4.468   5.569  17.492  0.00  0.00    +0.000 A 
ATOM      9  C   UNL     1       3.593   4.482  17.651  0.00  0.00    +0.000 A 
ATOM     10  C   UNL     1       2.233   4.727  17.908  0.00  0.00    +0.000 A 
ATOM     11  C   UNL     1       1.795   6.053  18.078  0.00  0.00    +0.000 A 
ATOM     12  C   UNL     1       1.210   3.614  17.959  0.00  0.00    +0.000 C 
ATOM     13  C   UNL     1       1.457   2.573  19.055  0.00  0.00    +0.000 C 
ATOM     14  N   UNL     1       2.506   1.599  18.744  0.00  0.00    +0.000 NA
ATOM     15  C   UNL     1       3.844   2.197  18.752  0.00  0.00    +0.000 C 
ATOM     16  C   UNL     1       4.147   3.081  17.532  0.00  0.00    +0.000 C 
ATOM     17  H   UNL     1       2.325   1.185  17.830  0.00  0.00    +0.000 HD
ENDBRANCH   3   6
BRANCH   1  21
ATOM     18  C   UNL     1      -1.046  12.844  21.361  0.00  0.00    +0.000 A 
ATOM     19  N   UNL     1       0.259  12.665  21.654  0.00  0.00    +0.000 NA
ATOM     20  C   UNL     1       0.980  11.807  20.883  0.00  0.00    +0.000 A 
ATOM     21  C   UNL     1       0.439  11.039  19.864  0.00  0.00    +0.000 A 
ATOM     22  C   UNL     1      -0.935  11.190  19.628  0.00  0.00    +0.000 A 
ATOM     23  C   UNL     1      -1.700  12.120  20.358  0.00  0.00    +0.000 A 
BRANCH  23  24
ATOM     24  C   UNL     1      -3.048  12.402  19.893  0.00  0.00    +0.000 C 
ATOM     25  N   UNL     1      -4.163  12.492  19.638  0.00  0.00    +0.000 NA
ENDBRANCH  23  24
BRANCH  18  26
ATOM     26  O   UNL     1      -1.771  13.741  22.108  0.00  0.00    +0.000 OA
BRANCH  26  28
ATOM     27  C   UNL     1      -2.201  14.592  24.320  0.00  0.00    +0.000 C 
ATOM     28  C   UNL     1      -1.965  13.333  23.480  0.00  0.00    +0.000 C 
ATOM     29  C   UNL     1      -3.189  12.433  23.651  0.00  0.00    +0.000 C 
ENDBRANCH  26  28
ENDBRANCH  18  26
ENDBRANCH   1  21
TORSDOF 5
ENDMDL
MODEL 5
REMARK VINA RESULT:      -7.8      2.325     10.491
REMARK  Name = 
REMARK  7 active torsions:
REMARK  status: ('A' for Active; 'I' for Inactive)
REMARK    1  A    between atoms: C_1  and  C_2
REMARK    2  A    between atoms: C_2  and  C_3
REMARK    3  A    between atoms: C_2  and  O_4
REMARK    4  A    between atoms: O_4  and  C_5
REMARK    5  A    between atoms: C_8  and  C_9
REMARK    6  A    between atoms: C_11  and  C_12
REMARK    7  A    between atoms: C_26  and  C_27
REMARK                            x       y       z     vdW  Elec       q    Type
REMARK                         _______ _______ _______ _____ _____    ______ ____
ROOT
ATOM      1  C   UNL     1       0.851   8.681  21.304  0.00  0.00    +0.000 A 
ATOM      2  N   UNL     1      -0.146   9.451  20.935  0.00  0.00    +0.000 NA
ATOM      3  C   UNL     1      -0.250  10.339  21.980  0.00  0.00    +0.000 A 
ATOM      4  N   UNL     1       0.628  10.109  22.973  0.00  0.00    +0.000 NA
ATOM      5  O   UNL     1       1.352   9.002  22.528  0.00  0.00    +0.000 OA
ENDROOT
BRANCH   3   6
ATOM      6  C   UNL     1      -1.237  11.411  21.980  0.00  0.00    +0.000 A 
ATOM      7  C   UNL     1      -1.379  12.240  20.862  0.00  0.00    +0.000 A 
ATOM      8  C   UNL     1      -2.359  13.232  20.837  0.00  0.00    +0.000 A 
ATOM      9  C   UNL     1      -3.211  13.429  21.935  0.00  0.00    +0.000 A 
ATOM     10  C   UNL     1      -3.034  12.649  23.091  0.00  0.00    +0.000 A 
ATOM     11  C   UNL     1      -2.059  11.636  23.092  0.00  0.00    +0.000 A 
ATOM     12  C   UNL     1      -3.825  12.896  24.356  0.00  0.00    +0.000 C 
ATOM     13  C   UNL     1      -5.339  12.723  24.204  0.00  0.00    +0.000 C 
ATOM     14  N   UNL     1      -6.018  13.848  23.557  0.00  0.00    +0.000 NA
ATOM     15  C   UNL     1      -5.699  13.948  22.131  0.00  0.00    +0.000 C 
ATOM     16  C   UNL     1      -4.289  14.484  21.836  0.00  0.00    +0.000 C 
ATOM     17  H   UNL     1      -5.758  14.716  24.025  0.00  0.00    +0.000 HD
ENDBRANCH   3   6
BRANCH   1  21
ATOM     18  C   UNL     1       2.700   5.494  19.238  0.00  0.00    +0.000 A 
ATOM     19  N   UNL     1       2.721   6.725  18.685  0.00  0.00    +0.000 NA
ATOM     20  C   UNL     1       2.146   7.748  19.372  0.00  0.00    +0.000 A 
ATOM     21  C   UNL     1       1.464   7.593  20.569  0.00  0.00    +0.000 A 
ATOM     22  C   UNL     1       1.395   6.291  21.086  0.00  0.00    +0.000 A 
ATOM     23  C   UNL     1       2.038   5.218  20.440  0.00  0.00    +0.000 A 
BRANCH  23  24
ATOM     24  C   UNL     1       2.138   3.957  21.157  0.00  0.00    +0.000 C 
ATOM     25  N   UNL     1       2.291   3.059  21.855  0.00  0.00    +0.000 NA
ENDBRANCH  23  24
BRANCH  18  26
ATOM     26  O   UNL     1       3.317   4.462  18.571  0.00  0.00    +0.000 OA
BRANCH  26  28
ATOM     27  C   UNL     1       5.701   4.678  18.837  0.00  0.00    +0.000 C 
ATOM     28  C   UNL     1       4.521   4.856  17.878  0.00  0.00    +0.000 C 
ATOM     29  C   UNL     1       4.795   3.987  16.650  0.00  0.00    +0.000 C 
ENDBRANCH  26  28
ENDBRANCH  18  26
ENDBRANCH   1  21
TORSDOF 5
ENDMDL
MODEL 6
REMARK VINA RESULT:      -7.8      2.788      4.507
REMARK  Name = 
REMARK  7 active torsions:
REMARK  status: ('A' for Active; 'I' for Inactive)
REMARK    1  A    between atoms: C_1  and  C_2
REMARK    2  A    between atoms: C_2  and  C_3
REMARK    3  A    between atoms: C_2  and  O_4
REMARK    4  A    between atoms: O_4  and  C_5
REMARK    5  A    between atoms: C_8  and  C_9
REMARK    6  A    between atoms: C_11  and  C_12
REMARK    7  A    between atoms: C_26  and  C_27
REMARK                            x       y       z     vdW  Elec       q    Type
REMARK                         _______ _______ _______ _____ _____    ______ ____
ROOT
ATOM      1  C   UNL     1      -0.023  10.432  21.655  0.00  0.00    +0.000 A 
ATOM      2  N   UNL     1       0.099   9.567  20.676  0.00  0.00    +0.000 NA
ATOM      3  C   UNL     1       1.133   8.766  21.103  0.00  0.00    +0.000 A 
ATOM      4  N   UNL     1       1.652   9.141  22.286  0.00  0.00    +0.000 NA
ATOM      5  O   UNL     1       0.890  10.254  22.647  0.00  0.00    +0.000 OA
ENDROOT
BRANCH   3   6
ATOM      6  C   UNL     1       1.600   7.632  20.317  0.00  0.00    +0.000 A 
ATOM      7  C   UNL     1       2.247   7.838  19.094  0.00  0.00    +0.000 A 
ATOM      8  C   UNL     1       2.744   6.758  18.365  0.00  0.00    +0.000 A 
ATOM      9  C   UNL     1       2.593   5.444  18.834  0.00  0.00    +0.000 A 
ATOM     10  C   UNL     1       1.885   5.217  20.027  0.00  0.00    +0.000 A 
ATOM     11  C   UNL     1       1.411   6.317  20.764  0.00  0.00    +0.000 A 
ATOM     12  C   UNL     1       1.568   3.823  20.522  0.00  0.00    +0.000 C 
ATOM     13  C   UNL     1       2.798   2.963  20.829  0.00  0.00    +0.000 C 
ATOM     14  N   UNL     1       3.455   2.398  19.649  0.00  0.00    +0.000 NA
ATOM     15  C   UNL     1       4.138   3.417  18.848  0.00  0.00    +0.000 C 
ATOM     16  C   UNL     1       3.195   4.313  18.031  0.00  0.00    +0.000 C 
ATOM     17  H   UNL     1       2.765   1.918  19.072  0.00  0.00    +0.000 HD
ENDBRANCH   3   6
BRANCH   1  21
ATOM     18  C   UNL     1      -2.945  13.457  22.059  0.00  0.00    +0.000 A 
ATOM     19  N   UNL     1      -2.082  13.522  21.023  0.00  0.00    +0.000 NA
ATOM     20  C   UNL     1      -1.163  12.529  20.888  0.00  0.00    +0.000 A 
ATOM     21  C   UNL     1      -1.000  11.494  21.796  0.00  0.00    +0.000 A 
ATOM     22  C   UNL     1      -1.862  11.490  22.902  0.00  0.00    +0.000 A 
ATOM     23  C   UNL     1      -2.873  12.461  23.040  0.00  0.00    +0.000 A 
BRANCH  23  24
ATOM     24  C   UNL     1      -3.880  12.251  24.066  0.00  0.00    +0.000 C 
ATOM     25  N   UNL     1      -4.741  12.245  24.825  0.00  0.00    +0.000 NA
ENDBRANCH  23  24
BRANCH  18  26
ATOM     26  O   UNL     1      -3.905  14.434  22.178  0.00  0.00    +0.000 OA
BRANCH  26  28
ATOM     27  C   UNL     1      -5.596  13.288  20.903  0.00  0.00    +0.000 C 
ATOM     28  C   UNL     1      -4.752  14.561  21.016  0.00  0.00    +0.000 C 
ATOM     29  C   UNL     1      -5.718  15.741  21.127  0.00  0.00    +0.000 C 
ENDBRANCH  26  28
ENDBRANCH  18  26
ENDBRANCH   1  21
TORSDOF 5
ENDMDL
MODEL 7
REMARK VINA RESULT:      -7.8      2.407      3.334
REMARK  Name = 
REMARK  7 active torsions:
REMARK  status: ('A' for Active; 'I' for Inactive)
REMARK    1  A    between atoms: C_1  and  C_2
REMARK    2  A    between atoms: C_2  and  C_3
REMARK    3  A    between atoms: C_2  and  O_4
REMARK    4  A    between atoms: O_4  and  C_5
REMARK    5  A    between atoms: C_8  and  C_9
REMARK    6  A    between atoms: C_11  and  C_12
REMARK    7  A    between atoms: C_26  and  C_27
REMARK                            x       y       z     vdW  Elec       q    Type
REMARK                         _______ _______ _______ _____ _____    ______ ____
ROOT
ATOM      1  C   UNL     1       1.096  10.001  19.433  0.00  0.00    +0.000 A 
ATOM      2  N   UNL     1       1.363   8.720  19.536  0.00  0.00    +0.000 NA
ATOM      3  C   UNL     1       2.042   8.454  18.370  0.00  0.00    +0.000 A 
ATOM      4  N   UNL     1       2.164   9.523  17.561  0.00  0.00    +0.000 NA
ATOM      5  O   UNL     1       1.527  10.547  18.263  0.00  0.00    +0.000 OA
ENDROOT
BRANCH   3   6
ATOM      6  C   UNL     1       2.560   7.126  18.069  0.00  0.00    +0.000 A 
ATOM      7  C   UNL     1       3.884   6.963  17.648  0.00  0.00    +0.000 A 
ATOM      8  C   UNL     1       4.400   5.689  17.413  0.00  0.00    +0.000 A 
ATOM      9  C   UNL     1       3.600   4.547  17.578  0.00  0.00    +0.000 A 
ATOM     10  C   UNL     1       2.249   4.701  17.933  0.00  0.00    +0.000 A 
ATOM     11  C   UNL     1       1.750   5.990  18.192  0.00  0.00    +0.000 A 
ATOM     12  C   UNL     1       1.296   3.528  17.998  0.00  0.00    +0.000 C 
ATOM     13  C   UNL     1       1.674   2.457  19.027  0.00  0.00    +0.000 C 
ATOM     14  N   UNL     1       2.752   1.562  18.603  0.00  0.00    +0.000 NA
ATOM     15  C   UNL     1       4.052   2.236  18.552  0.00  0.00    +0.000 C 
ATOM     16  C   UNL     1       4.222   3.187  17.358  0.00  0.00    +0.000 C 
ATOM     17  H   UNL     1       2.534   1.176  17.685  0.00  0.00    +0.000 HD
ENDBRANCH   3   6
BRANCH   1  21
ATOM     18  C   UNL     1      -0.730  12.578  22.240  0.00  0.00    +0.000 A 
ATOM     19  N   UNL     1      -0.343  11.349  22.642  0.00  0.00    +0.000 NA
ATOM     20  C   UNL     1       0.267  10.538  21.737  0.00  0.00    +0.000 A 
ATOM     21  C   UNL     1       0.444  10.861  20.400  0.00  0.00    +0.000 A 
ATOM     22  C   UNL     1      -0.031  12.116  19.992  0.00  0.00    +0.000 A 
ATOM     23  C   UNL     1      -0.605  13.012  20.915  0.00  0.00    +0.000 A 
BRANCH  23  24
ATOM     24  C   UNL     1      -0.842  14.377  20.477  0.00  0.00    +0.000 C 
ATOM     25  N   UNL     1      -0.856  15.454  20.081  0.00  0.00    +0.000 NA
ENDBRANCH  23  24
BRANCH  18  26
ATOM     26  O   UNL     1      -1.308  13.420  23.159  0.00  0.00    +0.000 OA
BRANCH  26  28
ATOM     27  C   UNL     1      -3.176  14.063  24.536  0.00  0.00    +0.000 C 
ATOM     28  C   UNL     1      -2.609  12.984  23.608  0.00  0.00    +0.000 C 
ATOM     29  C   UNL     1      -3.595  12.811  22.452  0.00  0.00    +0.000 C 
ENDBRANCH  26  28
ENDBRANCH  18  26
ENDBRANCH   1  21
TORSDOF 5
ENDMDL
MODEL 8
REMARK VINA RESULT:      -7.7      2.300     10.085
REMARK  Name = 
REMARK  7 active torsions:
REMARK  status: ('A' for Active; 'I' for Inactive)
REMARK    1  A    between atoms: C_1  and  C_2
REMARK    2  A    between atoms: C_2  and  C_3
REMARK    3  A    between atoms: C_2  and  O_4
REMARK    4  A    between atoms: O_4  and  C_5
REMARK    5  A    between atoms: C_8  and  C_9
REMARK    6  A    between atoms: C_11  and  C_12
REMARK    7  A    between atoms: C_26  and  C_27
REMARK                            x       y       z     vdW  Elec       q    Type
REMARK                         _______ _______ _______ _____ _____    ______ ____
ROOT
ATOM      1  C   UNL     1       2.239   7.399  19.131  0.00  0.00    +0.000 A 
ATOM      2  N   UNL     1       1.655   8.537  18.840  0.00  0.00    +0.000 NA
ATOM      3  C   UNL     1       1.117   8.922  20.046  0.00  0.00    +0.000 A 
ATOM      4  N   UNL     1       1.333   8.040  21.039  0.00  0.00    +0.000 NA
ATOM      5  O   UNL     1       2.070   7.024  20.428  0.00  0.00    +0.000 OA
ENDROOT
BRANCH   3   6
ATOM      6  C   UNL     1       0.382  10.171  20.194  0.00  0.00    +0.000 A 
ATOM      7  C   UNL     1       0.201  11.019  19.096  0.00  0.00    +0.000 A 
ATOM      8  C   UNL     1      -0.549  12.188  19.221  0.00  0.00    +0.000 A 
ATOM      9  C   UNL     1      -1.124  12.546  20.450  0.00  0.00    +0.000 A 
ATOM     10  C   UNL     1      -0.893  11.739  21.578  0.00  0.00    +0.000 A 
ATOM     11  C   UNL     1      -0.157  10.550  21.431  0.00  0.00    +0.000 A 
ATOM     12  C   UNL     1      -1.369  12.131  22.959  0.00  0.00    +0.000 C 
ATOM     13  C   UNL     1      -2.888  12.268  23.094  0.00  0.00    +0.000 C 
ATOM     14  N   UNL     1      -3.438  13.511  22.548  0.00  0.00    +0.000 NA
ATOM     15  C   UNL     1      -3.377  13.554  21.085  0.00  0.00    +0.000 C 
ATOM     16  C   UNL     1      -1.970  13.797  20.519  0.00  0.00    +0.000 C 
ATOM     17  H   UNL     1      -2.928  14.306  22.933  0.00  0.00    +0.000 HD
ENDBRANCH   3   6
BRANCH   1  21
ATOM     18  C   UNL     1       4.585   4.876  16.684  0.00  0.00    +0.000 A 
ATOM     19  N   UNL     1       4.807   6.207  16.646  0.00  0.00    +0.000 NA
ATOM     20  C   UNL     1       4.064   7.007  17.458  0.00  0.00    +0.000 A 
ATOM     21  C   UNL     1       3.032   6.550  18.264  0.00  0.00    +0.000 A 
ATOM     22  C   UNL     1       2.775   5.172  18.230  0.00  0.00    +0.000 A 
ATOM     23  C   UNL     1       3.568   4.303  17.456  0.00  0.00    +0.000 A 
BRANCH  23  24
ATOM     24  C   UNL     1       3.407   2.873  17.663  0.00  0.00    +0.000 C 
ATOM     25  N   UNL     1       3.180   1.791  17.969  0.00  0.00    +0.000 NA
ENDBRANCH  23  24
BRANCH  18  26
ATOM     26  O   UNL     1       5.361   4.057  15.899  0.00  0.00    +0.000 OA
BRANCH  26  28
ATOM     27  C   UNL     1       7.312   4.929  14.790  0.00  0.00    +0.000 C 
ATOM     28  C   UNL     1       5.806   4.678  14.674  0.00  0.00    +0.000 C 
ATOM     29  C   UNL     1       5.585   3.781  13.455  0.00  0.00    +0.000 C 
ENDBRANCH  26  28
ENDBRANCH  18  26
ENDBRANCH   1  21
TORSDOF 5
ENDMDL
MODEL 9
REMARK VINA RESULT:      -7.7      2.060      9.628
REMARK  Name = 
REMARK  7 active torsions:
REMARK  status: ('A' for Active; 'I' for Inactive)
REMARK    1  A    between atoms: C_1  and  C_2
REMARK    2  A    between atoms: C_2  and  C_3
REMARK    3  A    between atoms: C_2  and  O_4
REMARK    4  A    between atoms: O_4  and  C_5
REMARK    5  A    between atoms: C_8  and  C_9
REMARK    6  A    between atoms: C_11  and  C_12
REMARK    7  A    between atoms: C_26  and  C_27
REMARK                            x       y       z     vdW  Elec       q    Type
REMARK                         _______ _______ _______ _____ _____    ______ ____
ROOT
ATOM      1  C   UNL     1       2.691   6.206  19.334  0.00  0.00    +0.000 A 
ATOM      2  N   UNL     1       2.267   7.447  19.391  0.00  0.00    +0.000 NA
ATOM      3  C   UNL     1       1.474   7.448  20.514  0.00  0.00    +0.000 A 
ATOM      4  N   UNL     1       1.384   6.246  21.112  0.00  0.00    +0.000 NA
ATOM      5  O   UNL     1       2.184   5.420  20.322  0.00  0.00    +0.000 OA
ENDROOT
BRANCH   3   6
ATOM      6  C   UNL     1       0.804   8.656  20.979  0.00  0.00    +0.000 A 
ATOM      7  C   UNL     1       0.473   8.805  22.330  0.00  0.00    +0.000 A 
ATOM      8  C   UNL     1      -0.119   9.981  22.788  0.00  0.00    +0.000 A 
ATOM      9  C   UNL     1      -0.408  11.033  21.904  0.00  0.00    +0.000 A 
ATOM     10  C   UNL     1      -0.144  10.869  20.533  0.00  0.00    +0.000 A 
ATOM     11  C   UNL     1       0.476   9.687  20.089  0.00  0.00    +0.000 A 
ATOM     12  C   UNL     1      -0.551  11.903  19.507  0.00  0.00    +0.000 C 
ATOM     13  C   UNL     1       0.101  13.277  19.694  0.00  0.00    +0.000 C 
ATOM     14  N   UNL     1      -0.494  14.092  20.755  0.00  0.00    +0.000 NA
ATOM     15  C   UNL     1      -0.205  13.566  22.092  0.00  0.00    +0.000 C 
ATOM     16  C   UNL     1      -1.003  12.306  22.460  0.00  0.00    +0.000 C 
ATOM     17  H   UNL     1      -1.503  14.142  20.621  0.00  0.00    +0.000 HD
ENDBRANCH   3   6
BRANCH   1  21
ATOM     18  C   UNL     1       5.396   4.579  16.526  0.00  0.00    +0.000 A 
ATOM     19  N   UNL     1       4.192   3.990  16.684  0.00  0.00    +0.000 NA
ATOM     20  C   UNL     1       3.320   4.538  17.572  0.00  0.00    +0.000 A 
ATOM     21  C   UNL     1       3.619   5.617  18.388  0.00  0.00    +0.000 A 
ATOM     22  C   UNL     1       4.902   6.166  18.255  0.00  0.00    +0.000 A 
ATOM     23  C   UNL     1       5.809   5.671  17.298  0.00  0.00    +0.000 A 
BRANCH  23  24
ATOM     24  C   UNL     1       7.015   6.441  17.044  0.00  0.00    +0.000 C 
ATOM     25  N   UNL     1       7.856   7.176  16.778  0.00  0.00    +0.000 NA
ENDBRANCH  23  24
BRANCH  18  26
ATOM     26  O   UNL     1       6.267   4.057  15.600  0.00  0.00    +0.000 OA
BRANCH  26  28
ATOM     27  C   UNL     1       7.463   5.054  13.762  0.00  0.00    +0.000 C 
ATOM     28  C   UNL     1       6.094   4.595  14.271  0.00  0.00    +0.000 C 
ATOM     29  C   UNL     1       5.566   3.551  13.286  0.00  0.00    +0.000 C 
ENDBRANCH  26  28
ENDBRANCH  18  26
ENDBRANCH   1  21
TORSDOF 5
ENDMDL
