MODEL 1
REMARK VINA RESULT:      -7.5      0.000      0.000
REMARK  Name = 
REMARK  5 active torsions:
REMARK  status: ('A' for Active; 'I' for Inactive)
REMARK    1  A    between atoms: C_1  and  O_2
REMARK    2  A    between atoms: O_2  and  C_3
REMARK    3  A    between atoms: C_9  and  N_10
REMARK    4  A    between atoms: C_11  and  C_13
REMARK    5  A    between atoms: C_17  and  N_18
REMARK                            x       y       z     vdW  Elec       q    Type
REMARK                         _______ _______ _______ _____ _____    ______ ____
ROOT
ATOM      1  N   UNL     1       0.889   8.971  18.858  0.00  0.00    +0.000 N 
ATOM      2  C   UNL     1       1.969   8.676  18.035  0.00  0.00    +0.000 C 
ATOM      3  O   UNL     1       2.358   9.370  17.097  0.00  0.00    +0.000 OA
ATOM      4  H   UNL     1       0.780   8.483  19.743  0.00  0.00    +0.000 HD
ENDROOT
BRANCH   1  11
ATOM      5  C   UNL     1       0.287  11.309  19.361  0.00  0.00    +0.000 A 
ATOM      6  C   UNL     1      -0.520  12.437  19.113  0.00  0.00    +0.000 A 
ATOM      7  C   UNL     1      -1.608  12.364  18.244  0.00  0.00    +0.000 A 
ATOM      8  C   UNL     1      -1.898  11.163  17.620  0.00  0.00    +0.000 A 
ATOM      9 CL   UNL     1      -3.259  11.053  16.574  0.00  0.00    +0.000 Cl
ATOM     10  C   UNL     1      -1.093  10.043  17.833  0.00  0.00    +0.000 A 
ATOM     11  C   UNL     1       0.027  10.100  18.677  0.00  0.00    +0.000 A 
BRANCH   5  13
ATOM     12  C   UNL     1       1.701  12.619  20.750  0.00  0.00    +0.000 C 
ATOM     13  O   UNL     1       1.355  11.330  20.232  0.00  0.00    +0.000 OA
ENDBRANCH   5  13
ENDBRANCH   1  11
BRANCH   2  14
ATOM     14  C   UNL     1       2.784   7.461  18.315  0.00  0.00    +0.000 A 
ATOM     15  C   UNL     1       2.479   6.761  19.497  0.00  0.00    +0.000 A 
ATOM     16  C   UNL     1       3.251   5.680  19.913  0.00  0.00    +0.000 A 
ATOM     17  C   UNL     1       4.354   5.289  19.160  0.00  0.00    +0.000 A 
ATOM     18  C   UNL     1       4.688   5.988  17.987  0.00  0.00    +0.000 A 
ATOM     19  C   UNL     1       3.894   7.075  17.554  0.00  0.00    +0.000 A 
BRANCH  18  20
ATOM     20  N   UNL     1       5.848   5.622  17.261  0.00  0.00    +0.000 N 
ATOM     21  C   UNL     1       6.820   4.700  17.571  0.00  0.00    +0.000 A 
ATOM     22  N   UNL     1       7.732   4.700  16.630  0.00  0.00    +0.000 NA
ATOM     23  N   UNL     1       7.328   5.633  15.717  0.00  0.00    +0.000 NA
ATOM     24  N   UNL     1       6.181   6.193  16.083  0.00  0.00    +0.000 NA
ENDBRANCH  18  20
ENDBRANCH   2  14
TORSDOF 4
ENDMDL
MODEL 2
REMARK VINA RESULT:      -7.4      6.922      7.803
REMARK  Name = 
REMARK  5 active torsions:
REMARK  status: ('A' for Active; 'I' for Inactive)
REMARK    1  A    between atoms: C_1  and  O_2
REMARK    2  A    between atoms: O_2  and  C_3
REMARK    3  A    between atoms: C_9  and  N_10
REMARK    4  A    between atoms: C_11  and  C_13
REMARK    5  A    between atoms: C_17  and  N_18
REMARK                            x       y       z     vdW  Elec       q    Type
REMARK                         _______ _______ _______ _____ _____    ______ ____
ROOT
ATOM      1  N   UNL     1       9.400   9.540  19.078  0.00  0.00    +0.000 N 
ATOM      2  C   UNL     1       8.368   9.186  18.218  0.00  0.00    +0.000 C 
ATOM      3  O   UNL     1       7.766   9.959  17.474  0.00  0.00    +0.000 OA
ATOM      4  H   UNL     1       9.997   8.819  19.474  0.00  0.00    +0.000 HD
ENDROOT
BRANCH   1  11
ATOM      5  C   UNL     1       9.634  11.541  20.500  0.00  0.00    +0.000 A 
ATOM      6  C   UNL     1      10.163  12.831  20.706  0.00  0.00    +0.000 A 
ATOM      7  C   UNL     1      10.858  13.492  19.695  0.00  0.00    +0.000 A 
ATOM      8  C   UNL     1      11.027  12.869  18.470  0.00  0.00    +0.000 A 
ATOM      9 CL   UNL     1      11.852  13.691  17.203  0.00  0.00    +0.000 Cl
ATOM     10  C   UNL     1      10.535  11.581  18.257  0.00  0.00    +0.000 A 
ATOM     11  C   UNL     1       9.860  10.882  19.270  0.00  0.00    +0.000 A 
BRANCH   5  13
ATOM     12  C   UNL     1       8.266  11.684  22.437  0.00  0.00    +0.000 C 
ATOM     13  O   UNL     1       8.918  10.863  21.463  0.00  0.00    +0.000 OA
ENDBRANCH   5  13
ENDBRANCH   1  11
BRANCH   2  14
ATOM     14  C   UNL     1       7.967   7.755  18.116  0.00  0.00    +0.000 A 
ATOM     15  C   UNL     1       8.200   6.957  19.250  0.00  0.00    +0.000 A 
ATOM     16  C   UNL     1       7.970   5.584  19.226  0.00  0.00    +0.000 A 
ATOM     17  C   UNL     1       7.515   4.982  18.056  0.00  0.00    +0.000 A 
ATOM     18  C   UNL     1       7.296   5.758  16.905  0.00  0.00    +0.000 A 
ATOM     19  C   UNL     1       7.512   7.155  16.935  0.00  0.00    +0.000 A 
BRANCH  18  20
ATOM     20  N   UNL     1       6.893   5.128  15.702  0.00  0.00    +0.000 N 
ATOM     21  C   UNL     1       5.930   4.168  15.497  0.00  0.00    +0.000 A 
ATOM     22  N   UNL     1       5.904   3.845  14.228  0.00  0.00    +0.000 NA
ATOM     23  N   UNL     1       6.863   4.611  13.627  0.00  0.00    +0.000 NA
ATOM     24  N   UNL     1       7.463   5.401  14.509  0.00  0.00    +0.000 NA
ENDBRANCH  18  20
ENDBRANCH   2  14
TORSDOF 4
ENDMDL
MODEL 3
REMARK VINA RESULT:      -7.4      3.684      8.048
REMARK  Name = 
REMARK  5 active torsions:
REMARK  status: ('A' for Active; 'I' for Inactive)
REMARK    1  A    between atoms: C_1  and  O_2
REMARK    2  A    between atoms: O_2  and  C_3
REMARK    3  A    between atoms: C_9  and  N_10
REMARK    4  A    between atoms: C_11  and  C_13
REMARK    5  A    between atoms: C_17  and  N_18
REMARK                            x       y       z     vdW  Elec       q    Type
REMARK                         _______ _______ _______ _____ _____    ______ ____
ROOT
ATOM      1  N   UNL     1       4.462   7.035  17.224  0.00  0.00    +0.000 N 
ATOM      2  C   UNL     1       3.354   6.723  18.001  0.00  0.00    +0.000 C 
ATOM      3  O   UNL     1       3.058   5.596  18.397  0.00  0.00    +0.000 OA
ATOM      4  H   UNL     1       4.765   8.003  17.141  0.00  0.00    +0.000 HD
ENDROOT
BRANCH   1  11
ATOM      5  C   UNL     1       6.452   5.607  17.512  0.00  0.00    +0.000 A 
ATOM      6  C   UNL     1       7.301   4.593  17.027  0.00  0.00    +0.000 A 
ATOM      7  C   UNL     1       7.139   4.074  15.743  0.00  0.00    +0.000 A 
ATOM      8  C   UNL     1       6.127   4.567  14.936  0.00  0.00    +0.000 A 
ATOM      9 CL   UNL     1       5.941   3.958  13.337  0.00  0.00    +0.000 Cl
ATOM     10  C   UNL     1       5.259   5.551  15.410  0.00  0.00    +0.000 A 
ATOM     11  C   UNL     1       5.382   6.066  16.710  0.00  0.00    +0.000 A 
BRANCH   5  13
ATOM     12  C   UNL     1       7.803   5.832  19.454  0.00  0.00    +0.000 C 
ATOM     13  O   UNL     1       6.594   6.166  18.764  0.00  0.00    +0.000 OA
ENDBRANCH   5  13
ENDBRANCH   1  11
BRANCH   2  14
ATOM     14  C   UNL     1       2.459   7.820  18.463  0.00  0.00    +0.000 A 
ATOM     15  C   UNL     1       2.271   8.892  17.572  0.00  0.00    +0.000 A 
ATOM     16  C   UNL     1       1.547  10.021  17.946  0.00  0.00    +0.000 A 
ATOM     17  C   UNL     1       1.011  10.104  19.227  0.00  0.00    +0.000 A 
ATOM     18  C   UNL     1       1.206   9.054  20.140  0.00  0.00    +0.000 A 
ATOM     19  C   UNL     1       1.925   7.899  19.755  0.00  0.00    +0.000 A 
BRANCH  18  20
ATOM     20  N   UNL     1       0.710   9.174  21.462  0.00  0.00    +0.000 N 
ATOM     21  C   UNL     1       1.363   9.559  22.609  0.00  0.00    +0.000 A 
ATOM     22  N   UNL     1       0.532   9.504  23.620  0.00  0.00    +0.000 NA
ATOM     23  N   UNL     1      -0.659   9.078  23.101  0.00  0.00    +0.000 NA
ATOM     24  N   UNL     1      -0.567   8.884  21.792  0.00  0.00    +0.000 NA
ENDBRANCH  18  20
ENDBRANCH   2  14
TORSDOF 4
ENDMDL
MODEL 4
REMARK VINA RESULT:      -7.4      2.517      2.960
REMARK  Name = 
REMARK  5 active torsions:
REMARK  status: ('A' for Active; 'I' for Inactive)
REMARK    1  A    between atoms: C_1  and  O_2
REMARK    2  A    between atoms: O_2  and  C_3
REMARK    3  A    between atoms: C_9  and  N_10
REMARK    4  A    between atoms: C_11  and  C_13
REMARK    5  A    between atoms: C_17  and  N_18
REMARK                            x       y       z     vdW  Elec       q    Type
REMARK                         _______ _______ _______ _____ _____    ______ ____
ROOT
ATOM      1  N   UNL     1       1.826   8.224  19.094  0.00  0.00    +0.000 N 
ATOM      2  C   UNL     1       2.054   6.947  19.591  0.00  0.00    +0.000 C 
ATOM      3  O   UNL     1       1.731   6.552  20.711  0.00  0.00    +0.000 OA
ATOM      4  H   UNL     1       1.903   8.398  18.095  0.00  0.00    +0.000 HD
ENDROOT
BRANCH   1  11
ATOM      5  C   UNL     1       1.262  10.611  19.352  0.00  0.00    +0.000 A 
ATOM      6  C   UNL     1       0.614  11.636  20.069  0.00  0.00    +0.000 A 
ATOM      7  C   UNL     1       0.003  11.379  21.295  0.00  0.00    +0.000 A 
ATOM      8  C   UNL     1       0.037  10.095  21.813  0.00  0.00    +0.000 A 
ATOM      9 CL   UNL     1      -0.684   9.775  23.343  0.00  0.00    +0.000 Cl
ATOM     10  C   UNL     1       0.650   9.062  21.104  0.00  0.00    +0.000 A 
ATOM     11  C   UNL     1       1.244   9.289  19.853  0.00  0.00    +0.000 A 
BRANCH   5  13
ATOM     12  C   UNL     1       2.511  12.113  18.001  0.00  0.00    +0.000 C 
ATOM     13  O   UNL     1       1.902  10.827  18.151  0.00  0.00    +0.000 OA
ENDBRANCH   5  13
ENDBRANCH   1  11
BRANCH   2  14
ATOM     14  C   UNL     1       2.684   5.926  18.708  0.00  0.00    +0.000 A 
ATOM     15  C   UNL     1       1.834   4.926  18.202  0.00  0.00    +0.000 A 
ATOM     16  C   UNL     1       2.337   3.860  17.461  0.00  0.00    +0.000 A 
ATOM     17  C   UNL     1       3.706   3.767  17.227  0.00  0.00    +0.000 A 
ATOM     18  C   UNL     1       4.575   4.744  17.742  0.00  0.00    +0.000 A 
ATOM     19  C   UNL     1       4.063   5.837  18.479  0.00  0.00    +0.000 A 
BRANCH  18  20
ATOM     20  N   UNL     1       5.972   4.609  17.553  0.00  0.00    +0.000 N 
ATOM     21  C   UNL     1       6.683   4.427  16.390  0.00  0.00    +0.000 A 
ATOM     22  N   UNL     1       7.958   4.324  16.674  0.00  0.00    +0.000 NA
ATOM     23  N   UNL     1       8.049   4.442  18.033  0.00  0.00    +0.000 NA
ATOM     24  N   UNL     1       6.853   4.626  18.576  0.00  0.00    +0.000 NA
ENDBRANCH  18  20
ENDBRANCH   2  14
TORSDOF 4
ENDMDL
MODEL 5
REMARK VINA RESULT:      -7.4      1.706      2.400
REMARK  Name = 
REMARK  5 active torsions:
REMARK  status: ('A' for Active; 'I' for Inactive)
REMARK    1  A    between atoms: C_1  and  O_2
REMARK    2  A    between atoms: O_2  and  C_3
REMARK    3  A    between atoms: C_9  and  N_10
REMARK    4  A    between atoms: C_11  and  C_13
REMARK    5  A    between atoms: C_17  and  N_18
REMARK                            x       y       z     vdW  Elec       q    Type
REMARK                         _______ _______ _______ _____ _____    ______ ____
ROOT
ATOM      1  N   UNL     1       1.065   9.237  19.260  0.00  0.00    +0.000 N 
ATOM      2  C   UNL     1       2.003   8.928  18.283  0.00  0.00    +0.000 C 
ATOM      3  O   UNL     1       2.360   9.680  17.378  0.00  0.00    +0.000 OA
ATOM      4  H   UNL     1       1.002   8.665  20.099  0.00  0.00    +0.000 HD
ENDROOT
BRANCH   1  11
ATOM      5  C   UNL     1      -0.778  10.654  18.436  0.00  0.00    +0.000 A 
ATOM      6  C   UNL     1      -1.550  11.827  18.543  0.00  0.00    +0.000 A 
ATOM      7  C   UNL     1      -1.213  12.828  19.453  0.00  0.00    +0.000 A 
ATOM      8  C   UNL     1      -0.100  12.664  20.260  0.00  0.00    +0.000 A 
ATOM      9 CL   UNL     1       0.345  13.909  21.361  0.00  0.00    +0.000 Cl
ATOM     10  C   UNL     1       0.660  11.496  20.187  0.00  0.00    +0.000 A 
ATOM     11  C   UNL     1       0.322  10.460  19.302  0.00  0.00    +0.000 A 
BRANCH   5  13
ATOM     12  C   UNL     1      -2.238   9.848  16.744  0.00  0.00    +0.000 C 
ATOM     13  O   UNL     1      -1.060   9.652  17.532  0.00  0.00    +0.000 OA
ENDBRANCH   5  13
ENDBRANCH   1  11
BRANCH   2  14
ATOM     14  C   UNL     1       2.700   7.613  18.337  0.00  0.00    +0.000 A 
ATOM     15  C   UNL     1       2.280   6.721  19.340  0.00  0.00    +0.000 A 
ATOM     16  C   UNL     1       2.938   5.513  19.553  0.00  0.00    +0.000 A 
ATOM     17  C   UNL     1       4.042   5.182  18.772  0.00  0.00    +0.000 A 
ATOM     18  C   UNL     1       4.492   6.068  17.779  0.00  0.00    +0.000 A 
ATOM     19  C   UNL     1       3.812   7.287  17.550  0.00  0.00    +0.000 A 
BRANCH  18  20
ATOM     20  N   UNL     1       5.653   5.752  17.031  0.00  0.00    +0.000 N 
ATOM     21  C   UNL     1       6.241   4.531  16.805  0.00  0.00    +0.000 A 
ATOM     22  N   UNL     1       7.319   4.697  16.080  0.00  0.00    +0.000 NA
ATOM     23  N   UNL     1       7.410   6.041  15.847  0.00  0.00    +0.000 NA
ATOM     24  N   UNL     1       6.399   6.691  16.410  0.00  0.00    +0.000 NA
ENDBRANCH  18  20
ENDBRANCH   2  14
TORSDOF 4
ENDMDL
MODEL 6
REMARK VINA RESULT:      -7.3      1.614      1.813
REMARK  Name = 
REMARK  5 active torsions:
REMARK  status: ('A' for Active; 'I' for Inactive)
REMARK    1  A    between atoms: C_1  and  O_2
REMARK    2  A    between atoms: O_2  and  C_3
REMARK    3  A    between atoms: C_9  and  N_10
REMARK    4  A    between atoms: C_11  and  C_13
REMARK    5  A    between atoms: C_17  and  N_18
REMARK                            x       y       z     vdW  Elec       q    Type
REMARK                         _______ _______ _______ _____ _____    ______ ____
ROOT
ATOM      1  N   UNL     1       1.442   8.690  19.488  0.00  0.00    +0.000 N 
ATOM      2  C   UNL     1       2.151   8.441  18.319  0.00  0.00    +0.000 C 
ATOM      3  O   UNL     1       2.387   9.270  17.441  0.00  0.00    +0.000 OA
ATOM      4  H   UNL     1       1.495   8.031  20.261  0.00  0.00    +0.000 HD
ENDROOT
BRANCH   1  11
ATOM      5  C   UNL     1       0.652  10.337  21.144  0.00  0.00    +0.000 A 
ATOM      6  C   UNL     1       0.111  11.605  21.435  0.00  0.00    +0.000 A 
ATOM      7  C   UNL     1      -0.317  12.454  20.414  0.00  0.00    +0.000 A 
ATOM      8  C   UNL     1      -0.210  12.039  19.098  0.00  0.00    +0.000 A 
ATOM      9 CL   UNL     1      -0.768  13.064  17.833  0.00  0.00    +0.000 Cl
ATOM     10  C   UNL     1       0.349  10.798  18.790  0.00  0.00    +0.000 A 
ATOM     11  C   UNL     1       0.817   9.940  19.797  0.00  0.00    +0.000 A 
BRANCH   5  13
ATOM     12  C   UNL     1       0.214   9.377  23.272  0.00  0.00    +0.000 C 
ATOM     13  O   UNL     1       1.061   9.457  22.122  0.00  0.00    +0.000 OA
ENDBRANCH   5  13
ENDBRANCH   1  11
BRANCH   2  14
ATOM     14  C   UNL     1       2.742   7.091  18.102  0.00  0.00    +0.000 A 
ATOM     15  C   UNL     1       2.098   6.016  18.739  0.00  0.00    +0.000 A 
ATOM     16  C   UNL     1       2.630   4.730  18.698  0.00  0.00    +0.000 A 
ATOM     17  C   UNL     1       3.829   4.500  18.029  0.00  0.00    +0.000 A 
ATOM     18  C   UNL     1       4.500   5.565  17.404  0.00  0.00    +0.000 A 
ATOM     19  C   UNL     1       3.951   6.868  17.431  0.00  0.00    +0.000 A 
BRANCH  18  20
ATOM     20  N   UNL     1       5.751   5.335  16.780  0.00  0.00    +0.000 N 
ATOM     21  C   UNL     1       6.792   4.531  17.178  0.00  0.00    +0.000 A 
ATOM     22  N   UNL     1       7.773   4.634  16.316  0.00  0.00    +0.000 NA
ATOM     23  N   UNL     1       7.343   5.515  15.364  0.00  0.00    +0.000 NA
ATOM     24  N   UNL     1       6.113   5.939  15.628  0.00  0.00    +0.000 NA
ENDBRANCH  18  20
ENDBRANCH   2  14
TORSDOF 4
ENDMDL
MODEL 7
REMARK VINA RESULT:      -7.2      2.501      2.873
REMARK  Name = 
REMARK  5 active torsions:
REMARK  status: ('A' for Active; 'I' for Inactive)
REMARK    1  A    between atoms: C_1  and  O_2
REMARK    2  A    between atoms: O_2  and  C_3
REMARK    3  A    between atoms: C_9  and  N_10
REMARK    4  A    between atoms: C_11  and  C_13
REMARK    5  A    between atoms: C_17  and  N_18
REMARK                            x       y       z     vdW  Elec       q    Type
REMARK                         _______ _______ _______ _____ _____    ______ ____
ROOT
ATOM      1  N   UNL     1       1.792   8.236  19.042  0.00  0.00    +0.000 N 
ATOM      2  C   UNL     1       2.021   6.942  19.492  0.00  0.00    +0.000 C 
ATOM      3  O   UNL     1       1.751   6.522  20.617  0.00  0.00    +0.000 OA
ATOM      4  H   UNL     1       1.819   8.437  18.046  0.00  0.00    +0.000 HD
ENDROOT
BRANCH   1  11
ATOM      5  C   UNL     1       1.296  10.626  19.397  0.00  0.00    +0.000 A 
ATOM      6  C   UNL     1       0.708  11.643  20.175  0.00  0.00    +0.000 A 
ATOM      7  C   UNL     1       0.152  11.362  21.422  0.00  0.00    +0.000 A 
ATOM      8  C   UNL     1       0.183  10.063  21.901  0.00  0.00    +0.000 A 
ATOM      9 CL   UNL     1      -0.468   9.713  23.455  0.00  0.00    +0.000 Cl
ATOM     10  C   UNL     1       0.736   9.039  21.132  0.00  0.00    +0.000 A 
ATOM     11  C   UNL     1       1.273   9.290  19.860  0.00  0.00    +0.000 A 
BRANCH   5  13
ATOM     12  C   UNL     1       2.492  12.149  18.021  0.00  0.00    +0.000 C 
ATOM     13  O   UNL     1       1.880  10.864  18.172  0.00  0.00    +0.000 OA
ENDBRANCH   5  13
ENDBRANCH   1  11
BRANCH   2  14
ATOM     14  C   UNL     1       2.582   5.934  18.549  0.00  0.00    +0.000 A 
ATOM     15  C   UNL     1       1.847   4.745  18.393  0.00  0.00    +0.000 A 
ATOM     16  C   UNL     1       2.336   3.691  17.626  0.00  0.00    +0.000 A 
ATOM     17  C   UNL     1       3.580   3.803  17.013  0.00  0.00    +0.000 A 
ATOM     18  C   UNL     1       4.341   4.974  17.174  0.00  0.00    +0.000 A 
ATOM     19  C   UNL     1       3.837   6.052  17.938  0.00  0.00    +0.000 A 
BRANCH  18  20
ATOM     20  N   UNL     1       5.633   5.055  16.599  0.00  0.00    +0.000 N 
ATOM     21  C   UNL     1       6.725   4.242  16.785  0.00  0.00    +0.000 A 
ATOM     22  N   UNL     1       7.729   4.696  16.076  0.00  0.00    +0.000 NA
ATOM     23  N   UNL     1       7.261   5.810  15.437  0.00  0.00    +0.000 NA
ATOM     24  N   UNL     1       5.988   6.033  15.738  0.00  0.00    +0.000 NA
ENDBRANCH  18  20
ENDBRANCH   2  14
TORSDOF 4
ENDMDL
MODEL 8
REMARK VINA RESULT:      -7.2      2.158      2.709
REMARK  Name = 
REMARK  5 active torsions:
REMARK  status: ('A' for Active; 'I' for Inactive)
REMARK    1  A    between atoms: C_1  and  O_2
REMARK    2  A    between atoms: O_2  and  C_3
REMARK    3  A    between atoms: C_9  and  N_10
REMARK    4  A    between atoms: C_11  and  C_13
REMARK    5  A    between atoms: C_17  and  N_18
REMARK                            x       y       z     vdW  Elec       q    Type
REMARK                         _______ _______ _______ _____ _____    ______ ____
ROOT
ATOM      1  N   UNL     1       1.820   9.299  17.805  0.00  0.00    +0.000 N 
ATOM      2  C   UNL     1       2.092   8.253  18.679  0.00  0.00    +0.000 C 
ATOM      3  O   UNL     1       1.862   8.258  19.887  0.00  0.00    +0.000 OA
ATOM      4  H   UNL     1       1.816   9.131  16.802  0.00  0.00    +0.000 HD
ENDROOT
BRANCH   1  11
ATOM      5  C   UNL     1      -0.102  10.786  18.225  0.00  0.00    +0.000 A 
ATOM      6  C   UNL     1      -0.610  12.010  18.704  0.00  0.00    +0.000 A 
ATOM      7  C   UNL     1       0.246  13.033  19.111  0.00  0.00    +0.000 A 
ATOM      8  C   UNL     1       1.615  12.839  19.039  0.00  0.00    +0.000 A 
ATOM      9 CL   UNL     1       2.681  14.108  19.505  0.00  0.00    +0.000 Cl
ATOM     10  C   UNL     1       2.136  11.623  18.594  0.00  0.00    +0.000 A 
ATOM     11  C   UNL     1       1.295  10.567  18.210  0.00  0.00    +0.000 A 
BRANCH   5  13
ATOM     12  C   UNL     1      -2.316  10.032  17.811  0.00  0.00    +0.000 C 
ATOM     13  O   UNL     1      -0.912   9.760  17.789  0.00  0.00    +0.000 OA
ENDBRANCH   5  13
ENDBRANCH   1  11
BRANCH   2  14
ATOM     14  C   UNL     1       2.654   6.984  18.138  0.00  0.00    +0.000 A 
ATOM     15  C   UNL     1       1.957   5.805  18.457  0.00  0.00    +0.000 A 
ATOM     16  C   UNL     1       2.455   4.554  18.101  0.00  0.00    +0.000 A 
ATOM     17  C   UNL     1       3.672   4.461  17.431  0.00  0.00    +0.000 A 
ATOM     18  C   UNL     1       4.395   5.626  17.122  0.00  0.00    +0.000 A 
ATOM     19  C   UNL     1       3.881   6.897  17.468  0.00  0.00    +0.000 A 
BRANCH  18  20
ATOM     20  N   UNL     1       5.662   5.519  16.496  0.00  0.00    +0.000 N 
ATOM     21  C   UNL     1       6.222   4.453  15.834  0.00  0.00    +0.000 A 
ATOM     22  N   UNL     1       7.426   4.778  15.433  0.00  0.00    +0.000 NA
ATOM     23  N   UNL     1       7.625   6.065  15.848  0.00  0.00    +0.000 NA
ATOM     24  N   UNL     1       6.558   6.530  16.486  0.00  0.00    +0.000 NA
ENDBRANCH  18  20
ENDBRANCH   2  14
TORSDOF 4
ENDMDL
MODEL 9
REMARK VINA RESULT:      -7.2      3.926      8.050
REMARK  Name = 
REMARK  5 active torsions:
REMARK  status: ('A' for Active; 'I' for Inactive)
REMARK    1  A    between atoms: C_1  and  O_2
REMARK    2  A    between atoms: O_2  and  C_3
REMARK    3  A    between atoms: C_9  and  N_10
REMARK    4  A    between atoms: C_11  and  C_13
REMARK    5  A    between atoms: C_17  and  N_18
REMARK                            x       y       z     vdW  Elec       q    Type
REMARK                         _______ _______ _______ _____ _____    ______ ____
ROOT
ATOM      1  N   UNL     1       2.164   6.131  18.647  0.00  0.00    +0.000 N 
ATOM      2  C   UNL     1       2.593   7.367  18.178  0.00  0.00    +0.000 C 
ATOM      3  O   UNL     1       3.461   7.540  17.323  0.00  0.00    +0.000 OA
ATOM      4  H   UNL     1       1.292   6.063  19.167  0.00  0.00    +0.000 HD
ENDROOT
BRANCH   1  11
ATOM      5  C   UNL     1       2.159   3.666  18.692  0.00  0.00    +0.000 A 
ATOM      6  C   UNL     1       2.676   2.440  18.227  0.00  0.00    +0.000 A 
ATOM      7  C   UNL     1       3.782   2.404  17.379  0.00  0.00    +0.000 A 
ATOM      8  C   UNL     1       4.380   3.592  16.993  0.00  0.00    +0.000 A 
ATOM      9 CL   UNL     1       5.767   3.556  15.975  0.00  0.00    +0.000 Cl
ATOM     10  C   UNL     1       3.864   4.815  17.421  0.00  0.00    +0.000 A 
ATOM     11  C   UNL     1       2.732   4.879  18.248  0.00  0.00    +0.000 A 
BRANCH   5  13
ATOM     12  C   UNL     1       1.354   3.380  20.909  0.00  0.00    +0.000 C 
ATOM     13  O   UNL     1       1.085   3.746  19.552  0.00  0.00    +0.000 OA
ENDBRANCH   5  13
ENDBRANCH   1  11
BRANCH   2  14
ATOM     14  C   UNL     1       1.933   8.604  18.682  0.00  0.00    +0.000 A 
ATOM     15  C   UNL     1       2.052   9.750  17.875  0.00  0.00    +0.000 A 
ATOM     16  C   UNL     1       1.572  10.985  18.303  0.00  0.00    +0.000 A 
ATOM     17  C   UNL     1       0.978  11.098  19.557  0.00  0.00    +0.000 A 
ATOM     18  C   UNL     1       0.869   9.969  20.387  0.00  0.00    +0.000 A 
ATOM     19  C   UNL     1       1.339   8.711  19.946  0.00  0.00    +0.000 A 
BRANCH  18  20
ATOM     20  N   UNL     1       0.319  10.105  21.686  0.00  0.00    +0.000 N 
ATOM     21  C   UNL     1      -0.729  10.884  22.114  0.00  0.00    +0.000 A 
ATOM     22  N   UNL     1      -0.886  10.728  23.405  0.00  0.00    +0.000 NA
ATOM     23  N   UNL     1       0.077   9.838  23.793  0.00  0.00    +0.000 NA
ATOM     24  N   UNL     1       0.808   9.446  22.758  0.00  0.00    +0.000 NA
ENDBRANCH  18  20
ENDBRANCH   2  14
TORSDOF 4
ENDMDL
