MODEL 1
REMARK VINA RESULT:      -8.1      0.000      0.000
REMARK  Name = 
REMARK  5 active torsions:
REMARK  status: ('A' for Active; 'I' for Inactive)
REMARK    1  A    between atoms: C_1  and  C_2
REMARK    2  A    between atoms: C_7  and  C_9
REMARK    3  A    between atoms: N_11  and  C_12
REMARK    4  A    between atoms: C_12  and  C_13
REMARK    5  A    between atoms: C_21  and  C_22
REMARK                            x       y       z     vdW  Elec       q    Type
REMARK                         _______ _______ _______ _____ _____    ______ ____
ROOT
ATOM      1  C   UNL     1       5.564   5.074  16.133  0.00  0.00    +0.000 A 
ATOM      2  C   UNL     1       5.595   4.511  14.869  0.00  0.00    +0.000 A 
ATOM      3  N   UNL     1       6.810   4.848  14.328  0.00  0.00    +0.000 N 
ATOM      4  N   UNL     1       7.615   5.492  15.191  0.00  0.00    +0.000 NA
ATOM      5  C   UNL     1       6.851   5.676  16.274  0.00  0.00    +0.000 A 
ATOM      6  C   UNL     1       7.377   6.444  17.435  0.00  0.00    +0.000 C 
ENDROOT
BRANCH   1  13
ATOM      7  C   UNL     1       1.367   2.621  21.825  0.00  0.00    +0.000 C 
ATOM      8  C   UNL     1       1.968   3.240  20.620  0.00  0.00    +0.000 A 
ATOM      9  N   UNL     1       1.540   4.355  20.070  0.00  0.00    +0.000 NA
ATOM     10  N   UNL     1       2.326   4.739  19.006  0.00  0.00    +0.000 NA
ATOM     11  C   UNL     1       3.306   3.898  18.784  0.00  0.00    +0.000 A 
ATOM     12  N   UNL     1       4.310   3.958  17.852  0.00  0.00    +0.000 N 
ATOM     13  C   UNL     1       4.493   5.113  17.127  0.00  0.00    +0.000 C 
ATOM     14  O   UNL     1       3.850   6.145  17.280  0.00  0.00    +0.000 OA
ATOM     15  S   UNL     1       3.331   2.544  19.825  0.00  0.00    +0.000 S 
ATOM     16  H   UNL     1       4.936   3.177  17.772  0.00  0.00    +0.000 HD
ENDBRANCH   1  13
BRANCH   3  17
ATOM     17  C   UNL     1       7.249   4.656  12.949  0.00  0.00    +0.000 C 
BRANCH  17  18
ATOM     18  C   UNL     1       6.305   3.729  12.217  0.00  0.00    +0.000 A 
ATOM     19  C   UNL     1       5.034   4.178  11.817  0.00  0.00    +0.000 A 
ATOM     20  C   UNL     1       4.115   3.301  11.240  0.00  0.00    +0.000 A 
ATOM     21  C   UNL     1       4.462   1.969  11.032  0.00  0.00    +0.000 A 
ATOM     22  C   UNL     1       5.736   1.526  11.379  0.00  0.00    +0.000 A 
ATOM     23 CL   UNL     1       6.171  -0.117  11.112  0.00  0.00    +0.000 Cl
ATOM     24  C   UNL     1       6.659   2.396  11.964  0.00  0.00    +0.000 A 
ENDBRANCH  17  18
ENDBRANCH   3  17
TORSDOF 3
ENDMDL
MODEL 2
REMARK VINA RESULT:      -7.9      0.996      1.408
REMARK  Name = 
REMARK  5 active torsions:
REMARK  status: ('A' for Active; 'I' for Inactive)
REMARK    1  A    between atoms: C_1  and  C_2
REMARK    2  A    between atoms: C_7  and  C_9
REMARK    3  A    between atoms: N_11  and  C_12
REMARK    4  A    between atoms: C_12  and  C_13
REMARK    5  A    between atoms: C_21  and  C_22
REMARK                            x       y       z     vdW  Elec       q    Type
REMARK                         _______ _______ _______ _____ _____    ______ ____
ROOT
ATOM      1  C   UNL     1       5.587   5.093  16.141  0.00  0.00    +0.000 A 
ATOM      2  C   UNL     1       5.653   4.537  14.875  0.00  0.00    +0.000 A 
ATOM      3  N   UNL     1       6.866   4.910  14.356  0.00  0.00    +0.000 N 
ATOM      4  N   UNL     1       7.640   5.571  15.234  0.00  0.00    +0.000 NA
ATOM      5  C   UNL     1       6.855   5.729  16.305  0.00  0.00    +0.000 A 
ATOM      6  C   UNL     1       7.341   6.505  17.478  0.00  0.00    +0.000 C 
ENDROOT
BRANCH   1  13
ATOM      7  C   UNL     1       1.362   2.494  21.748  0.00  0.00    +0.000 C 
ATOM      8  C   UNL     1       1.967   3.137  20.557  0.00  0.00    +0.000 A 
ATOM      9  N   UNL     1       1.520   4.246  20.008  0.00  0.00    +0.000 NA
ATOM     10  N   UNL     1       2.313   4.657  18.960  0.00  0.00    +0.000 NA
ATOM     11  C   UNL     1       3.317   3.841  18.748  0.00  0.00    +0.000 A 
ATOM     12  N   UNL     1       4.333   3.934  17.832  0.00  0.00    +0.000 N 
ATOM     13  C   UNL     1       4.499   5.098  17.119  0.00  0.00    +0.000 C 
ATOM     14  O   UNL     1       3.828   6.113  17.269  0.00  0.00    +0.000 OA
ATOM     15  S   UNL     1       3.359   2.481  19.779  0.00  0.00    +0.000 S 
ATOM     16  H   UNL     1       4.980   3.169  17.757  0.00  0.00    +0.000 HD
ENDBRANCH   1  13
BRANCH   3  17
ATOM     17  C   UNL     1       7.332   4.737  12.982  0.00  0.00    +0.000 C 
BRANCH  17  18
ATOM     18  C   UNL     1       6.574   3.619  12.303  0.00  0.00    +0.000 A 
ATOM     19  C   UNL     1       7.225   2.420  11.964  0.00  0.00    +0.000 A 
ATOM     20  C   UNL     1       6.565   1.427  11.239  0.00  0.00    +0.000 A 
ATOM     21  C   UNL     1       5.237   1.608  10.865  0.00  0.00    +0.000 A 
ATOM     22  C   UNL     1       4.567   2.771  11.238  0.00  0.00    +0.000 A 
ATOM     23 CL   UNL     1       2.921   2.992  10.786  0.00  0.00    +0.000 Cl
ATOM     24  C   UNL     1       5.224   3.773  11.957  0.00  0.00    +0.000 A 
ENDBRANCH  17  18
ENDBRANCH   3  17
TORSDOF 3
ENDMDL
MODEL 3
REMARK VINA RESULT:      -7.7      5.908      7.423
REMARK  Name = 
REMARK  5 active torsions:
REMARK  status: ('A' for Active; 'I' for Inactive)
REMARK    1  A    between atoms: C_1  and  C_2
REMARK    2  A    between atoms: C_7  and  C_9
REMARK    3  A    between atoms: N_11  and  C_12
REMARK    4  A    between atoms: C_12  and  C_13
REMARK    5  A    between atoms: C_21  and  C_22
REMARK                            x       y       z     vdW  Elec       q    Type
REMARK                         _______ _______ _______ _____ _____    ______ ____
ROOT
ATOM      1  C   UNL     1       1.855   7.907  19.847  0.00  0.00    +0.000 A 
ATOM      2  C   UNL     1       2.251   6.582  19.892  0.00  0.00    +0.000 A 
ATOM      3  N   UNL     1       2.678   6.265  18.628  0.00  0.00    +0.000 N 
ATOM      4  N   UNL     1       2.697   7.319  17.794  0.00  0.00    +0.000 NA
ATOM      5  C   UNL     1       2.154   8.310  18.510  0.00  0.00    +0.000 A 
ATOM      6  C   UNL     1       1.923   9.640  17.884  0.00  0.00    +0.000 C 
ENDROOT
BRANCH   1  13
ATOM      7  C   UNL     1      -2.581  13.279  22.586  0.00  0.00    +0.000 C 
ATOM      8  C   UNL     1      -1.544  12.270  22.263  0.00  0.00    +0.000 A 
ATOM      9  N   UNL     1      -0.758  11.707  23.155  0.00  0.00    +0.000 NA
ATOM     10  N   UNL     1       0.061  10.754  22.591  0.00  0.00    +0.000 NA
ATOM     11  C   UNL     1      -0.125  10.643  21.298  0.00  0.00    +0.000 A 
ATOM     12  N   UNL     1       0.466   9.786  20.405  0.00  0.00    +0.000 N 
ATOM     13  C   UNL     1       1.238   8.749  20.872  0.00  0.00    +0.000 C 
ATOM     14  O   UNL     1       1.412   8.482  22.055  0.00  0.00    +0.000 OA
ATOM     15  S   UNL     1      -1.283  11.718  20.651  0.00  0.00    +0.000 S 
ATOM     16  H   UNL     1       0.258   9.896  19.428  0.00  0.00    +0.000 HD
ENDBRANCH   1  13
BRANCH   3  17
ATOM     17  C   UNL     1       3.016   4.941  18.114  0.00  0.00    +0.000 C 
BRANCH  17  18
ATOM     18  C   UNL     1       4.469   4.888  17.698  0.00  0.00    +0.000 A 
ATOM     19  C   UNL     1       4.835   4.342  16.456  0.00  0.00    +0.000 A 
ATOM     20  C   UNL     1       6.177   4.188  16.109  0.00  0.00    +0.000 A 
ATOM     21  C   UNL     1       7.174   4.601  16.990  0.00  0.00    +0.000 A 
ATOM     22  C   UNL     1       6.822   5.188  18.203  0.00  0.00    +0.000 A 
ATOM     23 CL   UNL     1       8.051   5.709  19.288  0.00  0.00    +0.000 Cl
ATOM     24  C   UNL     1       5.479   5.339  18.560  0.00  0.00    +0.000 A 
ENDBRANCH  17  18
ENDBRANCH   3  17
TORSDOF 3
ENDMDL
MODEL 4
REMARK VINA RESULT:      -7.6      3.614      4.577
REMARK  Name = 
REMARK  5 active torsions:
REMARK  status: ('A' for Active; 'I' for Inactive)
REMARK    1  A    between atoms: C_1  and  C_2
REMARK    2  A    between atoms: C_7  and  C_9
REMARK    3  A    between atoms: N_11  and  C_12
REMARK    4  A    between atoms: C_12  and  C_13
REMARK    5  A    between atoms: C_21  and  C_22
REMARK                            x       y       z     vdW  Elec       q    Type
REMARK                         _______ _______ _______ _____ _____    ______ ____
ROOT
ATOM      1  C   UNL     1       3.544   6.444  17.577  0.00  0.00    +0.000 A 
ATOM      2  C   UNL     1       4.849   6.381  17.120  0.00  0.00    +0.000 A 
ATOM      3  N   UNL     1       5.124   5.051  16.927  0.00  0.00    +0.000 N 
ATOM      4  N   UNL     1       4.057   4.255  17.116  0.00  0.00    +0.000 NA
ATOM      5  C   UNL     1       3.105   5.085  17.556  0.00  0.00    +0.000 A 
ATOM      6  C   UNL     1       1.778   4.549  17.962  0.00  0.00    +0.000 C 
ENDROOT
BRANCH   1  13
ATOM      7  C   UNL     1      -0.277  10.702  22.405  0.00  0.00    +0.000 C 
ATOM      8  C   UNL     1       0.310   9.967  21.259  0.00  0.00    +0.000 A 
ATOM      9  N   UNL     1       0.262  10.382  20.012  0.00  0.00    +0.000 NA
ATOM     10  N   UNL     1       0.949   9.543  19.163  0.00  0.00    +0.000 NA
ATOM     11  C   UNL     1       1.477   8.522  19.794  0.00  0.00    +0.000 A 
ATOM     12  N   UNL     1       2.257   7.507  19.305  0.00  0.00    +0.000 N 
ATOM     13  C   UNL     1       2.750   7.588  18.024  0.00  0.00    +0.000 C 
ATOM     14  O   UNL     1       2.591   8.542  17.272  0.00  0.00    +0.000 OA
ATOM     15  S   UNL     1       1.147   8.474  21.469  0.00  0.00    +0.000 S 
ATOM     16  H   UNL     1       2.510   6.758  19.925  0.00  0.00    +0.000 HD
ENDBRANCH   1  13
BRANCH   3  17
ATOM     17  C   UNL     1       6.422   4.449  16.635  0.00  0.00    +0.000 C 
BRANCH  17  18
ATOM     18  C   UNL     1       6.676   4.436  15.144  0.00  0.00    +0.000 A 
ATOM     19  C   UNL     1       7.677   5.249  14.586  0.00  0.00    +0.000 A 
ATOM     20  C   UNL     1       7.846   5.328  13.203  0.00  0.00    +0.000 A 
ATOM     21  C   UNL     1       7.033   4.576  12.360  0.00  0.00    +0.000 A 
ATOM     22  C   UNL     1       6.070   3.730  12.905  0.00  0.00    +0.000 A 
ATOM     23 CL   UNL     1       5.071   2.790  11.865  0.00  0.00    +0.000 Cl
ATOM     24  C   UNL     1       5.890   3.651  14.288  0.00  0.00    +0.000 A 
ENDBRANCH  17  18
ENDBRANCH   3  17
TORSDOF 3
ENDMDL
MODEL 5
REMARK VINA RESULT:      -7.6      5.578      7.188
REMARK  Name = 
REMARK  5 active torsions:
REMARK  status: ('A' for Active; 'I' for Inactive)
REMARK    1  A    between atoms: C_1  and  C_2
REMARK    2  A    between atoms: C_7  and  C_9
REMARK    3  A    between atoms: N_11  and  C_12
REMARK    4  A    between atoms: C_12  and  C_13
REMARK    5  A    between atoms: C_21  and  C_22
REMARK                            x       y       z     vdW  Elec       q    Type
REMARK                         _______ _______ _______ _____ _____    ______ ____
ROOT
ATOM      1  C   UNL     1       1.880   7.796  19.918  0.00  0.00    +0.000 A 
ATOM      2  C   UNL     1       2.238   6.464  20.021  0.00  0.00    +0.000 A 
ATOM      3  N   UNL     1       2.667   6.084  18.775  0.00  0.00    +0.000 N 
ATOM      4  N   UNL     1       2.722   7.102  17.899  0.00  0.00    +0.000 NA
ATOM      5  C   UNL     1       2.202   8.137  18.568  0.00  0.00    +0.000 A 
ATOM      6  C   UNL     1       2.013   9.446  17.887  0.00  0.00    +0.000 C 
ENDROOT
BRANCH   1  13
ATOM      7  C   UNL     1      -2.509  13.325  22.408  0.00  0.00    +0.000 C 
ATOM      8  C   UNL     1      -1.479  12.297  22.130  0.00  0.00    +0.000 A 
ATOM      9  N   UNL     1      -0.682  11.783  23.041  0.00  0.00    +0.000 NA
ATOM     10  N   UNL     1       0.127  10.798  22.521  0.00  0.00    +0.000 NA
ATOM     11  C   UNL     1      -0.075  10.615  21.238  0.00  0.00    +0.000 A 
ATOM     12  N   UNL     1       0.501   9.707  20.388  0.00  0.00    +0.000 N 
ATOM     13  C   UNL     1       1.279   8.696  20.902  0.00  0.00    +0.000 C 
ATOM     14  O   UNL     1       1.467   8.496  22.096  0.00  0.00    +0.000 OA
ATOM     15  S   UNL     1      -1.240  11.654  20.547  0.00  0.00    +0.000 S 
ATOM     16  H   UNL     1       0.281   9.763  19.409  0.00  0.00    +0.000 HD
ENDBRANCH   1  13
BRANCH   3  17
ATOM     17  C   UNL     1       2.972   4.731  18.318  0.00  0.00    +0.000 C 
BRANCH  17  18
ATOM     18  C   UNL     1       4.409   4.639  17.854  0.00  0.00    +0.000 A 
ATOM     19  C   UNL     1       5.461   4.950  18.733  0.00  0.00    +0.000 A 
ATOM     20  C   UNL     1       6.783   4.975  18.286  0.00  0.00    +0.000 A 
ATOM     21  C   UNL     1       7.073   4.666  16.959  0.00  0.00    +0.000 A 
ATOM     22  C   UNL     1       6.042   4.309  16.093  0.00  0.00    +0.000 A 
ATOM     23 CL   UNL     1       6.400   3.915  14.457  0.00  0.00    +0.000 Cl
ATOM     24  C   UNL     1       4.716   4.288  16.532  0.00  0.00    +0.000 A 
ENDBRANCH  17  18
ENDBRANCH   3  17
TORSDOF 3
ENDMDL
MODEL 6
REMARK VINA RESULT:      -7.5      6.690      8.578
REMARK  Name = 
REMARK  5 active torsions:
REMARK  status: ('A' for Active; 'I' for Inactive)
REMARK    1  A    between atoms: C_1  and  C_2
REMARK    2  A    between atoms: C_7  and  C_9
REMARK    3  A    between atoms: N_11  and  C_12
REMARK    4  A    between atoms: C_12  and  C_13
REMARK    5  A    between atoms: C_21  and  C_22
REMARK                            x       y       z     vdW  Elec       q    Type
REMARK                         _______ _______ _______ _____ _____    ______ ____
ROOT
ATOM      1  C   UNL     1       1.429   9.248  18.815  0.00  0.00    +0.000 A 
ATOM      2  C   UNL     1       2.067   8.530  17.819  0.00  0.00    +0.000 A 
ATOM      3  N   UNL     1       2.597   7.420  18.426  0.00  0.00    +0.000 N 
ATOM      4  N   UNL     1       2.253   7.307  19.720  0.00  0.00    +0.000 NA
ATOM      5  C   UNL     1       1.584   8.436  19.980  0.00  0.00    +0.000 A 
ATOM      6  C   UNL     1       1.108   8.719  21.360  0.00  0.00    +0.000 C 
ENDROOT
BRANCH   1  13
ATOM      7  C   UNL     1       0.927  16.716  18.664  0.00  0.00    +0.000 C 
ATOM      8  C   UNL     1       0.780  15.249  18.818  0.00  0.00    +0.000 A 
ATOM      9  N   UNL     1      -0.376  14.628  18.911  0.00  0.00    +0.000 NA
ATOM     10  N   UNL     1      -0.223  13.261  18.973  0.00  0.00    +0.000 NA
ATOM     11  C   UNL     1       1.038  12.901  18.938  0.00  0.00    +0.000 A 
ATOM     12  N   UNL     1       1.583  11.643  18.937  0.00  0.00    +0.000 N 
ATOM     13  C   UNL     1       0.765  10.551  18.768  0.00  0.00    +0.000 C 
ATOM     14  O   UNL     1      -0.442  10.604  18.562  0.00  0.00    +0.000 OA
ATOM     15  S   UNL     1       2.146  14.198  18.870  0.00  0.00    +0.000 S 
ATOM     16  H   UNL     1       2.582  11.555  18.988  0.00  0.00    +0.000 HD
ENDBRANCH   1  13
BRANCH   3  17
ATOM     17  C   UNL     1       3.520   6.449  17.844  0.00  0.00    +0.000 C 
BRANCH  17  18
ATOM     18  C   UNL     1       3.107   5.041  18.209  0.00  0.00    +0.000 A 
ATOM     19  C   UNL     1       1.852   4.543  17.818  0.00  0.00    +0.000 A 
ATOM     20  C   UNL     1       1.417   3.287  18.242  0.00  0.00    +0.000 A 
ATOM     21  C   UNL     1       2.240   2.501  19.043  0.00  0.00    +0.000 A 
ATOM     22  C   UNL     1       3.505   2.965  19.397  0.00  0.00    +0.000 A 
ATOM     23 CL   UNL     1       4.529   1.990  20.377  0.00  0.00    +0.000 Cl
ATOM     24  C   UNL     1       3.945   4.224  18.981  0.00  0.00    +0.000 A 
ENDBRANCH  17  18
ENDBRANCH   3  17
TORSDOF 3
ENDMDL
MODEL 7
REMARK VINA RESULT:      -7.4      3.964      4.914
REMARK  Name = 
REMARK  5 active torsions:
REMARK  status: ('A' for Active; 'I' for Inactive)
REMARK    1  A    between atoms: C_1  and  C_2
REMARK    2  A    between atoms: C_7  and  C_9
REMARK    3  A    between atoms: N_11  and  C_12
REMARK    4  A    between atoms: C_12  and  C_13
REMARK    5  A    between atoms: C_21  and  C_22
REMARK                            x       y       z     vdW  Elec       q    Type
REMARK                         _______ _______ _______ _____ _____    ______ ____
ROOT
ATOM      1  C   UNL     1       3.348   6.483  17.772  0.00  0.00    +0.000 A 
ATOM      2  C   UNL     1       4.605   6.388  17.201  0.00  0.00    +0.000 A 
ATOM      3  N   UNL     1       4.895   5.049  17.133  0.00  0.00    +0.000 N 
ATOM      4  N   UNL     1       3.871   4.264  17.513  0.00  0.00    +0.000 NA
ATOM      5  C   UNL     1       2.944   5.125  17.947  0.00  0.00    +0.000 A 
ATOM      6  C   UNL     1       1.676   4.618  18.537  0.00  0.00    +0.000 C 
ENDROOT
BRANCH   1  13
ATOM      7  C   UNL     1      -0.381  11.043  22.392  0.00  0.00    +0.000 C 
ATOM      8  C   UNL     1       0.188  10.240  21.283  0.00  0.00    +0.000 A 
ATOM      9  N   UNL     1       0.131  10.586  20.016  0.00  0.00    +0.000 NA
ATOM     10  N   UNL     1       0.801   9.694  19.208  0.00  0.00    +0.000 NA
ATOM     11  C   UNL     1       1.324   8.703  19.890  0.00  0.00    +0.000 A 
ATOM     12  N   UNL     1       2.089   7.654  19.451  0.00  0.00    +0.000 N 
ATOM     13  C   UNL     1       2.571   7.659  18.163  0.00  0.00    +0.000 C 
ATOM     14  O   UNL     1       2.414   8.572  17.360  0.00  0.00    +0.000 OA
ATOM     15  S   UNL     1       1.011   8.751  21.568  0.00  0.00    +0.000 S 
ATOM     16  H   UNL     1       2.341   6.938  20.109  0.00  0.00    +0.000 HD
ENDBRANCH   1  13
BRANCH   3  17
ATOM     17  C   UNL     1       6.174   4.437  16.785  0.00  0.00    +0.000 C 
BRANCH  17  18
ATOM     18  C   UNL     1       6.377   4.448  15.287  0.00  0.00    +0.000 A 
ATOM     19  C   UNL     1       5.577   3.647  14.454  0.00  0.00    +0.000 A 
ATOM     20  C   UNL     1       5.826   3.565  13.084  0.00  0.00    +0.000 A 
ATOM     21  C   UNL     1       6.866   4.303  12.523  0.00  0.00    +0.000 A 
ATOM     22  C   UNL     1       7.634   5.137  13.331  0.00  0.00    +0.000 A 
ATOM     23 CL   UNL     1       8.911   6.059  12.638  0.00  0.00    +0.000 Cl
ATOM     24  C   UNL     1       7.394   5.219  14.705  0.00  0.00    +0.000 A 
ENDBRANCH  17  18
ENDBRANCH   3  17
TORSDOF 3
ENDMDL
MODEL 8
REMARK VINA RESULT:      -7.4      7.138      9.277
REMARK  Name = 
REMARK  5 active torsions:
REMARK  status: ('A' for Active; 'I' for Inactive)
REMARK    1  A    between atoms: C_1  and  C_2
REMARK    2  A    between atoms: C_7  and  C_9
REMARK    3  A    between atoms: N_11  and  C_12
REMARK    4  A    between atoms: C_12  and  C_13
REMARK    5  A    between atoms: C_21  and  C_22
REMARK                            x       y       z     vdW  Elec       q    Type
REMARK                         _______ _______ _______ _____ _____    ______ ____
ROOT
ATOM      1  C   UNL     1       1.163   9.581  19.269  0.00  0.00    +0.000 A 
ATOM      2  C   UNL     1       1.913   8.729  18.479  0.00  0.00    +0.000 A 
ATOM      3  N   UNL     1       2.236   7.656  19.270  0.00  0.00    +0.000 N 
ATOM      4  N   UNL     1       1.655   7.696  20.482  0.00  0.00    +0.000 NA
ATOM      5  C   UNL     1       1.039   8.883  20.509  0.00  0.00    +0.000 A 
ATOM      6  C   UNL     1       0.343   9.333  21.745  0.00  0.00    +0.000 C 
ENDROOT
BRANCH   1  13
ATOM      7  C   UNL     1       1.194  17.044  18.674  0.00  0.00    +0.000 C 
ATOM      8  C   UNL     1       0.917  15.597  18.840  0.00  0.00    +0.000 A 
ATOM      9  N   UNL     1      -0.256  15.039  18.629  0.00  0.00    +0.000 NA
ATOM     10  N   UNL     1      -0.212  13.672  18.788  0.00  0.00    +0.000 NA
ATOM     11  C   UNL     1       0.983  13.250  19.125  0.00  0.00    +0.000 A 
ATOM     12  N   UNL     1       1.426  11.969  19.330  0.00  0.00    +0.000 N 
ATOM     13  C   UNL     1       0.621  10.909  18.983  0.00  0.00    +0.000 C 
ATOM     14  O   UNL     1      -0.474  11.010  18.442  0.00  0.00    +0.000 OA
ATOM     15  S   UNL     1       2.146  14.485  19.318  0.00  0.00    +0.000 S 
ATOM     16  H   UNL     1       2.364  11.836  19.664  0.00  0.00    +0.000 HD
ENDBRANCH   1  13
BRANCH   3  17
ATOM     17  C   UNL     1       3.171   6.578  18.961  0.00  0.00    +0.000 C 
BRANCH  17  18
ATOM     18  C   UNL     1       2.478   5.237  19.038  0.00  0.00    +0.000 A 
ATOM     19  C   UNL     1       1.894   4.671  17.891  0.00  0.00    +0.000 A 
ATOM     20  C   UNL     1       1.157   3.489  17.972  0.00  0.00    +0.000 A 
ATOM     21  C   UNL     1       1.014   2.843  19.197  0.00  0.00    +0.000 A 
ATOM     22  C   UNL     1       1.629   3.369  20.330  0.00  0.00    +0.000 A 
ATOM     23 CL   UNL     1       1.464   2.565  21.843  0.00  0.00    +0.000 Cl
ATOM     24  C   UNL     1       2.363   4.555  20.258  0.00  0.00    +0.000 A 
ENDBRANCH  17  18
ENDBRANCH   3  17
TORSDOF 3
ENDMDL
MODEL 9
REMARK VINA RESULT:      -7.4      3.588      4.470
REMARK  Name = 
REMARK  5 active torsions:
REMARK  status: ('A' for Active; 'I' for Inactive)
REMARK    1  A    between atoms: C_1  and  C_2
REMARK    2  A    between atoms: C_7  and  C_9
REMARK    3  A    between atoms: N_11  and  C_12
REMARK    4  A    between atoms: C_12  and  C_13
REMARK    5  A    between atoms: C_21  and  C_22
REMARK                            x       y       z     vdW  Elec       q    Type
REMARK                         _______ _______ _______ _____ _____    ______ ____
ROOT
ATOM      1  C   UNL     1       3.965   5.650  17.877  0.00  0.00    +0.000 A 
ATOM      2  C   UNL     1       5.265   5.895  17.470  0.00  0.00    +0.000 A 
ATOM      3  N   UNL     1       5.658   4.790  16.760  0.00  0.00    +0.000 N 
ATOM      4  N   UNL     1       4.672   3.895  16.579  0.00  0.00    +0.000 NA
ATOM      5  C   UNL     1       3.653   4.385  17.293  0.00  0.00    +0.000 A 
ATOM      6  C   UNL     1       2.385   3.614  17.409  0.00  0.00    +0.000 C 
ENDROOT
BRANCH   1  13
ATOM      7  C   UNL     1      -0.677  11.242  19.674  0.00  0.00    +0.000 C 
ATOM      8  C   UNL     1       0.306  10.135  19.587  0.00  0.00    +0.000 A 
ATOM      9  N   UNL     1       0.621   9.347  20.591  0.00  0.00    +0.000 NA
ATOM     10  N   UNL     1       1.504   8.360  20.213  0.00  0.00    +0.000 NA
ATOM     11  C   UNL     1       1.834   8.448  18.947  0.00  0.00    +0.000 A 
ATOM     12  N   UNL     1       2.647   7.633  18.202  0.00  0.00    +0.000 N 
ATOM     13  C   UNL     1       3.074   6.437  18.730  0.00  0.00    +0.000 C 
ATOM     14  O   UNL     1       2.742   5.996  19.824  0.00  0.00    +0.000 OA
ATOM     15  S   UNL     1       1.129   9.764  18.118  0.00  0.00    +0.000 S 
ATOM     16  H   UNL     1       2.852   7.899  17.256  0.00  0.00    +0.000 HD
ENDBRANCH   1  13
BRANCH   3  17
ATOM     17  C   UNL     1       7.003   4.477  16.283  0.00  0.00    +0.000 C 
BRANCH  17  18
ATOM     18  C   UNL     1       7.038   4.459  14.771  0.00  0.00    +0.000 A 
ATOM     19  C   UNL     1       7.888   5.329  14.068  0.00  0.00    +0.000 A 
ATOM     20  C   UNL     1       7.849   5.398  12.675  0.00  0.00    +0.000 A 
ATOM     21  C   UNL     1       6.975   4.579  11.964  0.00  0.00    +0.000 A 
ATOM     22  C   UNL     1       6.163   3.679  12.648  0.00  0.00    +0.000 A 
ATOM     23 CL   UNL     1       5.091   2.658  11.771  0.00  0.00    +0.000 Cl
ATOM     24  C   UNL     1       6.192   3.609  14.043  0.00  0.00    +0.000 A 
ENDBRANCH  17  18
ENDBRANCH   3  17
TORSDOF 3
ENDMDL
