MODEL 1
REMARK VINA RESULT:      -7.5      0.000      0.000
REMARK  Name = 
REMARK  7 active torsions:
REMARK  status: ('A' for Active; 'I' for Inactive)
REMARK    1  A    between atoms: C_1  and  N_2
REMARK    2  A    between atoms: N_2  and  C_3
REMARK    3  A    between atoms: N_2  and  C_4
REMARK    4  A    between atoms: N_6  and  C_7
REMARK    5  A    between atoms: C_12  and  C_13
REMARK    6  A    between atoms: C_13  and  O_15
REMARK    7  A    between atoms: C_20  and  C_21
REMARK                            x       y       z     vdW  Elec       q    Type
REMARK                         _______ _______ _______ _____ _____    ______ ____
ROOT
ATOM      1  C   UNL     1       5.488   4.926  16.407  0.00  0.00    +0.000 A 
ATOM      2  N   UNL     1       5.015   4.232  15.321  0.00  0.00    +0.000 NA
ATOM      3  C   UNL     1       5.782   4.169  14.210  0.00  0.00    +0.000 A 
ATOM      4  C   UNL     1       7.004   4.795  14.069  0.00  0.00    +0.000 A 
ATOM      5  C   UNL     1       7.493   5.523  15.128  0.00  0.00    +0.000 A 
ATOM      6  C   UNL     1       6.752   5.562  16.326  0.00  0.00    +0.000 A 
ATOM      7  C   UNL     1       7.573   4.659  12.703  0.00  0.00    +0.000 C 
ATOM      8  C   UNL     1       6.663   3.605  12.067  0.00  0.00    +0.000 C 
ATOM      9  C   UNL     1       5.383   3.504  12.920  0.00  0.00    +0.000 C 
ENDROOT
BRANCH   1  12
ATOM     10  C   UNL     1       3.250   3.763  19.029  0.00  0.00    +0.000 C 
ATOM     11  C   UNL     1       4.731   4.000  18.616  0.00  0.00    +0.000 C 
ATOM     12  N   UNL     1       4.674   4.966  17.518  0.00  0.00    +0.000 N 
ATOM     13  C   UNL     1       3.404   5.691  17.524  0.00  0.00    +0.000 C 
ATOM     14  C   UNL     1       2.611   5.148  18.740  0.00  0.00    +0.000 C 
BRANCH  10  16
ATOM     15  C   UNL     1       1.308   2.215  18.886  0.00  0.00    +0.000 C 
ATOM     16  N   UNL     1       2.633   2.571  18.383  0.00  0.00    +0.000 NA
ATOM     17  C   UNL     1       3.522   1.411  18.422  0.00  0.00    +0.000 C 
ENDBRANCH  10  16
BRANCH  14  18
ATOM     18  C   UNL     1       2.708   6.068  19.950  0.00  0.00    +0.000 C 
ATOM     19  C   UNL     1       2.151   7.470  19.889  0.00  0.00    +0.000 C 
ATOM     20  C   UNL     1       1.469   6.433  20.736  0.00  0.00    +0.000 C 
ENDBRANCH  14  18
ENDBRANCH   1  12
BRANCH   6  21
ATOM     21  C   UNL     1       7.307   6.413  17.400  0.00  0.00    +0.000 C 
ATOM     22  O   UNL     1       7.728   6.010  18.475  0.00  0.00    +0.000 OA
BRANCH  21  23
ATOM     23  O   UNL     1       7.293   7.737  17.104  0.00  0.00    +0.000 OA
ATOM     24  H   UNL     1       8.047   8.058  16.577  0.00  0.00    +0.000 HD
ENDBRANCH  21  23
ENDBRANCH   6  21
TORSDOF 5
ENDMDL
MODEL 2
REMARK VINA RESULT:      -7.3      0.565      1.114
REMARK  Name = 
REMARK  7 active torsions:
REMARK  status: ('A' for Active; 'I' for Inactive)
REMARK    1  A    between atoms: C_1  and  N_2
REMARK    2  A    between atoms: N_2  and  C_3
REMARK    3  A    between atoms: N_2  and  C_4
REMARK    4  A    between atoms: N_6  and  C_7
REMARK    5  A    between atoms: C_12  and  C_13
REMARK    6  A    between atoms: C_13  and  O_15
REMARK    7  A    between atoms: C_20  and  C_21
REMARK                            x       y       z     vdW  Elec       q    Type
REMARK                         _______ _______ _______ _____ _____    ______ ____
ROOT
ATOM      1  C   UNL     1       5.362   4.735  16.762  0.00  0.00    +0.000 A 
ATOM      2  N   UNL     1       4.784   4.232  15.623  0.00  0.00    +0.000 NA
ATOM      3  C   UNL     1       5.539   4.131  14.506  0.00  0.00    +0.000 A 
ATOM      4  C   UNL     1       6.854   4.541  14.413  0.00  0.00    +0.000 A 
ATOM      5  C   UNL     1       7.453   5.076  15.529  0.00  0.00    +0.000 A 
ATOM      6  C   UNL     1       6.719   5.142  16.730  0.00  0.00    +0.000 A 
ATOM      7  C   UNL     1       7.403   4.425  13.038  0.00  0.00    +0.000 C 
ATOM      8  C   UNL     1       6.328   3.608  12.317  0.00  0.00    +0.000 C 
ATOM      9  C   UNL     1       5.042   3.661  13.165  0.00  0.00    +0.000 C 
ENDROOT
BRANCH   1  12
ATOM     10  C   UNL     1       3.237   3.669  19.516  0.00  0.00    +0.000 C 
ATOM     11  C   UNL     1       4.694   3.971  19.060  0.00  0.00    +0.000 C 
ATOM     12  N   UNL     1       4.557   4.822  17.877  0.00  0.00    +0.000 N 
ATOM     13  C   UNL     1       3.238   5.451  17.835  0.00  0.00    +0.000 C 
ATOM     14  C   UNL     1       2.496   4.971  19.109  0.00  0.00    +0.000 C 
BRANCH  10  16
ATOM     15  C   UNL     1       3.541   1.727  17.993  0.00  0.00    +0.000 C 
ATOM     16  N   UNL     1       2.703   2.380  18.995  0.00  0.00    +0.000 NA
ATOM     17  C   UNL     1       1.333   2.519  18.503  0.00  0.00    +0.000 C 
ENDBRANCH  10  16
BRANCH  14  18
ATOM     18  C   UNL     1       2.537   6.006  20.225  0.00  0.00    +0.000 C 
ATOM     19  C   UNL     1       2.124   7.433  19.957  0.00  0.00    +0.000 C 
ATOM     20  C   UNL     1       1.254   6.553  20.809  0.00  0.00    +0.000 C 
ENDBRANCH  14  18
ENDBRANCH   1  12
BRANCH   6  21
ATOM     21  C   UNL     1       7.405   5.785  17.870  0.00  0.00    +0.000 C 
ATOM     22  O   UNL     1       7.525   6.992  18.034  0.00  0.00    +0.000 OA
BRANCH  21  23
ATOM     23  O   UNL     1       7.938   4.901  18.751  0.00  0.00    +0.000 OA
ATOM     24  H   UNL     1       8.019   5.218  19.668  0.00  0.00    +0.000 HD
ENDBRANCH  21  23
ENDBRANCH   6  21
TORSDOF 5
ENDMDL
MODEL 3
REMARK VINA RESULT:      -7.1      2.727      6.509
REMARK  Name = 
REMARK  7 active torsions:
REMARK  status: ('A' for Active; 'I' for Inactive)
REMARK    1  A    between atoms: C_1  and  N_2
REMARK    2  A    between atoms: N_2  and  C_3
REMARK    3  A    between atoms: N_2  and  C_4
REMARK    4  A    between atoms: N_6  and  C_7
REMARK    5  A    between atoms: C_12  and  C_13
REMARK    6  A    between atoms: C_13  and  O_15
REMARK    7  A    between atoms: C_20  and  C_21
REMARK                            x       y       z     vdW  Elec       q    Type
REMARK                         _______ _______ _______ _____ _____    ______ ____
ROOT
ATOM      1  C   UNL     1       2.472   6.816  18.707  0.00  0.00    +0.000 A 
ATOM      2  N   UNL     1       2.443   8.048  18.103  0.00  0.00    +0.000 NA
ATOM      3  C   UNL     1       1.856   9.075  18.757  0.00  0.00    +0.000 A 
ATOM      4  C   UNL     1       1.238   8.966  19.986  0.00  0.00    +0.000 A 
ATOM      5  C   UNL     1       1.224   7.738  20.605  0.00  0.00    +0.000 A 
ATOM      6  C   UNL     1       1.878   6.656  19.984  0.00  0.00    +0.000 A 
ATOM      7  C   UNL     1       0.572  10.222  20.416  0.00  0.00    +0.000 C 
ATOM      8  C   UNL     1       1.101  11.243  19.405  0.00  0.00    +0.000 C 
ATOM      9  C   UNL     1       1.687  10.467  18.208  0.00  0.00    +0.000 C 
ENDROOT
BRANCH   1  12
ATOM     10  C   UNL     1       3.425   3.436  17.758  0.00  0.00    +0.000 C 
ATOM     11  C   UNL     1       2.394   4.584  17.558  0.00  0.00    +0.000 C 
ATOM     12  N   UNL     1       3.079   5.797  18.005  0.00  0.00    +0.000 N 
ATOM     13  C   UNL     1       4.528   5.609  18.008  0.00  0.00    +0.000 C 
ATOM     14  C   UNL     1       4.771   4.165  17.500  0.00  0.00    +0.000 C 
BRANCH  10  16
ATOM     15  C   UNL     1       4.453   1.974  19.488  0.00  0.00    +0.000 C 
ATOM     16  N   UNL     1       3.270   2.712  19.050  0.00  0.00    +0.000 NA
ATOM     17  C   UNL     1       2.097   1.839  19.046  0.00  0.00    +0.000 C 
ENDBRANCH  10  16
BRANCH  14  18
ATOM     18  C   UNL     1       5.149   4.128  16.025  0.00  0.00    +0.000 C 
ATOM     19  C   UNL     1       5.598   5.386  15.321  0.00  0.00    +0.000 C 
ATOM     20  C   UNL     1       6.591   4.293  15.599  0.00  0.00    +0.000 C 
ENDBRANCH  14  18
ENDBRANCH   1  12
BRANCH   6  21
ATOM     21  C   UNL     1       1.769   5.354  20.675  0.00  0.00    +0.000 C 
ATOM     22  O   UNL     1       0.769   4.650  20.704  0.00  0.00    +0.000 OA
BRANCH  21  23
ATOM     23  O   UNL     1       2.902   4.990  21.327  0.00  0.00    +0.000 OA
ATOM     24  H   UNL     1       3.044   4.031  21.421  0.00  0.00    +0.000 HD
ENDBRANCH  21  23
ENDBRANCH   6  21
TORSDOF 5
ENDMDL
MODEL 4
REMARK VINA RESULT:      -6.8      1.265      2.675
REMARK  Name = 
REMARK  7 active torsions:
REMARK  status: ('A' for Active; 'I' for Inactive)
REMARK    1  A    between atoms: C_1  and  N_2
REMARK    2  A    between atoms: N_2  and  C_3
REMARK    3  A    between atoms: N_2  and  C_4
REMARK    4  A    between atoms: N_6  and  C_7
REMARK    5  A    between atoms: C_12  and  C_13
REMARK    6  A    between atoms: C_13  and  O_15
REMARK    7  A    between atoms: C_20  and  C_21
REMARK                            x       y       z     vdW  Elec       q    Type
REMARK                         _______ _______ _______ _____ _____    ______ ____
ROOT
ATOM      1  C   UNL     1       5.202   4.335  16.522  0.00  0.00    +0.000 A 
ATOM      2  N   UNL     1       4.820   3.885  15.283  0.00  0.00    +0.000 NA
ATOM      3  C   UNL     1       5.687   4.011  14.254  0.00  0.00    +0.000 A 
ATOM      4  C   UNL     1       6.930   4.604  14.348  0.00  0.00    +0.000 A 
ATOM      5  C   UNL     1       7.331   5.091  15.569  0.00  0.00    +0.000 A 
ATOM      6  C   UNL     1       6.481   4.925  16.681  0.00  0.00    +0.000 A 
ATOM      7  C   UNL     1       7.621   4.715  13.038  0.00  0.00    +0.000 C 
ATOM      8  C   UNL     1       6.754   3.842  12.128  0.00  0.00    +0.000 C 
ATOM      9  C   UNL     1       5.398   3.626  12.828  0.00  0.00    +0.000 C 
ENDROOT
BRANCH   1  12
ATOM     10  C   UNL     1       2.683   5.233  18.988  0.00  0.00    +0.000 C 
ATOM     11  C   UNL     1       2.940   4.757  17.529  0.00  0.00    +0.000 C 
ATOM     12  N   UNL     1       4.289   4.189  17.543  0.00  0.00    +0.000 N 
ATOM     13  C   UNL     1       4.694   3.836  18.903  0.00  0.00    +0.000 C 
ATOM     14  C   UNL     1       3.490   4.194  19.812  0.00  0.00    +0.000 C 
BRANCH  10  16
ATOM     15  C   UNL     1       2.055   7.372  20.093  0.00  0.00    +0.000 C 
ATOM     16  N   UNL     1       2.987   6.674  19.209  0.00  0.00    +0.000 NA
ATOM     17  C   UNL     1       3.131   7.399  17.947  0.00  0.00    +0.000 C 
ENDBRANCH  10  16
BRANCH  14  18
ATOM     18  C   UNL     1       2.643   2.976  20.153  0.00  0.00    +0.000 C 
ATOM     19  C   UNL     1       2.483   2.536  21.589  0.00  0.00    +0.000 C 
ATOM     20  C   UNL     1       1.316   3.141  20.862  0.00  0.00    +0.000 C 
ENDBRANCH  14  18
ENDBRANCH   1  12
BRANCH   6  21
ATOM     21  C   UNL     1       6.950   5.528  17.947  0.00  0.00    +0.000 C 
ATOM     22  O   UNL     1       6.607   6.620  18.380  0.00  0.00    +0.000 OA
BRANCH  21  23
ATOM     23  O   UNL     1       7.848   4.759  18.613  0.00  0.00    +0.000 OA
ATOM     24  H   UNL     1       7.959   4.967  19.558  0.00  0.00    +0.000 HD
ENDBRANCH  21  23
ENDBRANCH   6  21
TORSDOF 5
ENDMDL
MODEL 5
REMARK VINA RESULT:      -6.7      2.324      6.769
REMARK  Name = 
REMARK  7 active torsions:
REMARK  status: ('A' for Active; 'I' for Inactive)
REMARK    1  A    between atoms: C_1  and  N_2
REMARK    2  A    between atoms: N_2  and  C_3
REMARK    3  A    between atoms: N_2  and  C_4
REMARK    4  A    between atoms: N_6  and  C_7
REMARK    5  A    between atoms: C_12  and  C_13
REMARK    6  A    between atoms: C_13  and  O_15
REMARK    7  A    between atoms: C_20  and  C_21
REMARK                            x       y       z     vdW  Elec       q    Type
REMARK                         _______ _______ _______ _____ _____    ______ ____
ROOT
ATOM      1  C   UNL     1       3.725   5.332  18.657  0.00  0.00    +0.000 A 
ATOM      2  N   UNL     1       3.369   6.658  18.626  0.00  0.00    +0.000 NA
ATOM      3  C   UNL     1       2.443   7.099  19.506  0.00  0.00    +0.000 A 
ATOM      4  C   UNL     1       1.787   6.297  20.417  0.00  0.00    +0.000 A 
ATOM      5  C   UNL     1       2.099   4.958  20.454  0.00  0.00    +0.000 A 
ATOM      6  C   UNL     1       3.103   4.470  19.595  0.00  0.00    +0.000 A 
ATOM      7  C   UNL     1       0.733   7.019  21.175  0.00  0.00    +0.000 C 
ATOM      8  C   UNL     1       1.007   8.481  20.815  0.00  0.00    +0.000 C 
ATOM      9  C   UNL     1       1.901   8.503  19.559  0.00  0.00    +0.000 C 
ENDROOT
BRANCH   1  12
ATOM     10  C   UNL     1       6.996   4.774  17.165  0.00  0.00    +0.000 C 
ATOM     11  C   UNL     1       5.889   4.190  18.091  0.00  0.00    +0.000 C 
ATOM     12  N   UNL     1       4.672   4.924  17.743  0.00  0.00    +0.000 N 
ATOM     13  C   UNL     1       4.789   5.537  16.422  0.00  0.00    +0.000 C 
ATOM     14  C   UNL     1       6.189   5.136  15.889  0.00  0.00    +0.000 C 
BRANCH  10  16
ATOM     15  C   UNL     1       7.802   5.839  19.264  0.00  0.00    +0.000 C 
ATOM     16  N   UNL     1       7.799   5.854  17.803  0.00  0.00    +0.000 NA
ATOM     17  C   UNL     1       7.420   7.177  17.308  0.00  0.00    +0.000 C 
ENDBRANCH  10  16
BRANCH  14  18
ATOM     18  C   UNL     1       6.124   3.962  14.922  0.00  0.00    +0.000 C 
ATOM     19  C   UNL     1       5.202   4.008  13.727  0.00  0.00    +0.000 C 
ATOM     20  C   UNL     1       6.687   4.088  13.524  0.00  0.00    +0.000 C 
ENDBRANCH  14  18
ENDBRANCH   1  12
BRANCH   6  21
ATOM     21  C   UNL     1       3.342   3.012  19.645  0.00  0.00    +0.000 C 
ATOM     22  O   UNL     1       4.050   2.439  20.462  0.00  0.00    +0.000 OA
BRANCH  21  23
ATOM     23  O   UNL     1       2.710   2.325  18.660  0.00  0.00    +0.000 OA
ATOM     24  H   UNL     1       2.553   1.381  18.841  0.00  0.00    +0.000 HD
ENDBRANCH  21  23
ENDBRANCH   6  21
TORSDOF 5
ENDMDL
MODEL 6
REMARK VINA RESULT:      -6.2      1.073      1.338
REMARK  Name = 
REMARK  7 active torsions:
REMARK  status: ('A' for Active; 'I' for Inactive)
REMARK    1  A    between atoms: C_1  and  N_2
REMARK    2  A    between atoms: N_2  and  C_3
REMARK    3  A    between atoms: N_2  and  C_4
REMARK    4  A    between atoms: N_6  and  C_7
REMARK    5  A    between atoms: C_12  and  C_13
REMARK    6  A    between atoms: C_13  and  O_15
REMARK    7  A    between atoms: C_20  and  C_21
REMARK                            x       y       z     vdW  Elec       q    Type
REMARK                         _______ _______ _______ _____ _____    ______ ____
ROOT
ATOM      1  C   UNL     1       5.555   4.717  16.328  0.00  0.00    +0.000 A 
ATOM      2  N   UNL     1       5.163   3.998  15.227  0.00  0.00    +0.000 NA
ATOM      3  C   UNL     1       5.919   4.066  14.108  0.00  0.00    +0.000 A 
ATOM      4  C   UNL     1       7.048   4.849  13.976  0.00  0.00    +0.000 A 
ATOM      5  C   UNL     1       7.450   5.604  15.052  0.00  0.00    +0.000 A 
ATOM      6  C   UNL     1       6.724   5.514  16.256  0.00  0.00    +0.000 A 
ATOM      7  C   UNL     1       7.613   4.826  12.602  0.00  0.00    +0.000 C 
ATOM      8  C   UNL     1       6.840   3.681  11.943  0.00  0.00    +0.000 C 
ATOM      9  C   UNL     1       5.594   3.391  12.802  0.00  0.00    +0.000 C 
ENDROOT
BRANCH   1  12
ATOM     10  C   UNL     1       4.261   3.459  19.487  0.00  0.00    +0.000 C 
ATOM     11  C   UNL     1       5.262   4.437  18.807  0.00  0.00    +0.000 C 
ATOM     12  N   UNL     1       4.756   4.620  17.447  0.00  0.00    +0.000 N 
ATOM     13  C   UNL     1       3.342   4.257  17.361  0.00  0.00    +0.000 C 
ATOM     14  C   UNL     1       2.924   3.832  18.792  0.00  0.00    +0.000 C 
BRANCH  10  16
ATOM     15  C   UNL     1       3.801   1.150  18.684  0.00  0.00    +0.000 C 
ATOM     16  N   UNL     1       4.690   2.034  19.435  0.00  0.00    +0.000 NA
ATOM     17  C   UNL     1       4.940   1.492  20.770  0.00  0.00    +0.000 C 
ENDBRANCH  10  16
BRANCH  14  18
ATOM     18  C   UNL     1       2.203   4.947  19.537  0.00  0.00    +0.000 C 
ATOM     19  C   UNL     1       0.923   4.662  20.285  0.00  0.00    +0.000 C 
ATOM     20  C   UNL     1       2.179   4.967  21.050  0.00  0.00    +0.000 C 
ENDBRANCH  14  18
ENDBRANCH   1  12
BRANCH   6  21
ATOM     21  C   UNL     1       7.177   6.400  17.349  0.00  0.00    +0.000 C 
ATOM     22  O   UNL     1       7.852   6.051  18.308  0.00  0.00    +0.000 OA
BRANCH  21  23
ATOM     23  O   UNL     1       6.749   7.681  17.221  0.00  0.00    +0.000 OA
ATOM     24  H   UNL     1       6.430   8.101  18.040  0.00  0.00    +0.000 HD
ENDBRANCH  21  23
ENDBRANCH   6  21
TORSDOF 5
ENDMDL
MODEL 7
REMARK VINA RESULT:      -6.2      2.602      5.731
REMARK  Name = 
REMARK  7 active torsions:
REMARK  status: ('A' for Active; 'I' for Inactive)
REMARK    1  A    between atoms: C_1  and  N_2
REMARK    2  A    between atoms: N_2  and  C_3
REMARK    3  A    between atoms: N_2  and  C_4
REMARK    4  A    between atoms: N_6  and  C_7
REMARK    5  A    between atoms: C_12  and  C_13
REMARK    6  A    between atoms: C_13  and  O_15
REMARK    7  A    between atoms: C_20  and  C_21
REMARK                            x       y       z     vdW  Elec       q    Type
REMARK                         _______ _______ _______ _____ _____    ______ ____
ROOT
ATOM      1  C   UNL     1       7.293   7.300  17.406  0.00  0.00    +0.000 A 
ATOM      2  N   UNL     1       7.393   8.610  17.009  0.00  0.00    +0.000 NA
ATOM      3  C   UNL     1       8.133   9.458  17.758  0.00  0.00    +0.000 A 
ATOM      4  C   UNL     1       8.771   9.109  18.931  0.00  0.00    +0.000 A 
ATOM      5  C   UNL     1       8.666   7.811  19.372  0.00  0.00    +0.000 A 
ATOM      6  C   UNL     1       7.954   6.882  18.588  0.00  0.00    +0.000 A 
ATOM      7  C   UNL     1       9.411  10.265  19.611  0.00  0.00    +0.000 C 
ATOM      8  C   UNL     1       9.333  11.362  18.546  0.00  0.00    +0.000 C 
ATOM      9  C   UNL     1       8.291  10.932  17.495  0.00  0.00    +0.000 C 
ENDROOT
BRANCH   1  12
ATOM     10  C   UNL     1       4.650   4.986  16.461  0.00  0.00    +0.000 C 
ATOM     11  C   UNL     1       5.066   6.481  16.584  0.00  0.00    +0.000 C 
ATOM     12  N   UNL     1       6.529   6.470  16.615  0.00  0.00    +0.000 N 
ATOM     13  C   UNL     1       7.055   5.224  16.062  0.00  0.00    +0.000 C 
ATOM     14  C   UNL     1       5.819   4.395  15.629  0.00  0.00    +0.000 C 
BRANCH  10  16
ATOM     15  C   UNL     1       3.980   2.929  17.689  0.00  0.00    +0.000 C 
ATOM     16  N   UNL     1       4.339   4.344  17.768  0.00  0.00    +0.000 NA
ATOM     17  C   UNL     1       3.323   5.087  18.511  0.00  0.00    +0.000 C 
ENDBRANCH  10  16
BRANCH  14  18
ATOM     18  C   UNL     1       5.547   4.501  14.135  0.00  0.00    +0.000 C 
ATOM     19  C   UNL     1       6.692   4.538  13.152  0.00  0.00    +0.000 C 
ATOM     20  C   UNL     1       5.810   3.324  13.222  0.00  0.00    +0.000 C 
ENDBRANCH  14  18
ENDBRANCH   1  12
BRANCH   6  21
ATOM     21  C   UNL     1       7.830   5.522  19.154  0.00  0.00    +0.000 C 
ATOM     22  O   UNL     1       8.672   4.639  19.063  0.00  0.00    +0.000 OA
BRANCH  21  23
ATOM     23  O   UNL     1       6.652   5.304  19.790  0.00  0.00    +0.000 OA
ATOM     24  H   UNL     1       5.880   5.765  19.414  0.00  0.00    +0.000 HD
ENDBRANCH  21  23
ENDBRANCH   6  21
TORSDOF 5
ENDMDL
MODEL 8
REMARK VINA RESULT:      -6.2      2.662      7.087
REMARK  Name = 
REMARK  7 active torsions:
REMARK  status: ('A' for Active; 'I' for Inactive)
REMARK    1  A    between atoms: C_1  and  N_2
REMARK    2  A    between atoms: N_2  and  C_3
REMARK    3  A    between atoms: N_2  and  C_4
REMARK    4  A    between atoms: N_6  and  C_7
REMARK    5  A    between atoms: C_12  and  C_13
REMARK    6  A    between atoms: C_13  and  O_15
REMARK    7  A    between atoms: C_20  and  C_21
REMARK                            x       y       z     vdW  Elec       q    Type
REMARK                         _______ _______ _______ _____ _____    ______ ____
ROOT
ATOM      1  C   UNL     1       2.996   6.036  19.204  0.00  0.00    +0.000 A 
ATOM      2  N   UNL     1       2.766   7.386  19.113  0.00  0.00    +0.000 NA
ATOM      3  C   UNL     1       1.819   7.935  19.906  0.00  0.00    +0.000 A 
ATOM      4  C   UNL     1       1.026   7.223  20.782  0.00  0.00    +0.000 A 
ATOM      5  C   UNL     1       1.210   5.864  20.875  0.00  0.00    +0.000 A 
ATOM      6  C   UNL     1       2.229   5.262  20.110  0.00  0.00    +0.000 A 
ATOM      7  C   UNL     1      -0.013   8.060  21.437  0.00  0.00    +0.000 C 
ATOM      8  C   UNL     1       0.420   9.480  21.064  0.00  0.00    +0.000 C 
ATOM      9  C   UNL     1       1.406   9.382  19.883  0.00  0.00    +0.000 C 
ENDROOT
BRANCH   1  12
ATOM     10  C   UNL     1       6.310   5.220  17.944  0.00  0.00    +0.000 C 
ATOM     11  C   UNL     1       5.129   4.759  18.847  0.00  0.00    +0.000 C 
ATOM     12  N   UNL     1       3.969   5.517  18.378  0.00  0.00    +0.000 N 
ATOM     13  C   UNL     1       4.186   6.021  17.023  0.00  0.00    +0.000 C 
ATOM     14  C   UNL     1       5.590   5.518  16.601  0.00  0.00    +0.000 C 
BRANCH  10  16
ATOM     15  C   UNL     1       7.686   7.260  17.583  0.00  0.00    +0.000 C 
ATOM     16  N   UNL     1       7.130   6.309  18.543  0.00  0.00    +0.000 NA
ATOM     17  C   UNL     1       8.184   5.783  19.409  0.00  0.00    +0.000 C 
ENDBRANCH  10  16
BRANCH  14  18
ATOM     18  C   UNL     1       5.519   4.276  15.722  0.00  0.00    +0.000 C 
ATOM     19  C   UNL     1       5.146   4.395  14.264  0.00  0.00    +0.000 C 
ATOM     20  C   UNL     1       6.555   4.040  14.645  0.00  0.00    +0.000 C 
ENDBRANCH  14  18
ENDBRANCH   1  12
BRANCH   6  21
ATOM     21  C   UNL     1       2.329   3.791  20.214  0.00  0.00    +0.000 C 
ATOM     22  O   UNL     1       2.873   3.181  21.125  0.00  0.00    +0.000 OA
BRANCH  21  23
ATOM     23  O   UNL     1       1.770   3.134  19.166  0.00  0.00    +0.000 OA
ATOM     24  H   UNL     1       2.398   2.713  18.551  0.00  0.00    +0.000 HD
ENDBRANCH  21  23
ENDBRANCH   6  21
TORSDOF 5
ENDMDL
MODEL 9
REMARK VINA RESULT:      -6.0      5.821      8.574
REMARK  Name = 
REMARK  7 active torsions:
REMARK  status: ('A' for Active; 'I' for Inactive)
REMARK    1  A    between atoms: C_1  and  N_2
REMARK    2  A    between atoms: N_2  and  C_3
REMARK    3  A    between atoms: N_2  and  C_4
REMARK    4  A    between atoms: N_6  and  C_7
REMARK    5  A    between atoms: C_12  and  C_13
REMARK    6  A    between atoms: C_13  and  O_15
REMARK    7  A    between atoms: C_20  and  C_21
REMARK                            x       y       z     vdW  Elec       q    Type
REMARK                         _______ _______ _______ _____ _____    ______ ____
ROOT
ATOM      1  C   UNL     1       0.834   9.648  19.724  0.00  0.00    +0.000 A 
ATOM      2  N   UNL     1       1.541   9.202  18.635  0.00  0.00    +0.000 NA
ATOM      3  C   UNL     1       2.188   8.019  18.725  0.00  0.00    +0.000 A 
ATOM      4  C   UNL     1       2.226   7.234  19.860  0.00  0.00    +0.000 A 
ATOM      5  C   UNL     1       1.552   7.667  20.977  0.00  0.00    +0.000 A 
ATOM      6  C   UNL     1       0.815   8.866  20.906  0.00  0.00    +0.000 A 
ATOM      7  C   UNL     1       3.108   6.048  19.717  0.00  0.00    +0.000 C 
ATOM      8  C   UNL     1       3.408   6.034  18.216  0.00  0.00    +0.000 C 
ATOM      9  C   UNL     1       3.054   7.423  17.648  0.00  0.00    +0.000 C 
ENDROOT
BRANCH   1  12
ATOM     10  C   UNL     1      -1.669  12.075  18.684  0.00  0.00    +0.000 C 
ATOM     11  C   UNL     1      -1.247  11.053  19.780  0.00  0.00    +0.000 C 
ATOM     12  N   UNL     1       0.190  10.859  19.590  0.00  0.00    +0.000 N 
ATOM     13  C   UNL     1       0.773  11.968  18.838  0.00  0.00    +0.000 C 
ATOM     14  C   UNL     1      -0.393  12.948  18.551  0.00  0.00    +0.000 C 
BRANCH  10  16
ATOM     15  C   UNL     1      -3.645  11.566  17.261  0.00  0.00    +0.000 C 
ATOM     16  N   UNL     1      -2.201  11.438  17.447  0.00  0.00    +0.000 NA
ATOM     17  C   UNL     1      -1.795  10.038  17.338  0.00  0.00    +0.000 C 
ENDBRANCH  10  16
BRANCH  14  18
ATOM     18  C   UNL     1      -0.417  14.118  19.526  0.00  0.00    +0.000 C 
ATOM     19  C   UNL     1       0.827  14.942  19.759  0.00  0.00    +0.000 C 
ATOM     20  C   UNL     1      -0.335  15.540  19.018  0.00  0.00    +0.000 C 
ENDBRANCH  14  18
ENDBRANCH   1  12
BRANCH   6  21
ATOM     21  C   UNL     1       0.167   9.300  22.161  0.00  0.00    +0.000 C 
ATOM     22  O   UNL     1       0.512  10.258  22.840  0.00  0.00    +0.000 OA
BRANCH  21  23
ATOM     23  O   UNL     1      -0.869   8.510  22.538  0.00  0.00    +0.000 OA
ATOM     24  H   UNL     1      -0.639   7.587  22.749  0.00  0.00    +0.000 HD
ENDBRANCH  21  23
ENDBRANCH   6  21
TORSDOF 5
ENDMDL
