MODEL 1
REMARK VINA RESULT:      -8.3      0.000      0.000
REMARK  Name = 
REMARK  6 active torsions:
REMARK  status: ('A' for Active; 'I' for Inactive)
REMARK    1  A    between atoms: C_1  and  O_2
REMARK    2  A    between atoms: O_2  and  C_3
REMARK    3  A    between atoms: C_8  and  C_9
REMARK    4  A    between atoms: C_9  and  C_11
REMARK    5  A    between atoms: C_16  and  C_18
REMARK    6  A    between atoms: N_20  and  C_21
REMARK                            x       y       z     vdW  Elec       q    Type
REMARK                         _______ _______ _______ _____ _____    ______ ____
ROOT
ATOM      1  C   UNL     1       0.413  10.008  19.786  0.00  0.00    +0.000 C 
ATOM      2  C   UNL     1      -0.862  10.228  18.967  0.00  0.00    +0.000 C 
ATOM      3  C   UNL     1      -1.018  11.643  18.406  0.00  0.00    +0.000 C 
ATOM      4  C   UNL     1      -0.616  12.752  19.373  0.00  0.00    +0.000 C 
ATOM      5  N   UNL     1       0.648  12.467  20.044  0.00  0.00    +0.000 N 
ATOM      6  C   UNL     1       1.699  13.359  20.263  0.00  0.00    +0.000 C 
ATOM      7  O   UNL     1       2.657  13.116  20.996  0.00  0.00    +0.000 OA
ATOM      8  C   UNL     1       0.711  11.181  20.717  0.00  0.00    +0.000 C 
ENDROOT
BRANCH   6   9
ATOM      9  C   UNL     1       1.744  14.699  19.545  0.00  0.00    +0.000 C 
ATOM     10  N   UNL     1       1.072  15.704  20.008  0.00  0.00    +0.000 NA
ATOM     11  N   UNL     1       1.079  16.888  19.328  0.00  0.00    +0.000 N 
ATOM     12  C   UNL     1       0.157  17.900  19.811  0.00  0.00    +0.000 C 
ATOM     13  C   UNL     1       1.916  17.202  18.272  0.00  0.00    +0.000 C 
ATOM     14  O   UNL     1       1.942  18.318  17.747  0.00  0.00    +0.000 OA
ATOM     15  C   UNL     1       2.849  16.128  17.785  0.00  0.00    +0.000 C 
ATOM     16  C   UNL     1       2.602  14.738  18.316  0.00  0.00    +0.000 C 
ENDBRANCH   6   9
BRANCH   1  17
ATOM     17  C   UNL     1       1.615   9.660  18.885  0.00  0.00    +0.000 C 
ATOM     18  O   UNL     1       2.173  10.507  18.191  0.00  0.00    +0.000 OA
BRANCH  17  24
ATOM     19  C   UNL     1       3.284   3.381  19.827  0.00  0.00    +0.000 A 
ATOM     20  C   UNL     1       2.451   3.794  20.865  0.00  0.00    +0.000 A 
ATOM     21  C   UNL     1       1.910   5.087  20.863  0.00  0.00    +0.000 A 
ATOM     22  C   UNL     1       2.209   6.003  19.833  0.00  0.00    +0.000 A 
ATOM     23  C   UNL     1       1.729   7.331  19.830  0.00  0.00    +0.000 A 
ATOM     24  C   UNL     1       2.095   8.234  18.813  0.00  0.00    +0.000 A 
ATOM     25  C   UNL     1       2.918   7.778  17.777  0.00  0.00    +0.000 A 
ATOM     26  C   UNL     1       3.363   6.457  17.750  0.00  0.00    +0.000 A 
ATOM     27  C   UNL     1       3.034   5.567  18.778  0.00  0.00    +0.000 A 
ATOM     28  C   UNL     1       3.546   4.262  18.775  0.00  0.00    +0.000 A 
BRANCH  19  30
ATOM     29  C   UNL     1       3.723   1.467  18.490  0.00  0.00    +0.000 C 
ATOM     30  O   UNL     1       3.903   2.168  19.714  0.00  0.00    +0.000 OA
ENDBRANCH  19  30
ENDBRANCH  17  24
ENDBRANCH   1  17
TORSDOF 4
ENDMDL
MODEL 2
REMARK VINA RESULT:      -8.2      4.119      7.141
REMARK  Name = 
REMARK  6 active torsions:
REMARK  status: ('A' for Active; 'I' for Inactive)
REMARK    1  A    between atoms: C_1  and  O_2
REMARK    2  A    between atoms: O_2  and  C_3
REMARK    3  A    between atoms: C_8  and  C_9
REMARK    4  A    between atoms: C_9  and  C_11
REMARK    5  A    between atoms: C_16  and  C_18
REMARK    6  A    between atoms: N_20  and  C_21
REMARK                            x       y       z     vdW  Elec       q    Type
REMARK                         _______ _______ _______ _____ _____    ______ ____
ROOT
ATOM      1  C   UNL     1       2.960   2.425  19.639  0.00  0.00    +0.000 C 
ATOM      2  C   UNL     1       1.466   2.090  19.583  0.00  0.00    +0.000 C 
ATOM      3  C   UNL     1       0.552   3.305  19.415  0.00  0.00    +0.000 C 
ATOM      4  C   UNL     1       0.960   4.520  20.244  0.00  0.00    +0.000 C 
ATOM      5  N   UNL     1       2.392   4.785  20.167  0.00  0.00    +0.000 N 
ATOM      6  C   UNL     1       3.007   6.027  20.003  0.00  0.00    +0.000 C 
ATOM      7  O   UNL     1       4.216   6.211  20.133  0.00  0.00    +0.000 OA
ATOM      8  C   UNL     1       3.245   3.655  20.497  0.00  0.00    +0.000 C 
ENDROOT
BRANCH   6   9
ATOM      9  C   UNL     1       2.197   7.246  19.591  0.00  0.00    +0.000 C 
ATOM     10  N   UNL     1       1.561   7.933  20.485  0.00  0.00    +0.000 NA
ATOM     11  N   UNL     1       0.796   8.996  20.098  0.00  0.00    +0.000 N 
ATOM     12  C   UNL     1      -0.026   9.594  21.135  0.00  0.00    +0.000 C 
ATOM     13  C   UNL     1       0.788   9.562  18.836  0.00  0.00    +0.000 C 
ATOM     14  O   UNL     1       0.142  10.576  18.561  0.00  0.00    +0.000 OA
ATOM     15  C   UNL     1       1.639   8.912  17.781  0.00  0.00    +0.000 C 
ATOM     16  C   UNL     1       2.212   7.560  18.125  0.00  0.00    +0.000 C 
ENDBRANCH   6   9
BRANCH   1  17
ATOM     17  C   UNL     1       3.570   2.545  18.228  0.00  0.00    +0.000 C 
ATOM     18  O   UNL     1       3.448   1.655  17.390  0.00  0.00    +0.000 OA
BRANCH  17  24
ATOM     19  C   UNL     1       7.761   7.579  17.800  0.00  0.00    +0.000 A 
ATOM     20  C   UNL     1       8.222   6.680  18.760  0.00  0.00    +0.000 A 
ATOM     21  C   UNL     1       7.528   5.486  18.999  0.00  0.00    +0.000 A 
ATOM     22  C   UNL     1       6.343   5.177  18.298  0.00  0.00    +0.000 A 
ATOM     23  C   UNL     1       5.587   4.013  18.555  0.00  0.00    +0.000 A 
ATOM     24  C   UNL     1       4.379   3.765  17.875  0.00  0.00    +0.000 A 
ATOM     25  C   UNL     1       3.957   4.682  16.904  0.00  0.00    +0.000 A 
ATOM     26  C   UNL     1       4.719   5.813  16.614  0.00  0.00    +0.000 A 
ATOM     27  C   UNL     1       5.899   6.083  17.316  0.00  0.00    +0.000 A 
ATOM     28  C   UNL     1       6.618   7.260  17.064  0.00  0.00    +0.000 A 
BRANCH  19  30
ATOM     29  C   UNL     1       8.660   9.638  18.571  0.00  0.00    +0.000 C 
ATOM     30  O   UNL     1       8.316   8.787  17.485  0.00  0.00    +0.000 OA
ENDBRANCH  19  30
ENDBRANCH  17  24
ENDBRANCH   1  17
TORSDOF 4
ENDMDL
MODEL 3
REMARK VINA RESULT:      -8.2      0.697      1.273
REMARK  Name = 
REMARK  6 active torsions:
REMARK  status: ('A' for Active; 'I' for Inactive)
REMARK    1  A    between atoms: C_1  and  O_2
REMARK    2  A    between atoms: O_2  and  C_3
REMARK    3  A    between atoms: C_8  and  C_9
REMARK    4  A    between atoms: C_9  and  C_11
REMARK    5  A    between atoms: C_16  and  C_18
REMARK    6  A    between atoms: N_20  and  C_21
REMARK                            x       y       z     vdW  Elec       q    Type
REMARK                         _______ _______ _______ _____ _____    ______ ____
ROOT
ATOM      1  C   UNL     1       0.126  10.085  19.542  0.00  0.00    +0.000 C 
ATOM      2  C   UNL     1      -1.052  10.390  18.611  0.00  0.00    +0.000 C 
ATOM      3  C   UNL     1      -1.161  11.856  18.187  0.00  0.00    +0.000 C 
ATOM      4  C   UNL     1      -0.884  12.857  19.305  0.00  0.00    +0.000 C 
ATOM      5  N   UNL     1       0.299  12.504  20.082  0.00  0.00    +0.000 N 
ATOM      6  C   UNL     1       1.307  13.368  20.511  0.00  0.00    +0.000 C 
ATOM      7  O   UNL     1       2.179  13.049  21.319  0.00  0.00    +0.000 OA
ATOM      8  C   UNL     1       0.301  11.154  20.619  0.00  0.00    +0.000 C 
ENDROOT
BRANCH   6   9
ATOM      9  C   UNL     1       1.416  14.776  19.947  0.00  0.00    +0.000 C 
ATOM     10  N   UNL     1       2.119  14.993  18.882  0.00  0.00    +0.000 NA
ATOM     11  N   UNL     1       2.251  16.269  18.413  0.00  0.00    +0.000 N 
ATOM     12  C   UNL     1       3.202  16.448  17.330  0.00  0.00    +0.000 C 
ATOM     13  C   UNL     1       1.526  17.363  18.847  0.00  0.00    +0.000 C 
ATOM     14  O   UNL     1       1.622  18.479  18.330  0.00  0.00    +0.000 OA
ATOM     15  C   UNL     1       0.560  17.148  19.979  0.00  0.00    +0.000 C 
ATOM     16  C   UNL     1       0.663  15.829  20.703  0.00  0.00    +0.000 C 
ENDBRANCH   6   9
BRANCH   1  17
ATOM     17  C   UNL     1       1.426   9.835  18.752  0.00  0.00    +0.000 C 
ATOM     18  O   UNL     1       1.994  10.733  18.136  0.00  0.00    +0.000 OA
BRANCH  17  24
ATOM     19  C   UNL     1       3.458   3.669  19.732  0.00  0.00    +0.000 A 
ATOM     20  C   UNL     1       2.570   4.026  20.746  0.00  0.00    +0.000 A 
ATOM     21  C   UNL     1       1.950   5.282  20.730  0.00  0.00    +0.000 A 
ATOM     22  C   UNL     1       2.220   6.219  19.711  0.00  0.00    +0.000 A 
ATOM     23  C   UNL     1       1.659   7.514  19.696  0.00  0.00    +0.000 A 
ATOM     24  C   UNL     1       1.997   8.442  18.692  0.00  0.00    +0.000 A 
ATOM     25  C   UNL     1       2.877   8.043  17.680  0.00  0.00    +0.000 A 
ATOM     26  C   UNL     1       3.404   6.752  17.663  0.00  0.00    +0.000 A 
ATOM     27  C   UNL     1       3.102   5.840  18.681  0.00  0.00    +0.000 A 
ATOM     28  C   UNL     1       3.695   4.569  18.690  0.00  0.00    +0.000 A 
BRANCH  19  30
ATOM     29  C   UNL     1       3.717   1.570  18.652  0.00  0.00    +0.000 C 
ATOM     30  O   UNL     1       4.155   2.499  19.636  0.00  0.00    +0.000 OA
ENDBRANCH  19  30
ENDBRANCH  17  24
ENDBRANCH   1  17
TORSDOF 4
ENDMDL
MODEL 4
REMARK VINA RESULT:      -8.2      0.936      1.944
REMARK  Name = 
REMARK  6 active torsions:
REMARK  status: ('A' for Active; 'I' for Inactive)
REMARK    1  A    between atoms: C_1  and  O_2
REMARK    2  A    between atoms: O_2  and  C_3
REMARK    3  A    between atoms: C_8  and  C_9
REMARK    4  A    between atoms: C_9  and  C_11
REMARK    5  A    between atoms: C_16  and  C_18
REMARK    6  A    between atoms: N_20  and  C_21
REMARK                            x       y       z     vdW  Elec       q    Type
REMARK                         _______ _______ _______ _____ _____    ______ ____
ROOT
ATOM      1  C   UNL     1      -0.236  10.205  19.724  0.00  0.00    +0.000 C 
ATOM      2  C   UNL     1      -1.325  10.477  18.683  0.00  0.00    +0.000 C 
ATOM      3  C   UNL     1      -1.340  11.908  18.142  0.00  0.00    +0.000 C 
ATOM      4  C   UNL     1      -1.106  12.984  19.198  0.00  0.00    +0.000 C 
ATOM      5  N   UNL     1      -0.001  12.650  20.090  0.00  0.00    +0.000 N 
ATOM      6  C   UNL     1       1.008  13.509  20.531  0.00  0.00    +0.000 C 
ATOM      7  O   UNL     1       1.801  13.223  21.426  0.00  0.00    +0.000 OA
ATOM      8  C   UNL     1      -0.097  11.348  20.727  0.00  0.00    +0.000 C 
ENDROOT
BRANCH   6   9
ATOM      9  C   UNL     1       1.219  14.862  19.871  0.00  0.00    +0.000 C 
ATOM     10  N   UNL     1       2.025  14.973  18.864  0.00  0.00    +0.000 NA
ATOM     11  N   UNL     1       2.246  16.202  18.312  0.00  0.00    +0.000 N 
ATOM     12  C   UNL     1       3.298  16.266  17.314  0.00  0.00    +0.000 C 
ATOM     13  C   UNL     1       1.522  17.348  18.589  0.00  0.00    +0.000 C 
ATOM     14  O   UNL     1       1.706  18.415  17.997  0.00  0.00    +0.000 OA
ATOM     15  C   UNL     1       0.449  17.252  19.636  0.00  0.00    +0.000 C 
ATOM     16  C   UNL     1       0.437  15.994  20.468  0.00  0.00    +0.000 C 
ENDBRANCH   6   9
BRANCH   1  17
ATOM     17  C   UNL     1       1.109   9.845  19.061  0.00  0.00    +0.000 C 
ATOM     18  O   UNL     1       1.698  10.629  18.320  0.00  0.00    +0.000 OA
BRANCH  17  24
ATOM     19  C   UNL     1       3.972   3.946  18.740  0.00  0.00    +0.000 A 
ATOM     20  C   UNL     1       4.258   4.658  17.576  0.00  0.00    +0.000 A 
ATOM     21  C   UNL     1       3.804   5.976  17.426  0.00  0.00    +0.000 A 
ATOM     22  C   UNL     1       3.035   6.603  18.428  0.00  0.00    +0.000 A 
ATOM     23  C   UNL     1       2.512   7.906  18.285  0.00  0.00    +0.000 A 
ATOM     24  C   UNL     1       1.700   8.478  19.284  0.00  0.00    +0.000 A 
ATOM     25  C   UNL     1       1.450   7.741  20.447  0.00  0.00    +0.000 A 
ATOM     26  C   UNL     1       1.997   6.469  20.615  0.00  0.00    +0.000 A 
ATOM     27  C   UNL     1       2.771   5.881  19.608  0.00  0.00    +0.000 A 
ATOM     28  C   UNL     1       3.255   4.574  19.761  0.00  0.00    +0.000 A 
BRANCH  19  30
ATOM     29  C   UNL     1       3.460   1.639  18.508  0.00  0.00    +0.000 C 
ATOM     30  O   UNL     1       4.322   2.653  19.009  0.00  0.00    +0.000 OA
ENDBRANCH  19  30
ENDBRANCH  17  24
ENDBRANCH   1  17
TORSDOF 4
ENDMDL
MODEL 5
REMARK VINA RESULT:      -8.1      1.217      1.407
REMARK  Name = 
REMARK  6 active torsions:
REMARK  status: ('A' for Active; 'I' for Inactive)
REMARK    1  A    between atoms: C_1  and  O_2
REMARK    2  A    between atoms: O_2  and  C_3
REMARK    3  A    between atoms: C_8  and  C_9
REMARK    4  A    between atoms: C_9  and  C_11
REMARK    5  A    between atoms: C_16  and  C_18
REMARK    6  A    between atoms: N_20  and  C_21
REMARK                            x       y       z     vdW  Elec       q    Type
REMARK                         _______ _______ _______ _____ _____    ______ ____
ROOT
ATOM      1  C   UNL     1      -0.540  10.324  20.784  0.00  0.00    +0.000 C 
ATOM      2  C   UNL     1      -1.017  10.066  19.352  0.00  0.00    +0.000 C 
ATOM      3  C   UNL     1      -0.600  11.139  18.344  0.00  0.00    +0.000 C 
ATOM      4  C   UNL     1      -0.709  12.569  18.863  0.00  0.00    +0.000 C 
ATOM      5  N   UNL     1      -0.161  12.710  20.208  0.00  0.00    +0.000 N 
ATOM      6  C   UNL     1       0.659  13.739  20.675  0.00  0.00    +0.000 C 
ATOM      7  O   UNL     1       0.935  13.904  21.862  0.00  0.00    +0.000 OA
ATOM      8  C   UNL     1      -0.701  11.787  21.192  0.00  0.00    +0.000 C 
ENDROOT
BRANCH   6   9
ATOM      9  C   UNL     1       1.318  14.707  19.705  0.00  0.00    +0.000 C 
ATOM     10  N   UNL     1       0.761  15.848  19.452  0.00  0.00    +0.000 NA
ATOM     11  N   UNL     1       1.335  16.689  18.541  0.00  0.00    +0.000 N 
ATOM     12  C   UNL     1       0.554  17.858  18.180  0.00  0.00    +0.000 C 
ATOM     13  C   UNL     1       2.597  16.538  17.994  0.00  0.00    +0.000 C 
ATOM     14  O   UNL     1       3.104  17.373  17.240  0.00  0.00    +0.000 OA
ATOM     15  C   UNL     1       3.375  15.311  18.377  0.00  0.00    +0.000 C 
ATOM     16  C   UNL     1       2.611  14.236  19.109  0.00  0.00    +0.000 C 
ENDBRANCH   6   9
BRANCH   1  17
ATOM     17  C   UNL     1       0.896   9.811  21.007  0.00  0.00    +0.000 C 
ATOM     18  O   UNL     1       1.670  10.365  21.784  0.00  0.00    +0.000 OA
BRANCH  17  24
ATOM     19  C   UNL     1       3.041   4.032  18.748  0.00  0.00    +0.000 A 
ATOM     20  C   UNL     1       2.565   3.868  20.047  0.00  0.00    +0.000 A 
ATOM     21  C   UNL     1       1.998   4.951  20.733  0.00  0.00    +0.000 A 
ATOM     22  C   UNL     1       1.914   6.228  20.140  0.00  0.00    +0.000 A 
ATOM     23  C   UNL     1       1.404   7.353  20.823  0.00  0.00    +0.000 A 
ATOM     24  C   UNL     1       1.388   8.626  20.219  0.00  0.00    +0.000 A 
ATOM     25  C   UNL     1       1.857   8.749  18.905  0.00  0.00    +0.000 A 
ATOM     26  C   UNL     1       2.325   7.635  18.209  0.00  0.00    +0.000 A 
ATOM     27  C   UNL     1       2.379   6.377  18.820  0.00  0.00    +0.000 A 
ATOM     28  C   UNL     1       2.917   5.280  18.132  0.00  0.00    +0.000 A 
BRANCH  19  30
ATOM     29  C   UNL     1       3.459   1.725  18.368  0.00  0.00    +0.000 C 
ATOM     30  O   UNL     1       3.643   3.079  17.975  0.00  0.00    +0.000 OA
ENDBRANCH  19  30
ENDBRANCH  17  24
ENDBRANCH   1  17
TORSDOF 4
ENDMDL
MODEL 6
REMARK VINA RESULT:      -8.1      0.735      1.505
REMARK  Name = 
REMARK  6 active torsions:
REMARK  status: ('A' for Active; 'I' for Inactive)
REMARK    1  A    between atoms: C_1  and  O_2
REMARK    2  A    between atoms: O_2  and  C_3
REMARK    3  A    between atoms: C_8  and  C_9
REMARK    4  A    between atoms: C_9  and  C_11
REMARK    5  A    between atoms: C_16  and  C_18
REMARK    6  A    between atoms: N_20  and  C_21
REMARK                            x       y       z     vdW  Elec       q    Type
REMARK                         _______ _______ _______ _____ _____    ______ ____
ROOT
ATOM      1  C   UNL     1      -0.102  10.140  19.764  0.00  0.00    +0.000 C 
ATOM      2  C   UNL     1      -1.244  10.359  18.767  0.00  0.00    +0.000 C 
ATOM      3  C   UNL     1      -1.275  11.754  18.138  0.00  0.00    +0.000 C 
ATOM      4  C   UNL     1      -0.976  12.891  19.110  0.00  0.00    +0.000 C 
ATOM      5  N   UNL     1       0.173  12.600  19.961  0.00  0.00    +0.000 N 
ATOM      6  C   UNL     1       1.212  13.472  20.291  0.00  0.00    +0.000 C 
ATOM      7  O   UNL     1       2.051  13.234  21.159  0.00  0.00    +0.000 OA
ATOM      8  C   UNL     1       0.101  11.342  20.683  0.00  0.00    +0.000 C 
ENDROOT
BRANCH   6   9
ATOM      9  C   UNL     1       1.399  14.780  19.537  0.00  0.00    +0.000 C 
ATOM     10  N   UNL     1       0.703  15.821  19.866  0.00  0.00    +0.000 NA
ATOM     11  N   UNL     1       0.842  16.975  19.149  0.00  0.00    +0.000 N 
ATOM     12  C   UNL     1      -0.103  18.031  19.463  0.00  0.00    +0.000 C 
ATOM     13  C   UNL     1       1.826  17.223  18.209  0.00  0.00    +0.000 C 
ATOM     14  O   UNL     1       1.960  18.315  17.651  0.00  0.00    +0.000 OA
ATOM     15  C   UNL     1       2.781  16.105  17.896  0.00  0.00    +0.000 C 
ATOM     16  C   UNL     1       2.419  14.745  18.439  0.00  0.00    +0.000 C 
ENDBRANCH   6   9
BRANCH   1  17
ATOM     17  C   UNL     1       1.201   9.723  19.053  0.00  0.00    +0.000 C 
ATOM     18  O   UNL     1       1.793  10.479  18.286  0.00  0.00    +0.000 OA
BRANCH  17  24
ATOM     19  C   UNL     1       3.868   3.736  18.678  0.00  0.00    +0.000 A 
ATOM     20  C   UNL     1       4.184   4.451  17.524  0.00  0.00    +0.000 A 
ATOM     21  C   UNL     1       3.775   5.785  17.387  0.00  0.00    +0.000 A 
ATOM     22  C   UNL     1       3.022   6.425  18.393  0.00  0.00    +0.000 A 
ATOM     23  C   UNL     1       2.543   7.747  18.262  0.00  0.00    +0.000 A 
ATOM     24  C   UNL     1       1.745   8.334  19.264  0.00  0.00    +0.000 A 
ATOM     25  C   UNL     1       1.464   7.592  20.417  0.00  0.00    +0.000 A 
ATOM     26  C   UNL     1       1.967   6.301  20.572  0.00  0.00    +0.000 A 
ATOM     27  C   UNL     1       2.727   5.700  19.563  0.00  0.00    +0.000 A 
ATOM     28  C   UNL     1       3.166   4.375  19.703  0.00  0.00    +0.000 A 
BRANCH  19  30
ATOM     29  C   UNL     1       4.515   2.100  20.274  0.00  0.00    +0.000 C 
ATOM     30  O   UNL     1       4.172   2.429  18.933  0.00  0.00    +0.000 OA
ENDBRANCH  19  30
ENDBRANCH  17  24
ENDBRANCH   1  17
TORSDOF 4
ENDMDL
MODEL 7
REMARK VINA RESULT:      -8.1      1.345      1.878
REMARK  Name = 
REMARK  6 active torsions:
REMARK  status: ('A' for Active; 'I' for Inactive)
REMARK    1  A    between atoms: C_1  and  O_2
REMARK    2  A    between atoms: O_2  and  C_3
REMARK    3  A    between atoms: C_8  and  C_9
REMARK    4  A    between atoms: C_9  and  C_11
REMARK    5  A    between atoms: C_16  and  C_18
REMARK    6  A    between atoms: N_20  and  C_21
REMARK                            x       y       z     vdW  Elec       q    Type
REMARK                         _______ _______ _______ _____ _____    ______ ____
ROOT
ATOM      1  C   UNL     1      -0.747  10.457  20.594  0.00  0.00    +0.000 C 
ATOM      2  C   UNL     1      -1.171  10.196  19.146  0.00  0.00    +0.000 C 
ATOM      3  C   UNL     1      -0.812  11.317  18.169  0.00  0.00    +0.000 C 
ATOM      4  C   UNL     1      -1.037  12.724  18.715  0.00  0.00    +0.000 C 
ATOM      5  N   UNL     1      -0.531  12.876  20.075  0.00  0.00    +0.000 N 
ATOM      6  C   UNL     1       0.201  13.952  20.581  0.00  0.00    +0.000 C 
ATOM      7  O   UNL     1       0.437  14.111  21.777  0.00  0.00    +0.000 OA
ATOM      8  C   UNL     1      -1.023  11.895  21.027  0.00  0.00    +0.000 C 
ENDROOT
BRANCH   6   9
ATOM      9  C   UNL     1       0.808  14.986  19.646  0.00  0.00    +0.000 C 
ATOM     10  N   UNL     1       1.949  14.755  19.079  0.00  0.00    +0.000 NA
ATOM     11  N   UNL     1       2.510  15.711  18.281  0.00  0.00    +0.000 N 
ATOM     12  C   UNL     1       3.867  15.449  17.838  0.00  0.00    +0.000 C 
ATOM     13  C   UNL     1       1.875  16.856  17.835  0.00  0.00    +0.000 C 
ATOM     14  O   UNL     1       2.397  17.646  17.044  0.00  0.00    +0.000 OA
ATOM     15  C   UNL     1       0.475  17.107  18.322  0.00  0.00    +0.000 C 
ATOM     16  C   UNL     1      -0.006  16.230  19.452  0.00  0.00    +0.000 C 
ENDBRANCH   6   9
BRANCH   1  17
ATOM     17  C   UNL     1       0.719  10.045  20.841  0.00  0.00    +0.000 C 
ATOM     18  O   UNL     1       1.461  10.696  21.573  0.00  0.00    +0.000 OA
BRANCH  17  24
ATOM     19  C   UNL     1       3.079   4.220  18.944  0.00  0.00    +0.000 A 
ATOM     20  C   UNL     1       2.517   4.095  20.213  0.00  0.00    +0.000 A 
ATOM     21  C   UNL     1       1.892   5.194  20.819  0.00  0.00    +0.000 A 
ATOM     22  C   UNL     1       1.834   6.449  20.176  0.00  0.00    +0.000 A 
ATOM     23  C   UNL     1       1.265   7.590  20.781  0.00  0.00    +0.000 A 
ATOM     24  C   UNL     1       1.277   8.840  20.131  0.00  0.00    +0.000 A 
ATOM     25  C   UNL     1       1.833   8.923  18.849  0.00  0.00    +0.000 A 
ATOM     26  C   UNL     1       2.360   7.791  18.227  0.00  0.00    +0.000 A 
ATOM     27  C   UNL     1       2.386   6.557  18.886  0.00  0.00    +0.000 A 
ATOM     28  C   UNL     1       2.983   5.444  18.276  0.00  0.00    +0.000 A 
BRANCH  19  30
ATOM     29  C   UNL     1       2.989   2.106  17.867  0.00  0.00    +0.000 C 
ATOM     30  O   UNL     1       3.743   3.249  18.250  0.00  0.00    +0.000 OA
ENDBRANCH  19  30
ENDBRANCH  17  24
ENDBRANCH   1  17
TORSDOF 4
ENDMDL
MODEL 8
REMARK VINA RESULT:      -7.8      3.800      5.300
REMARK  Name = 
REMARK  6 active torsions:
REMARK  status: ('A' for Active; 'I' for Inactive)
REMARK    1  A    between atoms: C_1  and  O_2
REMARK    2  A    between atoms: O_2  and  C_3
REMARK    3  A    between atoms: C_8  and  C_9
REMARK    4  A    between atoms: C_9  and  C_11
REMARK    5  A    between atoms: C_16  and  C_18
REMARK    6  A    between atoms: N_20  and  C_21
REMARK                            x       y       z     vdW  Elec       q    Type
REMARK                         _______ _______ _______ _____ _____    ______ ____
ROOT
ATOM      1  C   UNL     1       0.712  10.984  21.197  0.00  0.00    +0.000 C 
ATOM      2  C   UNL     1       0.505  10.075  22.412  0.00  0.00    +0.000 C 
ATOM      3  C   UNL     1      -0.908  10.113  22.998  0.00  0.00    +0.000 C 
ATOM      4  C   UNL     1      -1.527  11.507  23.061  0.00  0.00    +0.000 C 
ATOM      5  N   UNL     1      -1.328  12.255  21.825  0.00  0.00    +0.000 N 
ATOM      6  C   UNL     1      -2.275  13.031  21.154  0.00  0.00    +0.000 C 
ATOM      7  O   UNL     1      -2.000  13.787  20.224  0.00  0.00    +0.000 OA
ATOM      8  C   UNL     1       0.052  12.349  21.378  0.00  0.00    +0.000 C 
ENDROOT
BRANCH   6   9
ATOM      9  C   UNL     1      -3.749  12.941  21.515  0.00  0.00    +0.000 C 
ATOM     10  N   UNL     1      -4.566  12.299  20.742  0.00  0.00    +0.000 NA
ATOM     11  N   UNL     1      -5.896  12.267  21.049  0.00  0.00    +0.000 N 
ATOM     12  C   UNL     1      -6.764  11.689  20.038  0.00  0.00    +0.000 C 
ATOM     13  C   UNL     1      -6.455  12.686  22.243  0.00  0.00    +0.000 C 
ATOM     14  O   UNL     1      -7.654  12.556  22.504  0.00  0.00    +0.000 OA
ATOM     15  C   UNL     1      -5.533  13.293  23.263  0.00  0.00    +0.000 C 
ATOM     16  C   UNL     1      -4.140  13.627  22.790  0.00  0.00    +0.000 C 
ENDBRANCH   6   9
BRANCH   1  17
ATOM     17  C   UNL     1       0.275  10.295  19.889  0.00  0.00    +0.000 C 
ATOM     18  O   UNL     1      -0.788  10.565  19.337  0.00  0.00    +0.000 OA
BRANCH  17  24
ATOM     19  C   UNL     1       4.080   5.126  18.509  0.00  0.00    +0.000 A 
ATOM     20  C   UNL     1       3.486   4.937  19.755  0.00  0.00    +0.000 A 
ATOM     21  C   UNL     1       2.578   5.882  20.254  0.00  0.00    +0.000 A 
ATOM     22  C   UNL     1       2.262   7.047  19.525  0.00  0.00    +0.000 A 
ATOM     23  C   UNL     1       1.398   8.047  20.023  0.00  0.00    +0.000 A 
ATOM     24  C   UNL     1       1.150   9.225  19.291  0.00  0.00    +0.000 A 
ATOM     25  C   UNL     1       1.750   9.371  18.034  0.00  0.00    +0.000 A 
ATOM     26  C   UNL     1       2.571   8.370  17.517  0.00  0.00    +0.000 A 
ATOM     27  C   UNL     1       2.851   7.216  18.258  0.00  0.00    +0.000 A 
ATOM     28  C   UNL     1       3.736   6.251  17.755  0.00  0.00    +0.000 A 
BRANCH  19  30
ATOM     29  C   UNL     1       5.180   4.459  16.512  0.00  0.00    +0.000 C 
ATOM     30  O   UNL     1       5.000   4.309  17.914  0.00  0.00    +0.000 OA
ENDBRANCH  19  30
ENDBRANCH  17  24
ENDBRANCH   1  17
TORSDOF 4
ENDMDL
MODEL 9
REMARK VINA RESULT:      -7.7      3.495      4.679
REMARK  Name = 
REMARK  6 active torsions:
REMARK  status: ('A' for Active; 'I' for Inactive)
REMARK    1  A    between atoms: C_1  and  O_2
REMARK    2  A    between atoms: O_2  and  C_3
REMARK    3  A    between atoms: C_8  and  C_9
REMARK    4  A    between atoms: C_9  and  C_11
REMARK    5  A    between atoms: C_16  and  C_18
REMARK    6  A    between atoms: N_20  and  C_21
REMARK                            x       y       z     vdW  Elec       q    Type
REMARK                         _______ _______ _______ _____ _____    ______ ____
ROOT
ATOM      1  C   UNL     1       1.044   9.696  21.803  0.00  0.00    +0.000 C 
ATOM      2  C   UNL     1       0.358   9.760  23.171  0.00  0.00    +0.000 C 
ATOM      3  C   UNL     1      -1.058  10.337  23.143  0.00  0.00    +0.000 C 
ATOM      4  C   UNL     1      -1.229  11.544  22.225  0.00  0.00    +0.000 C 
ATOM      5  N   UNL     1      -0.596  11.343  20.926  0.00  0.00    +0.000 N 
ATOM      6  C   UNL     1      -1.129  11.664  19.676  0.00  0.00    +0.000 C 
ATOM      7  O   UNL     1      -0.477  11.646  18.634  0.00  0.00    +0.000 OA
ATOM      8  C   UNL     1       0.804  10.958  20.978  0.00  0.00    +0.000 C 
ENDROOT
BRANCH   6   9
ATOM      9  C   UNL     1      -2.601  12.012  19.526  0.00  0.00    +0.000 C 
ATOM     10  N   UNL     1      -3.152  12.858  20.336  0.00  0.00    +0.000 NA
ATOM     11  N   UNL     1      -4.487  13.125  20.224  0.00  0.00    +0.000 N 
ATOM     12  C   UNL     1      -5.060  13.937  21.282  0.00  0.00    +0.000 C 
ATOM     13  C   UNL     1      -5.298  12.732  19.175  0.00  0.00    +0.000 C 
ATOM     14  O   UNL     1      -6.480  13.073  19.078  0.00  0.00    +0.000 OA
ATOM     15  C   UNL     1      -4.679  11.880  18.103  0.00  0.00    +0.000 C 
ATOM     16  C   UNL     1      -3.311  11.319  18.401  0.00  0.00    +0.000 C 
ENDBRANCH   6   9
BRANCH   1  17
ATOM     17  C   UNL     1       0.661   8.416  21.034  0.00  0.00    +0.000 C 
ATOM     18  O   UNL     1      -0.368   7.792  21.283  0.00  0.00    +0.000 OA
BRANCH  17  24
ATOM     19  C   UNL     1       5.088   5.235  17.377  0.00  0.00    +0.000 A 
ATOM     20  C   UNL     1       4.833   4.497  18.531  0.00  0.00    +0.000 A 
ATOM     21  C   UNL     1       3.876   4.940  19.454  0.00  0.00    +0.000 A 
ATOM     22  C   UNL     1       3.167   6.143  19.251  0.00  0.00    +0.000 A 
ATOM     23  C   UNL     1       2.239   6.648  20.187  0.00  0.00    +0.000 A 
ATOM     24  C   UNL     1       1.592   7.882  19.978  0.00  0.00    +0.000 A 
ATOM     25  C   UNL     1       1.860   8.586  18.797  0.00  0.00    +0.000 A 
ATOM     26  C   UNL     1       2.744   8.074  17.848  0.00  0.00    +0.000 A 
ATOM     27  C   UNL     1       3.418   6.868  18.071  0.00  0.00    +0.000 A 
ATOM     28  C   UNL     1       4.357   6.401  17.140  0.00  0.00    +0.000 A 
BRANCH  19  30
ATOM     29  C   UNL     1       7.302   4.549  16.857  0.00  0.00    +0.000 C 
ATOM     30  O   UNL     1       6.010   4.941  16.412  0.00  0.00    +0.000 OA
ENDBRANCH  19  30
ENDBRANCH  17  24
ENDBRANCH   1  17
TORSDOF 4
ENDMDL
