MODEL 1
REMARK VINA RESULT:      -8.1      0.000      0.000
REMARK  Name = 
REMARK  6 active torsions:
REMARK  status: ('A' for Active; 'I' for Inactive)
REMARK    1  A    between atoms: O_1  and  C_2
REMARK    2  A    between atoms: C_2  and  C_3
REMARK    3  A    between atoms: C_3  and  C_4
REMARK    4  A    between atoms: C_4  and  O_5
REMARK    5  A    between atoms: O_5  and  C_6
REMARK    6  A    between atoms: C_9  and  C_10
REMARK                            x       y       z     vdW  Elec       q    Type
REMARK                         _______ _______ _______ _____ _____    ______ ____
ROOT
ATOM      1  C   UNL     1       2.742   5.905  18.619  0.00  0.00    +0.000 A 
ATOM      2  N   UNL     1       3.645   6.100  17.697  0.00  0.00    +0.000 NA
ATOM      3  N   UNL     1       4.596   5.068  17.707  0.00  0.00    +0.000 N 
ATOM      4  C   UNL     1       5.882   4.979  17.172  0.00  0.00    +0.000 A 
ATOM      5  N   UNL     1       6.646   4.606  18.199  0.00  0.00    +0.000 NA
ATOM      6  N   UNL     1       5.858   3.848  19.023  0.00  0.00    +0.000 NA
ATOM      7  C   UNL     1       4.620   4.040  18.632  0.00  0.00    +0.000 A 
ATOM      8  C   UNL     1       3.402   3.676  19.211  0.00  0.00    +0.000 A 
ATOM      9  C   UNL     1       2.529   4.678  19.423  0.00  0.00    +0.000 A 
ATOM     10  C   UNL     1       1.418   4.342  20.386  0.00  0.00    +0.000 C 
ATOM     11  C   UNL     1       0.578   3.241  19.717  0.00  0.00    +0.000 C 
ATOM     12  C   UNL     1       1.505   2.081  19.278  0.00  0.00    +0.000 C 
ATOM     13  C   UNL     1       2.966   2.337  19.755  0.00  0.00    +0.000 C 
ATOM     14  C   UNL     1       2.956   2.494  21.278  0.00  0.00    +0.000 C 
ATOM     15  C   UNL     1       2.080   3.721  21.657  0.00  0.00    +0.000 C 
ENDROOT
BRANCH   4  16
ATOM     16  C   UNL     1       6.305   4.633  15.808  0.00  0.00    +0.000 A 
ATOM     17  C   UNL     1       7.401   5.213  15.162  0.00  0.00    +0.000 A 
ATOM     18  C   UNL     1       7.582   5.035  13.780  0.00  0.00    +0.000 A 
ATOM     19  C   UNL     1       6.673   4.287  13.031  0.00  0.00    +0.000 A 
ATOM     20  C   UNL     1       5.569   3.720  13.655  0.00  0.00    +0.000 A 
ATOM     21  C   UNL     1       5.390   3.894  15.027  0.00  0.00    +0.000 A 
ENDBRANCH   4  16
BRANCH   1  22
ATOM     22  O   UNL     1       1.779   6.776  18.993  0.00  0.00    +0.000 OA
BRANCH  22  23
ATOM     23  C   UNL     1       2.108   7.936  19.769  0.00  0.00    +0.000 C 
BRANCH  23  24
ATOM     24  C   UNL     1       1.174   9.068  19.321  0.00  0.00    +0.000 C 
BRANCH  24  25
ATOM     25  C   UNL     1       1.745   9.853  18.157  0.00  0.00    +0.000 C 
BRANCH  25  26
ATOM     26  O   UNL     1       2.325   8.965  17.211  0.00  0.00    +0.000 OA
ATOM     27  H   UNL     1       3.108   9.406  16.838  0.00  0.00    +0.000 HD
ENDBRANCH  25  26
ENDBRANCH  24  25
ENDBRANCH  23  24
ENDBRANCH  22  23
ENDBRANCH   1  22
TORSDOF 6
ENDMDL
MODEL 2
REMARK VINA RESULT:      -8.0      0.877      1.154
REMARK  Name = 
REMARK  6 active torsions:
REMARK  status: ('A' for Active; 'I' for Inactive)
REMARK    1  A    between atoms: O_1  and  C_2
REMARK    2  A    between atoms: C_2  and  C_3
REMARK    3  A    between atoms: C_3  and  C_4
REMARK    4  A    between atoms: C_4  and  O_5
REMARK    5  A    between atoms: O_5  and  C_6
REMARK    6  A    between atoms: C_9  and  C_10
REMARK                            x       y       z     vdW  Elec       q    Type
REMARK                         _______ _______ _______ _____ _____    ______ ____
ROOT
ATOM      1  C   UNL     1       3.059   6.044  17.976  0.00  0.00    +0.000 A 
ATOM      2  N   UNL     1       3.957   6.207  17.044  0.00  0.00    +0.000 NA
ATOM      3  N   UNL     1       4.896   5.163  17.070  0.00  0.00    +0.000 N 
ATOM      4  C   UNL     1       6.177   5.046  16.529  0.00  0.00    +0.000 A 
ATOM      5  N   UNL     1       6.943   4.687  17.559  0.00  0.00    +0.000 NA
ATOM      6  N   UNL     1       6.152   3.959  18.405  0.00  0.00    +0.000 NA
ATOM      7  C   UNL     1       4.913   4.156  18.019  0.00  0.00    +0.000 A 
ATOM      8  C   UNL     1       3.696   3.822  18.614  0.00  0.00    +0.000 A 
ATOM      9  C   UNL     1       2.837   4.839  18.810  0.00  0.00    +0.000 A 
ATOM     10  C   UNL     1       1.728   4.539  19.788  0.00  0.00    +0.000 C 
ATOM     11  C   UNL     1       0.870   3.434  19.150  0.00  0.00    +0.000 C 
ATOM     12  C   UNL     1       1.779   2.253  18.731  0.00  0.00    +0.000 C 
ATOM     13  C   UNL     1       3.247   2.501  19.192  0.00  0.00    +0.000 C 
ATOM     14  C   UNL     1       3.250   2.693  20.712  0.00  0.00    +0.000 C 
ATOM     15  C   UNL     1       2.391   3.940  21.068  0.00  0.00    +0.000 C 
ENDROOT
BRANCH   4  16
ATOM     16  C   UNL     1       6.585   4.664  15.171  0.00  0.00    +0.000 A 
ATOM     17  C   UNL     1       7.604   5.301  14.455  0.00  0.00    +0.000 A 
ATOM     18  C   UNL     1       7.755   5.064  13.079  0.00  0.00    +0.000 A 
ATOM     19  C   UNL     1       6.894   4.198  12.403  0.00  0.00    +0.000 A 
ATOM     20  C   UNL     1       5.867   3.572  13.096  0.00  0.00    +0.000 A 
ATOM     21  C   UNL     1       5.716   3.805  14.463  0.00  0.00    +0.000 A 
ENDBRANCH   4  16
BRANCH   1  22
ATOM     22  O   UNL     1       2.110   6.936  18.337  0.00  0.00    +0.000 OA
BRANCH  22  23
ATOM     23  C   UNL     1       2.404   8.339  18.373  0.00  0.00    +0.000 C 
BRANCH  23  24
ATOM     24  C   UNL     1       1.176   9.051  18.958  0.00  0.00    +0.000 C 
BRANCH  24  25
ATOM     25  C   UNL     1       1.150   8.994  20.472  0.00  0.00    +0.000 C 
BRANCH  25  26
ATOM     26  O   UNL     1       1.880   7.864  20.928  0.00  0.00    +0.000 OA
ATOM     27  H   UNL     1       1.747   7.149  20.282  0.00  0.00    +0.000 HD
ENDBRANCH  25  26
ENDBRANCH  24  25
ENDBRANCH  23  24
ENDBRANCH  22  23
ENDBRANCH   1  22
TORSDOF 6
ENDMDL
MODEL 3
REMARK VINA RESULT:      -7.9      1.142      1.259
REMARK  Name = 
REMARK  6 active torsions:
REMARK  status: ('A' for Active; 'I' for Inactive)
REMARK    1  A    between atoms: O_1  and  C_2
REMARK    2  A    between atoms: C_2  and  C_3
REMARK    3  A    between atoms: C_3  and  C_4
REMARK    4  A    between atoms: C_4  and  O_5
REMARK    5  A    between atoms: O_5  and  C_6
REMARK    6  A    between atoms: C_9  and  C_10
REMARK                            x       y       z     vdW  Elec       q    Type
REMARK                         _______ _______ _______ _____ _____    ______ ____
ROOT
ATOM      1  C   UNL     1       3.365   6.205  17.803  0.00  0.00    +0.000 A 
ATOM      2  N   UNL     1       4.253   6.344  16.858  0.00  0.00    +0.000 NA
ATOM      3  N   UNL     1       5.137   5.253  16.842  0.00  0.00    +0.000 N 
ATOM      4  C   UNL     1       6.400   5.084  16.272  0.00  0.00    +0.000 A 
ATOM      5  N   UNL     1       7.166   4.661  17.278  0.00  0.00    +0.000 NA
ATOM      6  N   UNL     1       6.354   3.954  18.123  0.00  0.00    +0.000 NA
ATOM      7  C   UNL     1       5.120   4.224  17.766  0.00  0.00    +0.000 A 
ATOM      8  C   UNL     1       3.898   3.938  18.378  0.00  0.00    +0.000 A 
ATOM      9  C   UNL     1       3.097   4.993  18.614  0.00  0.00    +0.000 A 
ATOM     10  C   UNL     1       1.992   4.726  19.606  0.00  0.00    +0.000 C 
ATOM     11  C   UNL     1       1.067   3.682  18.960  0.00  0.00    +0.000 C 
ATOM     12  C   UNL     1       1.906   2.466  18.496  0.00  0.00    +0.000 C 
ATOM     13  C   UNL     1       3.393   2.628  18.933  0.00  0.00    +0.000 C 
ATOM     14  C   UNL     1       3.434   2.783  20.457  0.00  0.00    +0.000 C 
ATOM     15  C   UNL     1       2.648   4.063  20.858  0.00  0.00    +0.000 C 
ENDROOT
BRANCH   4  16
ATOM     16  C   UNL     1       6.762   4.714  14.898  0.00  0.00    +0.000 A 
ATOM     17  C   UNL     1       7.695   5.411  14.124  0.00  0.00    +0.000 A 
ATOM     18  C   UNL     1       7.792   5.169  12.744  0.00  0.00    +0.000 A 
ATOM     19  C   UNL     1       6.959   4.237  12.122  0.00  0.00    +0.000 A 
ATOM     20  C   UNL     1       6.015   3.550  12.873  0.00  0.00    +0.000 A 
ATOM     21  C   UNL     1       5.920   3.788  14.244  0.00  0.00    +0.000 A 
ENDBRANCH   4  16
BRANCH   1  22
ATOM     22  O   UNL     1       2.470   7.134  18.204  0.00  0.00    +0.000 OA
BRANCH  22  23
ATOM     23  C   UNL     1       2.619   8.506  17.810  0.00  0.00    +0.000 C 
BRANCH  23  24
ATOM     24  C   UNL     1       1.223   9.144  17.832  0.00  0.00    +0.000 C 
BRANCH  24  25
ATOM     25  C   UNL     1       1.144  10.312  18.794  0.00  0.00    +0.000 C 
BRANCH  25  26
ATOM     26  O   UNL     1       0.369  11.358  18.224  0.00  0.00    +0.000 OA
ATOM     27  H   UNL     1       0.969  11.911  17.693  0.00  0.00    +0.000 HD
ENDBRANCH  25  26
ENDBRANCH  24  25
ENDBRANCH  23  24
ENDBRANCH  22  23
ENDBRANCH   1  22
TORSDOF 6
ENDMDL
MODEL 4
REMARK VINA RESULT:      -7.8      0.918      1.552
REMARK  Name = 
REMARK  6 active torsions:
REMARK  status: ('A' for Active; 'I' for Inactive)
REMARK    1  A    between atoms: O_1  and  C_2
REMARK    2  A    between atoms: C_2  and  C_3
REMARK    3  A    between atoms: C_3  and  C_4
REMARK    4  A    between atoms: C_4  and  O_5
REMARK    5  A    between atoms: O_5  and  C_6
REMARK    6  A    between atoms: C_9  and  C_10
REMARK                            x       y       z     vdW  Elec       q    Type
REMARK                         _______ _______ _______ _____ _____    ______ ____
ROOT
ATOM      1  C   UNL     1       2.980   6.213  18.322  0.00  0.00    +0.000 A 
ATOM      2  N   UNL     1       3.773   6.409  17.305  0.00  0.00    +0.000 NA
ATOM      3  N   UNL     1       4.627   5.309  17.122  0.00  0.00    +0.000 N 
ATOM      4  C   UNL     1       5.823   5.164  16.418  0.00  0.00    +0.000 A 
ATOM      5  N   UNL     1       6.675   4.656  17.309  0.00  0.00    +0.000 NA
ATOM      6  N   UNL     1       5.935   3.901  18.178  0.00  0.00    +0.000 NA
ATOM      7  C   UNL     1       4.678   4.215  17.967  0.00  0.00    +0.000 A 
ATOM      8  C   UNL     1       3.517   3.902  18.675  0.00  0.00    +0.000 A 
ATOM      9  C   UNL     1       2.766   4.949  19.066  0.00  0.00    +0.000 A 
ATOM     10  C   UNL     1       1.759   4.626  20.142  0.00  0.00    +0.000 C 
ATOM     11  C   UNL     1       0.752   3.647  19.518  0.00  0.00    +0.000 C 
ATOM     12  C   UNL     1       1.514   2.456  18.886  0.00  0.00    +0.000 C 
ATOM     13  C   UNL     1       3.040   2.563  19.183  0.00  0.00    +0.000 C 
ATOM     14  C   UNL     1       3.234   2.604  20.702  0.00  0.00    +0.000 C 
ATOM     15  C   UNL     1       2.520   3.862  21.271  0.00  0.00    +0.000 C 
ENDROOT
BRANCH   4  16
ATOM     16  C   UNL     1       6.040   4.891  14.991  0.00  0.00    +0.000 A 
ATOM     17  C   UNL     1       5.267   3.997  14.243  0.00  0.00    +0.000 A 
ATOM     18  C   UNL     1       5.694   3.586  12.970  0.00  0.00    +0.000 A 
ATOM     19  C   UNL     1       6.895   4.055  12.433  0.00  0.00    +0.000 A 
ATOM     20  C   UNL     1       7.683   4.928  13.171  0.00  0.00    +0.000 A 
ATOM     21  C   UNL     1       7.258   5.338  14.435  0.00  0.00    +0.000 A 
ENDBRANCH   4  16
BRANCH   1  22
ATOM     22  O   UNL     1       2.150   7.124  18.876  0.00  0.00    +0.000 OA
BRANCH  22  23
ATOM     23  C   UNL     1       2.024   8.435  18.308  0.00  0.00    +0.000 C 
BRANCH  23  24
ATOM     24  C   UNL     1       1.471   9.358  19.403  0.00  0.00    +0.000 C 
BRANCH  24  25
ATOM     25  C   UNL     1       0.837   8.581  20.539  0.00  0.00    +0.000 C 
BRANCH  25  26
ATOM     26  O   UNL     1       1.831   8.200  21.480  0.00  0.00    +0.000 OA
ATOM     27  H   UNL     1       2.349   8.995  21.697  0.00  0.00    +0.000 HD
ENDBRANCH  25  26
ENDBRANCH  24  25
ENDBRANCH  23  24
ENDBRANCH  22  23
ENDBRANCH   1  22
TORSDOF 6
ENDMDL
MODEL 5
REMARK VINA RESULT:      -7.8      0.372      1.014
REMARK  Name = 
REMARK  6 active torsions:
REMARK  status: ('A' for Active; 'I' for Inactive)
REMARK    1  A    between atoms: O_1  and  C_2
REMARK    2  A    between atoms: C_2  and  C_3
REMARK    3  A    between atoms: C_3  and  C_4
REMARK    4  A    between atoms: C_4  and  O_5
REMARK    5  A    between atoms: O_5  and  C_6
REMARK    6  A    between atoms: C_9  and  C_10
REMARK                            x       y       z     vdW  Elec       q    Type
REMARK                         _______ _______ _______ _____ _____    ______ ____
ROOT
ATOM      1  C   UNL     1       2.613   6.056  18.599  0.00  0.00    +0.000 A 
ATOM      2  N   UNL     1       3.422   6.304  17.606  0.00  0.00    +0.000 NA
ATOM      3  N   UNL     1       4.362   5.270  17.461  0.00  0.00    +0.000 N 
ATOM      4  C   UNL     1       5.588   5.210  16.798  0.00  0.00    +0.000 A 
ATOM      5  N   UNL     1       6.446   4.775  17.721  0.00  0.00    +0.000 NA
ATOM      6  N   UNL     1       5.737   3.972  18.573  0.00  0.00    +0.000 NA
ATOM      7  C   UNL     1       4.468   4.189  18.318  0.00  0.00    +0.000 A 
ATOM      8  C   UNL     1       3.310   3.795  18.992  0.00  0.00    +0.000 A 
ATOM      9  C   UNL     1       2.470   4.785  19.348  0.00  0.00    +0.000 A 
ATOM     10  C   UNL     1       1.456   4.395  20.394  0.00  0.00    +0.000 C 
ATOM     11  C   UNL     1       0.546   3.338  19.748  0.00  0.00    +0.000 C 
ATOM     12  C   UNL     1       1.416   2.204  19.153  0.00  0.00    +0.000 C 
ATOM     13  C   UNL     1       2.919   2.427  19.497  0.00  0.00    +0.000 C 
ATOM     14  C   UNL     1       3.060   2.494  21.021  0.00  0.00    +0.000 C 
ATOM     15  C   UNL     1       2.235   3.699  21.555  0.00  0.00    +0.000 C 
ENDROOT
BRANCH   4  16
ATOM     16  C   UNL     1       5.871   4.944  15.381  0.00  0.00    +0.000 A 
ATOM     17  C   UNL     1       5.127   4.062  14.591  0.00  0.00    +0.000 A 
ATOM     18  C   UNL     1       5.613   3.655  13.338  0.00  0.00    +0.000 A 
ATOM     19  C   UNL     1       6.841   4.116  12.862  0.00  0.00    +0.000 A 
ATOM     20  C   UNL     1       7.600   4.978  13.643  0.00  0.00    +0.000 A 
ATOM     21  C   UNL     1       7.119   5.384  14.888  0.00  0.00    +0.000 A 
ENDBRANCH   4  16
BRANCH   1  22
ATOM     22  O   UNL     1       1.699   6.906  19.117  0.00  0.00    +0.000 OA
BRANCH  22  23
ATOM     23  C   UNL     1       2.115   8.098  19.798  0.00  0.00    +0.000 C 
BRANCH  23  24
ATOM     24  C   UNL     1       1.029   9.159  19.573  0.00  0.00    +0.000 C 
BRANCH  24  25
ATOM     25  C   UNL     1       1.010   9.661  18.143  0.00  0.00    +0.000 C 
BRANCH  25  26
ATOM     26  O   UNL     1       2.153   9.187  17.446  0.00  0.00    +0.000 OA
ATOM     27  H   UNL     1       2.362   9.835  16.751  0.00  0.00    +0.000 HD
ENDBRANCH  25  26
ENDBRANCH  24  25
ENDBRANCH  23  24
ENDBRANCH  22  23
ENDBRANCH   1  22
TORSDOF 6
ENDMDL
MODEL 6
REMARK VINA RESULT:      -7.6      1.226      1.772
REMARK  Name = 
REMARK  6 active torsions:
REMARK  status: ('A' for Active; 'I' for Inactive)
REMARK    1  A    between atoms: O_1  and  C_2
REMARK    2  A    between atoms: C_2  and  C_3
REMARK    3  A    between atoms: C_3  and  C_4
REMARK    4  A    between atoms: C_4  and  O_5
REMARK    5  A    between atoms: O_5  and  C_6
REMARK    6  A    between atoms: C_9  and  C_10
REMARK                            x       y       z     vdW  Elec       q    Type
REMARK                         _______ _______ _______ _____ _____    ______ ____
ROOT
ATOM      1  C   UNL     1       2.552   6.078  18.850  0.00  0.00    +0.000 A 
ATOM      2  N   UNL     1       3.362   6.349  17.864  0.00  0.00    +0.000 NA
ATOM      3  N   UNL     1       4.313   5.328  17.707  0.00  0.00    +0.000 N 
ATOM      4  C   UNL     1       5.542   5.292  17.047  0.00  0.00    +0.000 A 
ATOM      5  N   UNL     1       6.401   4.851  17.967  0.00  0.00    +0.000 NA
ATOM      6  N   UNL     1       5.697   4.027  18.803  0.00  0.00    +0.000 NA
ATOM      7  C   UNL     1       4.427   4.235  18.547  0.00  0.00    +0.000 A 
ATOM      8  C   UNL     1       3.271   3.818  19.210  0.00  0.00    +0.000 A 
ATOM      9  C   UNL     1       2.419   4.793  19.578  0.00  0.00    +0.000 A 
ATOM     10  C   UNL     1       1.405   4.376  20.614  0.00  0.00    +0.000 C 
ATOM     11  C   UNL     1       0.509   3.320  19.948  0.00  0.00    +0.000 C 
ATOM     12  C   UNL     1       1.393   2.204  19.337  0.00  0.00    +0.000 C 
ATOM     13  C   UNL     1       2.892   2.438  19.692  0.00  0.00    +0.000 C 
ATOM     14  C   UNL     1       3.026   2.482  21.216  0.00  0.00    +0.000 C 
ATOM     15  C   UNL     1       2.187   3.670  21.766  0.00  0.00    +0.000 C 
ENDROOT
BRANCH   4  16
ATOM     16  C   UNL     1       5.834   5.051  15.628  0.00  0.00    +0.000 A 
ATOM     17  C   UNL     1       5.039   4.258  14.794  0.00  0.00    +0.000 A 
ATOM     18  C   UNL     1       5.517   3.856  13.536  0.00  0.00    +0.000 A 
ATOM     19  C   UNL     1       6.789   4.233  13.100  0.00  0.00    +0.000 A 
ATOM     20  C   UNL     1       7.597   5.004  13.925  0.00  0.00    +0.000 A 
ATOM     21  C   UNL     1       7.122   5.406  15.174  0.00  0.00    +0.000 A 
ENDBRANCH   4  16
BRANCH   1  22
ATOM     22  O   UNL     1       1.626   6.909  19.378  0.00  0.00    +0.000 OA
BRANCH  22  23
ATOM     23  C   UNL     1       2.018   7.964  20.268  0.00  0.00    +0.000 C 
BRANCH  23  24
ATOM     24  C   UNL     1       0.849   8.209  21.231  0.00  0.00    +0.000 C 
BRANCH  24  25
ATOM     25  C   UNL     1       0.819   9.635  21.743  0.00  0.00    +0.000 C 
BRANCH  25  26
ATOM     26  O   UNL     1       0.962   9.646  23.157  0.00  0.00    +0.000 OA
ATOM     27  H   UNL     1       0.091   9.850  23.538  0.00  0.00    +0.000 HD
ENDBRANCH  25  26
ENDBRANCH  24  25
ENDBRANCH  23  24
ENDBRANCH  22  23
ENDBRANCH   1  22
TORSDOF 6
ENDMDL
MODEL 7
REMARK VINA RESULT:      -7.4      1.238      1.772
REMARK  Name = 
REMARK  6 active torsions:
REMARK  status: ('A' for Active; 'I' for Inactive)
REMARK    1  A    between atoms: O_1  and  C_2
REMARK    2  A    between atoms: C_2  and  C_3
REMARK    3  A    between atoms: C_3  and  C_4
REMARK    4  A    between atoms: C_4  and  O_5
REMARK    5  A    between atoms: O_5  and  C_6
REMARK    6  A    between atoms: C_9  and  C_10
REMARK                            x       y       z     vdW  Elec       q    Type
REMARK                         _______ _______ _______ _____ _____    ______ ____
ROOT
ATOM      1  C   UNL     1       3.780   6.716  17.755  0.00  0.00    +0.000 A 
ATOM      2  N   UNL     1       4.576   6.779  16.725  0.00  0.00    +0.000 NA
ATOM      3  N   UNL     1       5.218   5.547  16.516  0.00  0.00    +0.000 N 
ATOM      4  C   UNL     1       6.356   5.200  15.787  0.00  0.00    +0.000 A 
ATOM      5  N   UNL     1       7.120   4.539  16.657  0.00  0.00    +0.000 NA
ATOM      6  N   UNL     1       6.273   3.917  17.534  0.00  0.00    +0.000 NA
ATOM      7  C   UNL     1       5.089   4.452  17.350  0.00  0.00    +0.000 A 
ATOM      8  C   UNL     1       3.903   4.343  18.079  0.00  0.00    +0.000 A 
ATOM      9  C   UNL     1       3.357   5.501  18.493  0.00  0.00    +0.000 A 
ATOM     10  C   UNL     1       2.329   5.350  19.586  0.00  0.00    +0.000 C 
ATOM     11  C   UNL     1       1.152   4.572  18.975  0.00  0.00    +0.000 C 
ATOM     12  C   UNL     1       1.679   3.273  18.318  0.00  0.00    +0.000 C 
ATOM     13  C   UNL     1       3.205   3.103  18.585  0.00  0.00    +0.000 C 
ATOM     14  C   UNL     1       3.431   3.092  20.100  0.00  0.00    +0.000 C 
ATOM     15  C   UNL     1       2.962   4.450  20.694  0.00  0.00    +0.000 C 
ENDROOT
BRANCH   4  16
ATOM     16  C   UNL     1       6.495   4.909  14.354  0.00  0.00    +0.000 A 
ATOM     17  C   UNL     1       5.811   3.881  13.699  0.00  0.00    +0.000 A 
ATOM     18  C   UNL     1       6.191   3.492  12.404  0.00  0.00    +0.000 A 
ATOM     19  C   UNL     1       7.257   4.117  11.754  0.00  0.00    +0.000 A 
ATOM     20  C   UNL     1       7.958   5.127  12.399  0.00  0.00    +0.000 A 
ATOM     21  C   UNL     1       7.580   5.515  13.684  0.00  0.00    +0.000 A 
ENDBRANCH   4  16
BRANCH   1  22
ATOM     22  O   UNL     1       3.134   7.753  18.333  0.00  0.00    +0.000 OA
BRANCH  22  23
ATOM     23  C   UNL     1       1.939   8.287  17.745  0.00  0.00    +0.000 C 
BRANCH  23  24
ATOM     24  C   UNL     1       1.227   9.114  18.824  0.00  0.00    +0.000 C 
BRANCH  24  25
ATOM     25  C   UNL     1       1.296  10.601  18.542  0.00  0.00    +0.000 C 
BRANCH  25  26
ATOM     26  O   UNL     1       2.284  10.863  17.556  0.00  0.00    +0.000 OA
ATOM     27  H   UNL     1       2.790  11.641  17.848  0.00  0.00    +0.000 HD
ENDBRANCH  25  26
ENDBRANCH  24  25
ENDBRANCH  23  24
ENDBRANCH  22  23
ENDBRANCH   1  22
TORSDOF 6
ENDMDL
MODEL 8
REMARK VINA RESULT:      -6.9      2.226      5.897
REMARK  Name = 
REMARK  6 active torsions:
REMARK  status: ('A' for Active; 'I' for Inactive)
REMARK    1  A    between atoms: O_1  and  C_2
REMARK    2  A    between atoms: C_2  and  C_3
REMARK    3  A    between atoms: C_3  and  C_4
REMARK    4  A    between atoms: C_4  and  O_5
REMARK    5  A    between atoms: O_5  and  C_6
REMARK    6  A    between atoms: C_9  and  C_10
REMARK                            x       y       z     vdW  Elec       q    Type
REMARK                         _______ _______ _______ _____ _____    ______ ____
ROOT
ATOM      1  C   UNL     1       4.978   5.011  19.157  0.00  0.00    +0.000 A 
ATOM      2  N   UNL     1       4.630   6.264  19.049  0.00  0.00    +0.000 NA
ATOM      3  N   UNL     1       3.243   6.380  18.864  0.00  0.00    +0.000 N 
ATOM      4  C   UNL     1       2.450   7.426  18.388  0.00  0.00    +0.000 A 
ATOM      5  N   UNL     1       1.726   6.877  17.412  0.00  0.00    +0.000 NA
ATOM      6  N   UNL     1       1.542   5.563  17.747  0.00  0.00    +0.000 NA
ATOM      7  C   UNL     1       2.385   5.306  18.720  0.00  0.00    +0.000 A 
ATOM      8  C   UNL     1       2.765   4.102  19.318  0.00  0.00    +0.000 A 
ATOM      9  C   UNL     1       4.085   3.841  19.328  0.00  0.00    +0.000 A 
ATOM     10  C   UNL     1       4.432   2.400  19.608  0.00  0.00    +0.000 C 
ATOM     11  C   UNL     1       3.976   2.112  21.047  0.00  0.00    +0.000 C 
ATOM     12  C   UNL     1       2.493   2.524  21.211  0.00  0.00    +0.000 C 
ATOM     13  C   UNL     1       1.899   2.984  19.845  0.00  0.00    +0.000 C 
ATOM     14  C   UNL     1       2.050   1.837  18.842  0.00  0.00    +0.000 C 
ATOM     15  C   UNL     1       3.561   1.522  18.655  0.00  0.00    +0.000 C 
ENDROOT
BRANCH   4  16
ATOM     16  C   UNL     1       1.914   8.591  19.104  0.00  0.00    +0.000 A 
ATOM     17  C   UNL     1       1.424   8.543  20.413  0.00  0.00    +0.000 A 
ATOM     18  C   UNL     1       0.687   9.621  20.931  0.00  0.00    +0.000 A 
ATOM     19  C   UNL     1       0.426  10.749  20.152  0.00  0.00    +0.000 A 
ATOM     20  C   UNL     1       0.890  10.804  18.845  0.00  0.00    +0.000 A 
ATOM     21  C   UNL     1       1.624   9.735  18.329  0.00  0.00    +0.000 A 
ENDBRANCH   4  16
BRANCH   1  22
ATOM     22  O   UNL     1       6.241   4.531  19.182  0.00  0.00    +0.000 OA
BRANCH  22  23
ATOM     23  C   UNL     1       7.264   5.127  18.372  0.00  0.00    +0.000 C 
BRANCH  23  24
ATOM     24  C   UNL     1       7.208   4.453  16.994  0.00  0.00    +0.000 C 
BRANCH  24  25
ATOM     25  C   UNL     1       6.713   5.397  15.916  0.00  0.00    +0.000 C 
BRANCH  25  26
ATOM     26  O   UNL     1       7.662   5.469  14.861  0.00  0.00    +0.000 OA
ATOM     27  H   UNL     1       7.959   6.393  14.796  0.00  0.00    +0.000 HD
ENDBRANCH  25  26
ENDBRANCH  24  25
ENDBRANCH  23  24
ENDBRANCH  22  23
ENDBRANCH   1  22
TORSDOF 6
ENDMDL
MODEL 9
REMARK VINA RESULT:      -6.6      7.860     10.913
REMARK  Name = 
REMARK  6 active torsions:
REMARK  status: ('A' for Active; 'I' for Inactive)
REMARK    1  A    between atoms: O_1  and  C_2
REMARK    2  A    between atoms: C_2  and  C_3
REMARK    3  A    between atoms: C_3  and  C_4
REMARK    4  A    between atoms: C_4  and  O_5
REMARK    5  A    between atoms: O_5  and  C_6
REMARK    6  A    between atoms: C_9  and  C_10
REMARK                            x       y       z     vdW  Elec       q    Type
REMARK                         _______ _______ _______ _____ _____    ______ ____
ROOT
ATOM      1  C   UNL     1      -3.410  11.454  17.478  0.00  0.00    +0.000 A 
ATOM      2  N   UNL     1      -2.256  11.243  18.048  0.00  0.00    +0.000 NA
ATOM      3  N   UNL     1      -2.240  11.770  19.349  0.00  0.00    +0.000 N 
ATOM      4  C   UNL     1      -1.192  12.086  20.215  0.00  0.00    +0.000 A 
ATOM      5  N   UNL     1      -1.419  13.352  20.567  0.00  0.00    +0.000 NA
ATOM      6  N   UNL     1      -2.776  13.531  20.542  0.00  0.00    +0.000 NA
ATOM      7  C   UNL     1      -3.276  12.497  19.907  0.00  0.00    +0.000 A 
ATOM      8  C   UNL     1      -4.563  12.241  19.429  0.00  0.00    +0.000 A 
ATOM      9  C   UNL     1      -4.656  11.938  18.121  0.00  0.00    +0.000 A 
ATOM     10  C   UNL     1      -6.047  12.056  17.552  0.00  0.00    +0.000 C 
ATOM     11  C   UNL     1      -6.898  10.984  18.251  0.00  0.00    +0.000 C 
ATOM     12  C   UNL     1      -6.750  11.129  19.786  0.00  0.00    +0.000 C 
ATOM     13  C   UNL     1      -5.889  12.380  20.137  0.00  0.00    +0.000 C 
ATOM     14  C   UNL     1      -6.558  13.613  19.525  0.00  0.00    +0.000 C 
ATOM     15  C   UNL     1      -6.604  13.451  17.979  0.00  0.00    +0.000 C 
ENDROOT
BRANCH   4  16
ATOM     16  C   UNL     1      -0.444  11.216  21.132  0.00  0.00    +0.000 A 
ATOM     17  C   UNL     1       0.564  10.338  20.724  0.00  0.00    +0.000 A 
ATOM     18  C   UNL     1       1.043   9.352  21.603  0.00  0.00    +0.000 A 
ATOM     19  C   UNL     1       0.520   9.229  22.891  0.00  0.00    +0.000 A 
ATOM     20  C   UNL     1      -0.495  10.081  23.305  0.00  0.00    +0.000 A 
ATOM     21  C   UNL     1      -0.970  11.061  22.434  0.00  0.00    +0.000 A 
ENDBRANCH   4  16
BRANCH   1  22
ATOM     22  O   UNL     1      -3.717  11.225  16.182  0.00  0.00    +0.000 OA
BRANCH  22  23
ATOM     23  C   UNL     1      -3.236  10.049  15.517  0.00  0.00    +0.000 C 
BRANCH  23  24
ATOM     24  C   UNL     1      -3.838  10.043  14.105  0.00  0.00    +0.000 C 
BRANCH  24  25
ATOM     25  C   UNL     1      -2.836   9.598  13.058  0.00  0.00    +0.000 C 
BRANCH  25  26
ATOM     26  O   UNL     1      -3.434   9.629  11.770  0.00  0.00    +0.000 OA
ATOM     27  H   UNL     1      -2.947   9.002  11.207  0.00  0.00    +0.000 HD
ENDBRANCH  25  26
ENDBRANCH  24  25
ENDBRANCH  23  24
ENDBRANCH  22  23
ENDBRANCH   1  22
TORSDOF 6
ENDMDL
