MODEL 1
REMARK VINA RESULT:      -8.0      0.000      0.000
REMARK  Name = 
REMARK  8 active torsions:
REMARK  status: ('A' for Active; 'I' for Inactive)
REMARK    1  A    between atoms: C_1  and  S_2
REMARK    2  A    between atoms: S_2  and  C_3
REMARK    3  A    between atoms: C_6  and  C_7
REMARK    4  A    between atoms: C_10  and  C_11
REMARK    5  A    between atoms: C_11  and  O_12
REMARK    6  A    between atoms: C_11  and  C_13
REMARK    7  A    between atoms: C_16  and  S_17
REMARK    8  A    between atoms: S_17  and  C_18
REMARK                            x       y       z     vdW  Elec       q    Type
REMARK                         _______ _______ _______ _____ _____    ______ ____
ROOT
ATOM      1  C   UNL     1       2.876   7.255  18.882  0.00  0.00    +0.000 C 
ATOM      2  C   UNL     1       3.153   5.997  19.252  0.00  0.00    +0.000 C 
ATOM      3  C   UNL     1       4.439   5.509  18.726  0.00  0.00    +0.000 C 
ATOM      4  C   UNL     1       4.437   4.166  18.765  0.00  0.00    +0.000 C 
ATOM      5  C   UNL     1       3.436   3.802  19.781  0.00  0.00    +0.000 A 
ATOM      6  C   UNL     1       3.364   2.606  20.484  0.00  0.00    +0.000 A 
ATOM      7  C   UNL     1       2.314   2.446  21.382  0.00  0.00    +0.000 A 
ATOM      8  C   UNL     1       1.345   3.455  21.512  0.00  0.00    +0.000 A 
ATOM      9  C   UNL     1       1.456   4.677  20.820  0.00  0.00    +0.000 A 
ATOM     10  C   UNL     1       2.554   4.877  20.005  0.00  0.00    +0.000 A 
ENDROOT
BRANCH   1  14
ATOM     11  C   UNL     1       0.018  10.342  19.572  0.00  0.00    +0.000 A 
ATOM     12  C   UNL     1       0.406   9.504  20.623  0.00  0.00    +0.000 A 
ATOM     13  C   UNL     1       1.309   8.458  20.412  0.00  0.00    +0.000 A 
ATOM     14  C   UNL     1       1.808   8.214  19.140  0.00  0.00    +0.000 A 
ATOM     15  C   UNL     1       1.425   9.062  18.083  0.00  0.00    +0.000 A 
ATOM     16  C   UNL     1       0.537  10.119  18.296  0.00  0.00    +0.000 A 
BRANCH  11  18
ATOM     17  C   UNL     1      -2.333  11.386  18.563  0.00  0.00    +0.000 C 
ATOM     18  S   UNL     1      -1.147  11.648  19.908  0.00  0.00    +0.000 S 
ENDBRANCH  11  18
ENDBRANCH   1  14
BRANCH   4  19
ATOM     19  C   UNL     1       4.447   3.351  17.489  0.00  0.00    +0.000 C 
BRANCH  19  20
ATOM     20  C   UNL     1       5.302   4.011  16.441  0.00  0.00    +0.000 A 
ATOM     21  C   UNL     1       4.824   4.127  15.131  0.00  0.00    +0.000 A 
ATOM     22  C   UNL     1       5.673   4.561  14.120  0.00  0.00    +0.000 A 
ATOM     23  C   UNL     1       7.003   4.900  14.397  0.00  0.00    +0.000 A 
ATOM     24  C   UNL     1       7.453   4.861  15.721  0.00  0.00    +0.000 A 
ATOM     25  C   UNL     1       6.607   4.438  16.740  0.00  0.00    +0.000 A 
BRANCH  23  26
ATOM     26  S   UNL     1       8.044   5.260  12.991  0.00  0.00    +0.000 S 
ATOM     27  C   UNL     1       7.289   4.272  11.680  0.00  0.00    +0.000 C 
ENDBRANCH  23  26
ENDBRANCH  19  20
BRANCH  19  28
ATOM     28  O   UNL     1       3.111   3.158  17.007  0.00  0.00    +0.000 OA
ATOM     29  H   UNL     1       2.576   2.813  17.736  0.00  0.00    +0.000 HD
ENDBRANCH  19  28
ENDBRANCH   4  19
TORSDOF 6
ENDMDL
MODEL 2
REMARK VINA RESULT:      -7.9      3.763      9.377
REMARK  Name = 
REMARK  8 active torsions:
REMARK  status: ('A' for Active; 'I' for Inactive)
REMARK    1  A    between atoms: C_1  and  S_2
REMARK    2  A    between atoms: S_2  and  C_3
REMARK    3  A    between atoms: C_6  and  C_7
REMARK    4  A    between atoms: C_10  and  C_11
REMARK    5  A    between atoms: C_11  and  O_12
REMARK    6  A    between atoms: C_11  and  C_13
REMARK    7  A    between atoms: C_16  and  S_17
REMARK    8  A    between atoms: S_17  and  C_18
REMARK                            x       y       z     vdW  Elec       q    Type
REMARK                         _______ _______ _______ _____ _____    ______ ____
ROOT
ATOM      1  C   UNL     1       2.151   7.865  18.156  0.00  0.00    +0.000 C 
ATOM      2  C   UNL     1       1.553   8.858  18.829  0.00  0.00    +0.000 C 
ATOM      3  C   UNL     1       1.277  10.040  17.994  0.00  0.00    +0.000 C 
ATOM      4  C   UNL     1       1.095  11.101  18.798  0.00  0.00    +0.000 C 
ATOM      5  C   UNL     1       0.712  10.544  20.106  0.00  0.00    +0.000 A 
ATOM      6  C   UNL     1       0.020  11.199  21.116  0.00  0.00    +0.000 A 
ATOM      7  C   UNL     1      -0.215  10.502  22.296  0.00  0.00    +0.000 A 
ATOM      8  C   UNL     1       0.290   9.201  22.452  0.00  0.00    +0.000 A 
ATOM      9  C   UNL     1       0.955   8.538  21.402  0.00  0.00    +0.000 A 
ATOM     10  C   UNL     1       1.100   9.192  20.194  0.00  0.00    +0.000 A 
ENDROOT
BRANCH   1  14
ATOM     11  C   UNL     1       3.637   4.053  19.352  0.00  0.00    +0.000 A 
ATOM     12  C   UNL     1       4.061   4.619  18.144  0.00  0.00    +0.000 A 
ATOM     13  C   UNL     1       3.556   5.848  17.711  0.00  0.00    +0.000 A 
ATOM     14  C   UNL     1       2.593   6.509  18.460  0.00  0.00    +0.000 A 
ATOM     15  C   UNL     1       2.172   5.945  19.679  0.00  0.00    +0.000 A 
ATOM     16  C   UNL     1       2.690   4.726  20.123  0.00  0.00    +0.000 A 
BRANCH  11  18
ATOM     17  C   UNL     1       3.609   1.407  18.558  0.00  0.00    +0.000 C 
ATOM     18  S   UNL     1       4.312   2.478  19.839  0.00  0.00    +0.000 S 
ENDBRANCH  11  18
ENDBRANCH   1  14
BRANCH   4  19
ATOM     19  C   UNL     1       2.082  12.250  18.804  0.00  0.00    +0.000 C 
BRANCH  19  20
ATOM     20  C   UNL     1       1.407  13.530  19.217  0.00  0.00    +0.000 A 
ATOM     21  C   UNL     1       0.231  13.930  18.575  0.00  0.00    +0.000 A 
ATOM     22  C   UNL     1      -0.295  15.194  18.815  0.00  0.00    +0.000 A 
ATOM     23  C   UNL     1       0.333  16.073  19.706  0.00  0.00    +0.000 A 
ATOM     24  C   UNL     1       1.463  15.639  20.407  0.00  0.00    +0.000 A 
ATOM     25  C   UNL     1       1.989  14.373  20.179  0.00  0.00    +0.000 A 
BRANCH  23  26
ATOM     26  S   UNL     1      -0.326  17.732  19.787  0.00  0.00    +0.000 S 
ATOM     27  C   UNL     1      -1.122  17.917  18.176  0.00  0.00    +0.000 C 
ENDBRANCH  23  26
ENDBRANCH  19  20
BRANCH  19  28
ATOM     28  O   UNL     1       2.695  12.391  17.517  0.00  0.00    +0.000 OA
ATOM     29  H   UNL     1       3.441  11.775  17.470  0.00  0.00    +0.000 HD
ENDBRANCH  19  28
ENDBRANCH   4  19
TORSDOF 6
ENDMDL
MODEL 3
REMARK VINA RESULT:      -7.9      3.884      8.760
REMARK  Name = 
REMARK  8 active torsions:
REMARK  status: ('A' for Active; 'I' for Inactive)
REMARK    1  A    between atoms: C_1  and  S_2
REMARK    2  A    between atoms: S_2  and  C_3
REMARK    3  A    between atoms: C_6  and  C_7
REMARK    4  A    between atoms: C_10  and  C_11
REMARK    5  A    between atoms: C_11  and  O_12
REMARK    6  A    between atoms: C_11  and  C_13
REMARK    7  A    between atoms: C_16  and  S_17
REMARK    8  A    between atoms: S_17  and  C_18
REMARK                            x       y       z     vdW  Elec       q    Type
REMARK                         _______ _______ _______ _____ _____    ______ ____
ROOT
ATOM      1  C   UNL     1       1.254   8.954  18.239  0.00  0.00    +0.000 C 
ATOM      2  C   UNL     1       0.452   9.676  19.035  0.00  0.00    +0.000 C 
ATOM      3  C   UNL     1      -0.523  10.490  18.288  0.00  0.00    +0.000 C 
ATOM      4  C   UNL     1      -0.968  11.470  19.091  0.00  0.00    +0.000 C 
ATOM      5  C   UNL     1      -0.729  10.996  20.463  0.00  0.00    +0.000 A 
ATOM      6  C   UNL     1      -1.377  11.425  21.615  0.00  0.00    +0.000 A 
ATOM      7  C   UNL     1      -0.977  10.871  22.826  0.00  0.00    +0.000 A 
ATOM      8  C   UNL     1       0.085   9.953  22.859  0.00  0.00    +0.000 A 
ATOM      9  C   UNL     1       0.704   9.500  21.677  0.00  0.00    +0.000 A 
ATOM     10  C   UNL     1       0.240   9.973  20.465  0.00  0.00    +0.000 A 
ENDROOT
BRANCH   1  14
ATOM     11  C   UNL     1       4.240   5.921  18.486  0.00  0.00    +0.000 A 
ATOM     12  C   UNL     1       3.268   6.026  19.488  0.00  0.00    +0.000 A 
ATOM     13  C   UNL     1       2.304   7.038  19.451  0.00  0.00    +0.000 A 
ATOM     14  C   UNL     1       2.323   7.981  18.433  0.00  0.00    +0.000 A 
ATOM     15  C   UNL     1       3.294   7.871  17.420  0.00  0.00    +0.000 A 
ATOM     16  C   UNL     1       4.246   6.849  17.445  0.00  0.00    +0.000 A 
BRANCH  11  18
ATOM     17  C   UNL     1       4.415   3.268  19.234  0.00  0.00    +0.000 C 
ATOM     18  S   UNL     1       5.446   4.615  18.602  0.00  0.00    +0.000 S 
ENDBRANCH  11  18
ENDBRANCH   1  14
BRANCH   4  19
ATOM     19  C   UNL     1      -0.643  12.921  18.799  0.00  0.00    +0.000 C 
BRANCH  19  20
ATOM     20  C   UNL     1       0.761  13.249  19.228  0.00  0.00    +0.000 A 
ATOM     21  C   UNL     1       0.988  13.782  20.502  0.00  0.00    +0.000 A 
ATOM     22  C   UNL     1       2.248  14.262  20.837  0.00  0.00    +0.000 A 
ATOM     23  C   UNL     1       3.304  14.208  19.919  0.00  0.00    +0.000 A 
ATOM     24  C   UNL     1       3.093  13.601  18.677  0.00  0.00    +0.000 A 
ATOM     25  C   UNL     1       1.838  13.109  18.337  0.00  0.00    +0.000 A 
BRANCH  23  26
ATOM     26  S   UNL     1       4.819  15.025  20.396  0.00  0.00    +0.000 S 
ATOM     27  C   UNL     1       5.675  15.216  18.817  0.00  0.00    +0.000 C 
ENDBRANCH  23  26
ENDBRANCH  19  20
BRANCH  19  28
ATOM     28  O   UNL     1      -1.587  13.786  19.443  0.00  0.00    +0.000 OA
ATOM     29  H   UNL     1      -2.334  13.917  18.840  0.00  0.00    +0.000 HD
ENDBRANCH  19  28
ENDBRANCH   4  19
TORSDOF 6
ENDMDL
MODEL 4
REMARK VINA RESULT:      -7.8      2.505      3.205
REMARK  Name = 
REMARK  8 active torsions:
REMARK  status: ('A' for Active; 'I' for Inactive)
REMARK    1  A    between atoms: C_1  and  S_2
REMARK    2  A    between atoms: S_2  and  C_3
REMARK    3  A    between atoms: C_6  and  C_7
REMARK    4  A    between atoms: C_10  and  C_11
REMARK    5  A    between atoms: C_11  and  O_12
REMARK    6  A    between atoms: C_11  and  C_13
REMARK    7  A    between atoms: C_16  and  S_17
REMARK    8  A    between atoms: S_17  and  C_18
REMARK                            x       y       z     vdW  Elec       q    Type
REMARK                         _______ _______ _______ _____ _____    ______ ____
ROOT
ATOM      1  C   UNL     1       3.175   7.077  19.495  0.00  0.00    +0.000 C 
ATOM      2  C   UNL     1       3.404   5.770  19.304  0.00  0.00    +0.000 C 
ATOM      3  C   UNL     1       4.766   5.359  19.688  0.00  0.00    +0.000 C 
ATOM      4  C   UNL     1       5.048   4.193  19.083  0.00  0.00    +0.000 C 
ATOM      5  C   UNL     1       3.745   3.585  18.770  0.00  0.00    +0.000 A 
ATOM      6  C   UNL     1       3.490   2.238  18.546  0.00  0.00    +0.000 A 
ATOM      7  C   UNL     1       2.187   1.870  18.229  0.00  0.00    +0.000 A 
ATOM      8  C   UNL     1       1.196   2.855  18.094  0.00  0.00    +0.000 A 
ATOM      9  C   UNL     1       1.464   4.213  18.363  0.00  0.00    +0.000 A 
ATOM     10  C   UNL     1       2.733   4.566  18.776  0.00  0.00    +0.000 A 
ENDROOT
BRANCH   1  14
ATOM     11  C   UNL     1       0.114   9.994  18.951  0.00  0.00    +0.000 A 
ATOM     12  C   UNL     1       0.330   9.438  20.217  0.00  0.00    +0.000 A 
ATOM     13  C   UNL     1       1.299   8.450  20.411  0.00  0.00    +0.000 A 
ATOM     14  C   UNL     1       2.039   7.977  19.336  0.00  0.00    +0.000 A 
ATOM     15  C   UNL     1       1.828   8.542  18.063  0.00  0.00    +0.000 A 
ATOM     16  C   UNL     1       0.873   9.544  17.871  0.00  0.00    +0.000 A 
BRANCH  11  18
ATOM     17  C   UNL     1      -2.218  10.452  17.542  0.00  0.00    +0.000 C 
ATOM     18  S   UNL     1      -1.147  11.241  18.771  0.00  0.00    +0.000 S 
ENDBRANCH  11  18
ENDBRANCH   1  14
BRANCH   4  19
ATOM     19  C   UNL     1       6.118   4.112  18.014  0.00  0.00    +0.000 C 
BRANCH  19  20
ATOM     20  C   UNL     1       6.770   5.452  17.809  0.00  0.00    +0.000 A 
ATOM     21  C   UNL     1       7.761   5.883  18.698  0.00  0.00    +0.000 A 
ATOM     22  C   UNL     1       8.234   7.188  18.630  0.00  0.00    +0.000 A 
ATOM     23  C   UNL     1       7.740   8.079  17.670  0.00  0.00    +0.000 A 
ATOM     24  C   UNL     1       6.809   7.621  16.731  0.00  0.00    +0.000 A 
ATOM     25  C   UNL     1       6.339   6.314  16.787  0.00  0.00    +0.000 A 
BRANCH  23  26
ATOM     26  S   UNL     1       8.283   9.776  17.803  0.00  0.00    +0.000 S 
ATOM     27  C   UNL     1       9.192   9.776  19.364  0.00  0.00    +0.000 C 
ENDBRANCH  23  26
ENDBRANCH  19  20
BRANCH  19  28
ATOM     28  O   UNL     1       5.566   3.622  16.787  0.00  0.00    +0.000 OA
ATOM     29  H   UNL     1       4.741   3.157  16.992  0.00  0.00    +0.000 HD
ENDBRANCH  19  28
ENDBRANCH   4  19
TORSDOF 6
ENDMDL
MODEL 5
REMARK VINA RESULT:      -7.8      4.280     10.893
REMARK  Name = 
REMARK  8 active torsions:
REMARK  status: ('A' for Active; 'I' for Inactive)
REMARK    1  A    between atoms: C_1  and  S_2
REMARK    2  A    between atoms: S_2  and  C_3
REMARK    3  A    between atoms: C_6  and  C_7
REMARK    4  A    between atoms: C_10  and  C_11
REMARK    5  A    between atoms: C_11  and  O_12
REMARK    6  A    between atoms: C_11  and  C_13
REMARK    7  A    between atoms: C_16  and  S_17
REMARK    8  A    between atoms: S_17  and  C_18
REMARK                            x       y       z     vdW  Elec       q    Type
REMARK                         _______ _______ _______ _____ _____    ______ ____
ROOT
ATOM      1  C   UNL     1       1.599   8.403  20.739  0.00  0.00    +0.000 C 
ATOM      2  C   UNL     1       0.777   9.437  20.511  0.00  0.00    +0.000 C 
ATOM      3  C   UNL     1       0.767  10.421  21.607  0.00  0.00    +0.000 C 
ATOM      4  C   UNL     1      -0.353  11.158  21.512  0.00  0.00    +0.000 C 
ATOM      5  C   UNL     1      -0.781  11.046  20.108  0.00  0.00    +0.000 A 
ATOM      6  C   UNL     1      -1.600  11.930  19.418  0.00  0.00    +0.000 A 
ATOM      7  C   UNL     1      -1.915  11.624  18.098  0.00  0.00    +0.000 A 
ATOM      8  C   UNL     1      -1.450  10.428  17.528  0.00  0.00    +0.000 A 
ATOM      9  C   UNL     1      -0.589   9.562  18.231  0.00  0.00    +0.000 A 
ATOM     10  C   UNL     1      -0.193   9.916  19.507  0.00  0.00    +0.000 A 
ENDROOT
BRANCH   1  14
ATOM     11  C   UNL     1       2.530   5.003  18.341  0.00  0.00    +0.000 A 
ATOM     12  C   UNL     1       2.052   4.828  19.645  0.00  0.00    +0.000 A 
ATOM     13  C   UNL     1       1.779   5.927  20.464  0.00  0.00    +0.000 A 
ATOM     14  C   UNL     1       2.018   7.214  20.005  0.00  0.00    +0.000 A 
ATOM     15  C   UNL     1       2.491   7.393  18.691  0.00  0.00    +0.000 A 
ATOM     16  C   UNL     1       2.745   6.296  17.864  0.00  0.00    +0.000 A 
BRANCH  11  18
ATOM     17  C   UNL     1       3.035   2.305  18.651  0.00  0.00    +0.000 C 
ATOM     18  S   UNL     1       2.868   3.559  17.355  0.00  0.00    +0.000 S 
ENDBRANCH  11  18
ENDBRANCH   1  14
BRANCH   4  19
ATOM     19  C   UNL     1      -1.434  11.068  22.569  0.00  0.00    +0.000 C 
BRANCH  19  20
ATOM     20  C   UNL     1      -1.835  12.439  23.041  0.00  0.00    +0.000 A 
ATOM     21  C   UNL     1      -0.893  13.474  23.039  0.00  0.00    +0.000 A 
ATOM     22  C   UNL     1      -1.196  14.688  23.644  0.00  0.00    +0.000 A 
ATOM     23  C   UNL     1      -2.442  14.896  24.247  0.00  0.00    +0.000 A 
ATOM     24  C   UNL     1      -3.410  13.889  24.175  0.00  0.00    +0.000 A 
ATOM     25  C   UNL     1      -3.118  12.675  23.563  0.00  0.00    +0.000 A 
BRANCH  23  26
ATOM     26  S   UNL     1      -2.644  16.422  25.154  0.00  0.00    +0.000 S 
ATOM     27  C   UNL     1      -4.405  16.769  24.951  0.00  0.00    +0.000 C 
ENDBRANCH  23  26
ENDBRANCH  19  20
BRANCH  19  28
ATOM     28  O   UNL     1      -0.995  10.260  23.668  0.00  0.00    +0.000 OA
ATOM     29  H   UNL     1      -1.779   9.904  24.111  0.00  0.00    +0.000 HD
ENDBRANCH  19  28
ENDBRANCH   4  19
TORSDOF 6
ENDMDL
MODEL 6
REMARK VINA RESULT:      -7.8      4.148     10.919
REMARK  Name = 
REMARK  8 active torsions:
REMARK  status: ('A' for Active; 'I' for Inactive)
REMARK    1  A    between atoms: C_1  and  S_2
REMARK    2  A    between atoms: S_2  and  C_3
REMARK    3  A    between atoms: C_6  and  C_7
REMARK    4  A    between atoms: C_10  and  C_11
REMARK    5  A    between atoms: C_11  and  O_12
REMARK    6  A    between atoms: C_11  and  C_13
REMARK    7  A    between atoms: C_16  and  S_17
REMARK    8  A    between atoms: S_17  and  C_18
REMARK                            x       y       z     vdW  Elec       q    Type
REMARK                         _______ _______ _______ _____ _____    ______ ____
ROOT
ATOM      1  C   UNL     1       1.706   8.535  20.365  0.00  0.00    +0.000 C 
ATOM      2  C   UNL     1       0.823   9.538  20.254  0.00  0.00    +0.000 C 
ATOM      3  C   UNL     1       0.871  10.478  21.388  0.00  0.00    +0.000 C 
ATOM      4  C   UNL     1      -0.283  11.166  21.424  0.00  0.00    +0.000 C 
ATOM      5  C   UNL     1      -0.831  11.088  20.060  0.00  0.00    +0.000 A 
ATOM      6  C   UNL     1      -1.747  11.960  19.483  0.00  0.00    +0.000 A 
ATOM      7  C   UNL     1      -2.167  11.690  18.185  0.00  0.00    +0.000 A 
ATOM      8  C   UNL     1      -1.706  10.538  17.527  0.00  0.00    +0.000 A 
ATOM      9  C   UNL     1      -0.748   9.687  18.113  0.00  0.00    +0.000 A 
ATOM     10  C   UNL     1      -0.254  10.010  19.362  0.00  0.00    +0.000 A 
ENDROOT
BRANCH   1  14
ATOM     11  C   UNL     1       3.167   5.143  18.235  0.00  0.00    +0.000 A 
ATOM     12  C   UNL     1       3.242   6.416  17.656  0.00  0.00    +0.000 A 
ATOM     13  C   UNL     1       2.732   7.537  18.317  0.00  0.00    +0.000 A 
ATOM     14  C   UNL     1       2.106   7.395  19.548  0.00  0.00    +0.000 A 
ATOM     15  C   UNL     1       2.036   6.117  20.135  0.00  0.00    +0.000 A 
ATOM     16  C   UNL     1       2.564   4.999  19.485  0.00  0.00    +0.000 A 
BRANCH  11  18
ATOM     17  C   UNL     1       5.040   4.592  16.282  0.00  0.00    +0.000 C 
ATOM     18  S   UNL     1       3.825   3.756  17.333  0.00  0.00    +0.000 S 
ENDBRANCH  11  18
ENDBRANCH   1  14
BRANCH   4  19
ATOM     19  C   UNL     1      -1.259  10.986  22.568  0.00  0.00    +0.000 C 
BRANCH  19  20
ATOM     20  C   UNL     1      -1.805  12.314  23.017  0.00  0.00    +0.000 A 
ATOM     21  C   UNL     1      -0.952  13.420  23.102  0.00  0.00    +0.000 A 
ATOM     22  C   UNL     1      -1.399  14.597  23.691  0.00  0.00    +0.000 A 
ATOM     23  C   UNL     1      -2.702  14.697  24.191  0.00  0.00    +0.000 A 
ATOM     24  C   UNL     1      -3.577  13.618  24.032  0.00  0.00    +0.000 A 
ATOM     25  C   UNL     1      -3.141  12.440  23.435  0.00  0.00    +0.000 A 
BRANCH  23  26
ATOM     26  S   UNL     1      -3.098  16.188  25.092  0.00  0.00    +0.000 S 
ATOM     27  C   UNL     1      -4.807  16.503  24.599  0.00  0.00    +0.000 C 
ENDBRANCH  23  26
ENDBRANCH  19  20
BRANCH  19  28
ATOM     28  O   UNL     1      -0.633  10.299  23.659  0.00  0.00    +0.000 OA
ATOM     29  H   UNL     1       0.056  10.874  24.021  0.00  0.00    +0.000 HD
ENDBRANCH  19  28
ENDBRANCH   4  19
TORSDOF 6
ENDMDL
MODEL 7
REMARK VINA RESULT:      -7.7      4.096     10.797
REMARK  Name = 
REMARK  8 active torsions:
REMARK  status: ('A' for Active; 'I' for Inactive)
REMARK    1  A    between atoms: C_1  and  S_2
REMARK    2  A    between atoms: S_2  and  C_3
REMARK    3  A    between atoms: C_6  and  C_7
REMARK    4  A    between atoms: C_10  and  C_11
REMARK    5  A    between atoms: C_11  and  O_12
REMARK    6  A    between atoms: C_11  and  C_13
REMARK    7  A    between atoms: C_16  and  S_17
REMARK    8  A    between atoms: S_17  and  C_18
REMARK                            x       y       z     vdW  Elec       q    Type
REMARK                         _______ _______ _______ _____ _____    ______ ____
ROOT
ATOM      1  C   UNL     1       1.692   8.283  20.478  0.00  0.00    +0.000 C 
ATOM      2  C   UNL     1       0.863   9.329  20.351  0.00  0.00    +0.000 C 
ATOM      3  C   UNL     1       0.908  10.246  21.503  0.00  0.00    +0.000 C 
ATOM      4  C   UNL     1      -0.213  10.988  21.505  0.00  0.00    +0.000 C 
ATOM      5  C   UNL     1      -0.708  10.959  20.119  0.00  0.00    +0.000 A 
ATOM      6  C   UNL     1      -1.557  11.882  19.522  0.00  0.00    +0.000 A 
ATOM      7  C   UNL     1      -1.936  11.654  18.203  0.00  0.00    +0.000 A 
ATOM      8  C   UNL     1      -1.503  10.493  17.543  0.00  0.00    +0.000 A 
ATOM      9  C   UNL     1      -0.611   9.587  18.151  0.00  0.00    +0.000 A 
ATOM     10  C   UNL     1      -0.153   9.866  19.425  0.00  0.00    +0.000 A 
ENDROOT
BRANCH   1  14
ATOM     11  C   UNL     1       3.084   4.867  18.342  0.00  0.00    +0.000 A 
ATOM     12  C   UNL     1       3.215   6.142  17.780  0.00  0.00    +0.000 A 
ATOM     13  C   UNL     1       2.728   7.272  18.442  0.00  0.00    +0.000 A 
ATOM     14  C   UNL     1       2.071   7.139  19.657  0.00  0.00    +0.000 A 
ATOM     15  C   UNL     1       1.946   5.858  20.228  0.00  0.00    +0.000 A 
ATOM     16  C   UNL     1       2.450   4.730  19.577  0.00  0.00    +0.000 A 
BRANCH  11  18
ATOM     17  C   UNL     1       3.636   2.186  18.716  0.00  0.00    +0.000 C 
ATOM     18  S   UNL     1       3.716   3.467  17.438  0.00  0.00    +0.000 S 
ENDBRANCH  11  18
ENDBRANCH   1  14
BRANCH   4  19
ATOM     19  C   UNL     1      -1.242  10.836  22.606  0.00  0.00    +0.000 C 
BRANCH  19  20
ATOM     20  C   UNL     1      -1.720  12.182  23.079  0.00  0.00    +0.000 A 
ATOM     21  C   UNL     1      -3.016  12.316  23.587  0.00  0.00    +0.000 A 
ATOM     22  C   UNL     1      -3.531  13.580  23.850  0.00  0.00    +0.000 A 
ATOM     23  C   UNL     1      -2.761  14.727  23.625  0.00  0.00    +0.000 A 
ATOM     24  C   UNL     1      -1.438  14.585  23.194  0.00  0.00    +0.000 A 
ATOM     25  C   UNL     1      -0.913  13.323  22.938  0.00  0.00    +0.000 A 
BRANCH  23  26
ATOM     26  S   UNL     1      -3.593  16.297  23.818  0.00  0.00    +0.000 S 
ATOM     27  C   UNL     1      -2.787  16.990  25.278  0.00  0.00    +0.000 C 
ENDBRANCH  23  26
ENDBRANCH  19  20
BRANCH  19  28
ATOM     28  O   UNL     1      -0.704  10.075  23.695  0.00  0.00    +0.000 OA
ATOM     29  H   UNL     1       0.051   9.569  23.364  0.00  0.00    +0.000 HD
ENDBRANCH  19  28
ENDBRANCH   4  19
TORSDOF 6
ENDMDL
MODEL 8
REMARK VINA RESULT:      -7.7      3.635      9.593
REMARK  Name = 
REMARK  8 active torsions:
REMARK  status: ('A' for Active; 'I' for Inactive)
REMARK    1  A    between atoms: C_1  and  S_2
REMARK    2  A    between atoms: S_2  and  C_3
REMARK    3  A    between atoms: C_6  and  C_7
REMARK    4  A    between atoms: C_10  and  C_11
REMARK    5  A    between atoms: C_11  and  O_12
REMARK    6  A    between atoms: C_11  and  C_13
REMARK    7  A    between atoms: C_16  and  S_17
REMARK    8  A    between atoms: S_17  and  C_18
REMARK                            x       y       z     vdW  Elec       q    Type
REMARK                         _______ _______ _______ _____ _____    ______ ____
ROOT
ATOM      1  C   UNL     1       2.291   7.924  18.536  0.00  0.00    +0.000 C 
ATOM      2  C   UNL     1       1.604   8.924  19.106  0.00  0.00    +0.000 C 
ATOM      3  C   UNL     1       1.294  10.019  18.171  0.00  0.00    +0.000 C 
ATOM      4  C   UNL     1       1.012  11.124  18.882  0.00  0.00    +0.000 C 
ATOM      5  C   UNL     1       0.607  10.643  20.213  0.00  0.00    +0.000 A 
ATOM      6  C   UNL     1      -0.167  11.327  21.142  0.00  0.00    +0.000 A 
ATOM      7  C   UNL     1      -0.411  10.707  22.363  0.00  0.00    +0.000 A 
ATOM      8  C   UNL     1       0.165   9.457  22.639  0.00  0.00    +0.000 A 
ATOM      9  C   UNL     1       0.915   8.761  21.670  0.00  0.00    +0.000 A 
ATOM     10  C   UNL     1       1.072   9.330  20.422  0.00  0.00    +0.000 A 
ENDROOT
BRANCH   1  14
ATOM     11  C   UNL     1       3.637   3.982  19.444  0.00  0.00    +0.000 A 
ATOM     12  C   UNL     1       2.639   4.575  20.225  0.00  0.00    +0.000 A 
ATOM     13  C   UNL     1       2.211   5.882  19.973  0.00  0.00    +0.000 A 
ATOM     14  C   UNL     1       2.801   6.626  18.961  0.00  0.00    +0.000 A 
ATOM     15  C   UNL     1       3.800   6.027  18.169  0.00  0.00    +0.000 A 
ATOM     16  C   UNL     1       4.214   4.715  18.407  0.00  0.00    +0.000 A 
BRANCH  11  18
ATOM     17  C   UNL     1       3.527   1.440  18.369  0.00  0.00    +0.000 C 
ATOM     18  S   UNL     1       4.144   2.318  19.828  0.00  0.00    +0.000 S 
ENDBRANCH  11  18
ENDBRANCH   1  14
BRANCH   4  19
ATOM     19  C   UNL     1       1.925  12.331  18.837  0.00  0.00    +0.000 C 
BRANCH  19  20
ATOM     20  C   UNL     1       1.197  13.568  19.286  0.00  0.00    +0.000 A 
ATOM     21  C   UNL     1       1.670  14.287  20.389  0.00  0.00    +0.000 A 
ATOM     22  C   UNL     1       0.905  15.316  20.926  0.00  0.00    +0.000 A 
ATOM     23  C   UNL     1      -0.333  15.655  20.366  0.00  0.00    +0.000 A 
ATOM     24  C   UNL     1      -0.764  14.989  19.214  0.00  0.00    +0.000 A 
ATOM     25  C   UNL     1       0.000  13.965  18.666  0.00  0.00    +0.000 A 
BRANCH  23  26
ATOM     26  S   UNL     1      -1.306  16.862  21.255  0.00  0.00    +0.000 S 
ATOM     27  C   UNL     1      -2.125  15.856  22.512  0.00  0.00    +0.000 C 
ENDBRANCH  23  26
ENDBRANCH  19  20
BRANCH  19  28
ATOM     28  O   UNL     1       2.461  12.506  17.519  0.00  0.00    +0.000 OA
ATOM     29  H   UNL     1       2.692  11.634  17.170  0.00  0.00    +0.000 HD
ENDBRANCH  19  28
ENDBRANCH   4  19
TORSDOF 6
ENDMDL
MODEL 9
REMARK VINA RESULT:      -7.7      3.681      9.524
REMARK  Name = 
REMARK  8 active torsions:
REMARK  status: ('A' for Active; 'I' for Inactive)
REMARK    1  A    between atoms: C_1  and  S_2
REMARK    2  A    between atoms: S_2  and  C_3
REMARK    3  A    between atoms: C_6  and  C_7
REMARK    4  A    between atoms: C_10  and  C_11
REMARK    5  A    between atoms: C_11  and  O_12
REMARK    6  A    between atoms: C_11  and  C_13
REMARK    7  A    between atoms: C_16  and  S_17
REMARK    8  A    between atoms: S_17  and  C_18
REMARK                            x       y       z     vdW  Elec       q    Type
REMARK                         _______ _______ _______ _____ _____    ______ ____
ROOT
ATOM      1  C   UNL     1       2.253   7.891  18.069  0.00  0.00    +0.000 C 
ATOM      2  C   UNL     1       1.627   8.856  18.757  0.00  0.00    +0.000 C 
ATOM      3  C   UNL     1       1.316  10.041  17.940  0.00  0.00    +0.000 C 
ATOM      4  C   UNL     1       1.103  11.084  18.759  0.00  0.00    +0.000 C 
ATOM      5  C   UNL     1       0.738  10.497  20.059  0.00  0.00    +0.000 A 
ATOM      6  C   UNL     1       0.028  11.117  21.079  0.00  0.00    +0.000 A 
ATOM      7  C   UNL     1      -0.186  10.396  22.249  0.00  0.00    +0.000 A 
ATOM      8  C   UNL     1       0.357   9.108  22.385  0.00  0.00    +0.000 A 
ATOM      9  C   UNL     1       1.041   8.480  21.325  0.00  0.00    +0.000 A 
ATOM     10  C   UNL     1       1.165   9.157  20.127  0.00  0.00    +0.000 A 
ENDROOT
BRANCH   1  14
ATOM     11  C   UNL     1       3.657   4.052  19.280  0.00  0.00    +0.000 A 
ATOM     12  C   UNL     1       4.489   4.897  18.536  0.00  0.00    +0.000 A 
ATOM     13  C   UNL     1       4.037   6.142  18.092  0.00  0.00    +0.000 A 
ATOM     14  C   UNL     1       2.734   6.544  18.353  0.00  0.00    +0.000 A 
ATOM     15  C   UNL     1       1.899   5.699  19.108  0.00  0.00    +0.000 A 
ATOM     16  C   UNL     1       2.356   4.463  19.570  0.00  0.00    +0.000 A 
BRANCH  11  18
ATOM     17  C   UNL     1       3.610   1.398  18.517  0.00  0.00    +0.000 C 
ATOM     18  S   UNL     1       4.294   2.473  19.804  0.00  0.00    +0.000 S 
ENDBRANCH  11  18
ENDBRANCH   1  14
BRANCH   4  19
ATOM     19  C   UNL     1       2.056  12.262  18.781  0.00  0.00    +0.000 C 
BRANCH  19  20
ATOM     20  C   UNL     1       1.362  13.500  19.280  0.00  0.00    +0.000 A 
ATOM     21  C   UNL     1       1.878  14.184  20.386  0.00  0.00    +0.000 A 
ATOM     22  C   UNL     1       1.147  15.213  20.968  0.00  0.00    +0.000 A 
ATOM     23  C   UNL     1      -0.099  15.586  20.452  0.00  0.00    +0.000 A 
ATOM     24  C   UNL     1      -0.574  14.955  19.298  0.00  0.00    +0.000 A 
ATOM     25  C   UNL     1       0.156  13.932  18.704  0.00  0.00    +0.000 A 
BRANCH  23  26
ATOM     26  S   UNL     1      -1.026  16.788  21.395  0.00  0.00    +0.000 S 
ATOM     27  C   UNL     1      -0.582  16.376  23.098  0.00  0.00    +0.000 C 
ENDBRANCH  23  26
ENDBRANCH  19  20
BRANCH  19  28
ATOM     28  O   UNL     1       2.614  12.480  17.480  0.00  0.00    +0.000 OA
ATOM     29  H   UNL     1       2.925  11.629  17.139  0.00  0.00    +0.000 HD
ENDBRANCH  19  28
ENDBRANCH   4  19
TORSDOF 6
ENDMDL
