MODEL 1
REMARK VINA RESULT:      -7.3      0.000      0.000
REMARK  Name = 
REMARK  16 active torsions:
REMARK  status: ('A' for Active; 'I' for Inactive)
REMARK    1  A    between atoms: C_1  and  C_2
REMARK    2  A    between atoms: C_5  and  C_6
REMARK    3  A    between atoms: C_6  and  C_7
REMARK    4  A    between atoms: C_6  and  O_8
REMARK    5  A    between atoms: C_6  and  C_9
REMARK    6  A    between atoms: C_9  and  C_10
REMARK    7  A    between atoms: C_10  and  C_11
REMARK    8  A    between atoms: C_11  and  C_12
REMARK    9  A    between atoms: C_12  and  C_13
REMARK   10  A    between atoms: C_12  and  C_14
REMARK   11  A    between atoms: C_12  and  N_15
REMARK   12  A    between atoms: N_15  and  C_16
REMARK   13  A    between atoms: C_16  and  N_18
REMARK   14  A    between atoms: N_18  and  N_19
REMARK   15  A    between atoms: C_20  and  C_21
REMARK   16  A    between atoms: C_24  and  O_25
REMARK                            x       y       z     vdW  Elec       q    Type
REMARK                         _______ _______ _______ _____ _____    ______ ____
ROOT
ATOM      1  C   UNL     1       2.601   5.877  19.019  0.00  0.00    +0.000 C 
ATOM      2  C   UNL     1       4.028   5.833  19.599  0.00  0.00    +0.000 C 
ATOM      3  C   UNL     1       1.563   6.065  20.145  0.00  0.00    +0.000 C 
ENDROOT
BRANCH   1   4
ATOM      4  N   UNL     1       2.281   4.644  18.240  0.00  0.00    +0.000 N 
ATOM      5  H   UNL     1       1.777   4.784  17.380  0.00  0.00    +0.000 HD
BRANCH   4   6
ATOM      6  C   UNL     1       2.744   3.345  18.407  0.00  0.00    +0.000 C 
ATOM      7  S   UNL     1       1.939   2.069  19.143  0.00  0.00    +0.000 S 
BRANCH   6   8
ATOM      8  N   UNL     1       4.009   3.188  17.844  0.00  0.00    +0.000 N 
ATOM      9  H   UNL     1       4.841   3.328  18.405  0.00  0.00    +0.000 HD
BRANCH   8  10
ATOM     10  N   UNL     1       4.163   3.355  16.495  0.00  0.00    +0.000 NA
ATOM     11  C   UNL     1       4.967   4.273  16.053  0.00  0.00    +0.000 C 
BRANCH  11  12
ATOM     12  C   UNL     1       5.939   5.086  16.805  0.00  0.00    +0.000 A 
ATOM     13  C   UNL     1       6.919   4.499  17.622  0.00  0.00    +0.000 A 
ATOM     14  C   UNL     1       7.789   5.294  18.349  0.00  0.00    +0.000 A 
ATOM     15  C   UNL     1       7.715   6.675  18.222  0.00  0.00    +0.000 A 
ATOM     16  C   UNL     1       6.803   7.271  17.357  0.00  0.00    +0.000 A 
ATOM     17  C   UNL     1       5.907   6.471  16.639  0.00  0.00    +0.000 A 
BRANCH  15  18
ATOM     18  O   UNL     1       8.539   7.496  18.934  0.00  0.00    +0.000 OA
ATOM     19  H   UNL     1       9.444   7.390  18.602  0.00  0.00    +0.000 HD
ENDBRANCH  15  18
ENDBRANCH  11  12
ENDBRANCH   8  10
ENDBRANCH   6   8
ENDBRANCH   4   6
ENDBRANCH   1   4
BRANCH   1  20
ATOM     20  C   UNL     1       2.454   7.133  18.084  0.00  0.00    +0.000 C 
BRANCH  20  21
ATOM     21  C   UNL     1       2.125   8.422  18.842  0.00  0.00    +0.000 C 
BRANCH  21  22
ATOM     22  C   UNL     1       1.162   9.387  18.153  0.00  0.00    +0.000 C 
BRANCH  22  23
ATOM     23  C   UNL     1       0.396  10.257  19.200  0.00  0.00    +0.000 C 
ATOM     24  C   UNL     1       1.066  11.635  19.378  0.00  0.00    +0.000 C 
BRANCH  23  29
ATOM     25  C   UNL     1      -4.958  11.516  17.012  0.00  0.00    +0.000 C 
ATOM     26  C   UNL     1      -3.599  11.167  17.545  0.00  0.00    +0.000 C 
ATOM     27  C   UNL     1      -2.791  10.299  16.915  0.00  0.00    +0.000 C 
ATOM     28  C   UNL     1      -1.431   9.911  17.411  0.00  0.00    +0.000 C 
ATOM     29  C   UNL     1      -1.121  10.367  18.851  0.00  0.00    +0.000 C 
ATOM     30  C   UNL     1      -1.696  11.777  19.105  0.00  0.00    +0.000 C 
ATOM     31  C   UNL     1      -3.197  11.851  18.823  0.00  0.00    +0.000 C 
ENDBRANCH  23  29
BRANCH  23  32
ATOM     32  O   UNL     1       0.514   9.560  20.452  0.00  0.00    +0.000 OA
ATOM     33  H   UNL     1       0.731  10.205  21.147  0.00  0.00    +0.000 HD
ENDBRANCH  23  32
ENDBRANCH  22  23
ENDBRANCH  21  22
ENDBRANCH  20  21
ENDBRANCH   1  20
TORSDOF 12
ENDMDL
MODEL 2
REMARK VINA RESULT:      -7.0      1.331      1.728
REMARK  Name = 
REMARK  16 active torsions:
REMARK  status: ('A' for Active; 'I' for Inactive)
REMARK    1  A    between atoms: C_1  and  C_2
REMARK    2  A    between atoms: C_5  and  C_6
REMARK    3  A    between atoms: C_6  and  C_7
REMARK    4  A    between atoms: C_6  and  O_8
REMARK    5  A    between atoms: C_6  and  C_9
REMARK    6  A    between atoms: C_9  and  C_10
REMARK    7  A    between atoms: C_10  and  C_11
REMARK    8  A    between atoms: C_11  and  C_12
REMARK    9  A    between atoms: C_12  and  C_13
REMARK   10  A    between atoms: C_12  and  C_14
REMARK   11  A    between atoms: C_12  and  N_15
REMARK   12  A    between atoms: N_15  and  C_16
REMARK   13  A    between atoms: C_16  and  N_18
REMARK   14  A    between atoms: N_18  and  N_19
REMARK   15  A    between atoms: C_20  and  C_21
REMARK   16  A    between atoms: C_24  and  O_25
REMARK                            x       y       z     vdW  Elec       q    Type
REMARK                         _______ _______ _______ _____ _____    ______ ____
ROOT
ATOM      1  C   UNL     1       2.382   5.956  19.473  0.00  0.00    +0.000 C 
ATOM      2  C   UNL     1       1.518   5.195  18.450  0.00  0.00    +0.000 C 
ATOM      3  C   UNL     1       3.283   6.989  18.762  0.00  0.00    +0.000 C 
ENDROOT
BRANCH   1   4
ATOM      4  N   UNL     1       3.224   5.029  20.285  0.00  0.00    +0.000 N 
ATOM      5  H   UNL     1       3.892   5.464  20.900  0.00  0.00    +0.000 HD
BRANCH   4   6
ATOM      6  C   UNL     1       3.098   3.659  20.482  0.00  0.00    +0.000 C 
ATOM      7  S   UNL     1       1.914   2.868  21.369  0.00  0.00    +0.000 S 
BRANCH   6   8
ATOM      8  N   UNL     1       4.098   2.963  19.806  0.00  0.00    +0.000 N 
ATOM      9  H   UNL     1       5.074   3.180  19.968  0.00  0.00    +0.000 HD
BRANCH   8  10
ATOM     10  N   UNL     1       3.808   2.383  18.600  0.00  0.00    +0.000 NA
ATOM     11  C   UNL     1       4.183   2.967  17.505  0.00  0.00    +0.000 C 
BRANCH  11  12
ATOM     12  C   UNL     1       5.084   4.121  17.338  0.00  0.00    +0.000 A 
ATOM     13  C   UNL     1       6.162   4.349  18.209  0.00  0.00    +0.000 A 
ATOM     14  C   UNL     1       6.964   5.468  18.049  0.00  0.00    +0.000 A 
ATOM     15  C   UNL     1       6.721   6.332  16.989  0.00  0.00    +0.000 A 
ATOM     16  C   UNL     1       5.707   6.079  16.071  0.00  0.00    +0.000 A 
ATOM     17  C   UNL     1       4.882   4.962  16.243  0.00  0.00    +0.000 A 
BRANCH  15  18
ATOM     18  O   UNL     1       7.472   7.455  16.805  0.00  0.00    +0.000 OA
ATOM     19  H   UNL     1       8.390   7.189  16.634  0.00  0.00    +0.000 HD
ENDBRANCH  15  18
ENDBRANCH  11  12
ENDBRANCH   8  10
ENDBRANCH   6   8
ENDBRANCH   4   6
ENDBRANCH   1   4
BRANCH   1  20
ATOM     20  C   UNL     1       1.451   6.786  20.432  0.00  0.00    +0.000 C 
BRANCH  20  21
ATOM     21  C   UNL     1       1.606   8.300  20.272  0.00  0.00    +0.000 C 
BRANCH  21  22
ATOM     22  C   UNL     1       0.452   9.158  20.788  0.00  0.00    +0.000 C 
BRANCH  22  23
ATOM     23  C   UNL     1       0.256  10.427  19.899  0.00  0.00    +0.000 C 
ATOM     24  C   UNL     1       1.389  10.562  18.861  0.00  0.00    +0.000 C 
BRANCH  23  29
ATOM     25  C   UNL     1      -4.599  11.391  16.653  0.00  0.00    +0.000 C 
ATOM     26  C   UNL     1      -3.361  11.116  17.455  0.00  0.00    +0.000 C 
ATOM     27  C   UNL     1      -2.398  10.290  17.015  0.00  0.00    +0.000 C 
ATOM     28  C   UNL     1      -1.150   9.976  17.781  0.00  0.00    +0.000 C 
ATOM     29  C   UNL     1      -1.163  10.454  19.248  0.00  0.00    +0.000 C 
ATOM     30  C   UNL     1      -1.848  11.832  19.360  0.00  0.00    +0.000 C 
ATOM     31  C   UNL     1      -3.263  11.825  18.778  0.00  0.00    +0.000 C 
ENDBRANCH  23  29
BRANCH  23  32
ATOM     32  O   UNL     1       0.356  11.551  20.789  0.00  0.00    +0.000 OA
ATOM     33  H   UNL     1       0.151  12.361  20.291  0.00  0.00    +0.000 HD
ENDBRANCH  23  32
ENDBRANCH  22  23
ENDBRANCH  21  22
ENDBRANCH  20  21
ENDBRANCH   1  20
TORSDOF 12
ENDMDL
MODEL 3
REMARK VINA RESULT:      -7.0      2.031      2.693
REMARK  Name = 
REMARK  16 active torsions:
REMARK  status: ('A' for Active; 'I' for Inactive)
REMARK    1  A    between atoms: C_1  and  C_2
REMARK    2  A    between atoms: C_5  and  C_6
REMARK    3  A    between atoms: C_6  and  C_7
REMARK    4  A    between atoms: C_6  and  O_8
REMARK    5  A    between atoms: C_6  and  C_9
REMARK    6  A    between atoms: C_9  and  C_10
REMARK    7  A    between atoms: C_10  and  C_11
REMARK    8  A    between atoms: C_11  and  C_12
REMARK    9  A    between atoms: C_12  and  C_13
REMARK   10  A    between atoms: C_12  and  C_14
REMARK   11  A    between atoms: C_12  and  N_15
REMARK   12  A    between atoms: N_15  and  C_16
REMARK   13  A    between atoms: C_16  and  N_18
REMARK   14  A    between atoms: N_18  and  N_19
REMARK   15  A    between atoms: C_20  and  C_21
REMARK   16  A    between atoms: C_24  and  O_25
REMARK                            x       y       z     vdW  Elec       q    Type
REMARK                         _______ _______ _______ _____ _____    ______ ____
ROOT
ATOM      1  C   UNL     1       2.739   5.829  19.189  0.00  0.00    +0.000 C 
ATOM      2  C   UNL     1       1.850   4.811  18.450  0.00  0.00    +0.000 C 
ATOM      3  C   UNL     1       3.241   6.918  18.217  0.00  0.00    +0.000 C 
ENDROOT
BRANCH   1   4
ATOM      4  N   UNL     1       3.903   5.171  19.851  0.00  0.00    +0.000 N 
ATOM      5  H   UNL     1       4.355   5.699  20.580  0.00  0.00    +0.000 HD
BRANCH   4   6
ATOM      6  C   UNL     1       4.346   3.856  19.765  0.00  0.00    +0.000 C 
ATOM      7  S   UNL     1       3.515   2.474  20.229  0.00  0.00    +0.000 S 
BRANCH   6   8
ATOM      8  N   UNL     1       5.616   3.793  19.195  0.00  0.00    +0.000 N 
ATOM      9  H   UNL     1       6.111   2.911  19.140  0.00  0.00    +0.000 HD
BRANCH   8  10
ATOM     10  N   UNL     1       6.396   4.917  19.178  0.00  0.00    +0.000 NA
ATOM     11  C   UNL     1       6.858   5.357  18.049  0.00  0.00    +0.000 C 
BRANCH  11  12
ATOM     12  C   UNL     1       6.507   4.932  16.682  0.00  0.00    +0.000 A 
ATOM     13  C   UNL     1       5.217   4.485  16.355  0.00  0.00    +0.000 A 
ATOM     14  C   UNL     1       4.933   4.052  15.070  0.00  0.00    +0.000 A 
ATOM     15  C   UNL     1       5.924   4.112  14.098  0.00  0.00    +0.000 A 
ATOM     16  C   UNL     1       7.184   4.626  14.386  0.00  0.00    +0.000 A 
ATOM     17  C   UNL     1       7.480   5.043  15.689  0.00  0.00    +0.000 A 
BRANCH  15  18
ATOM     18  O   UNL     1       5.695   3.678  12.826  0.00  0.00    +0.000 OA
ATOM     19  H   UNL     1       4.753   3.463  12.738  0.00  0.00    +0.000 HD
ENDBRANCH  15  18
ENDBRANCH  11  12
ENDBRANCH   8  10
ENDBRANCH   6   8
ENDBRANCH   4   6
ENDBRANCH   1   4
BRANCH   1  20
ATOM     20  C   UNL     1       1.884   6.582  20.274  0.00  0.00    +0.000 C 
BRANCH  20  21
ATOM     21  C   UNL     1       1.922   8.105  20.130  0.00  0.00    +0.000 C 
BRANCH  21  22
ATOM     22  C   UNL     1       0.620   8.848  20.430  0.00  0.00    +0.000 C 
BRANCH  22  23
ATOM     23  C   UNL     1       0.461  10.095  19.503  0.00  0.00    +0.000 C 
ATOM     24  C   UNL     1       1.466  10.054  18.333  0.00  0.00    +0.000 C 
BRANCH  23  29
ATOM     25  C   UNL     1      -4.635  11.610  16.900  0.00  0.00    +0.000 C 
ATOM     26  C   UNL     1      -3.341  11.196  17.537  0.00  0.00    +0.000 C 
ATOM     27  C   UNL     1      -2.500  10.334  16.943  0.00  0.00    +0.000 C 
ATOM     28  C   UNL     1      -1.202   9.884  17.541  0.00  0.00    +0.000 C 
ATOM     29  C   UNL     1      -1.015  10.265  19.023  0.00  0.00    +0.000 C 
ATOM     30  C   UNL     1      -1.574  11.679  19.291  0.00  0.00    +0.000 C 
ATOM     31  C   UNL     1      -3.041  11.811  18.877  0.00  0.00    +0.000 C 
ENDBRANCH  23  29
BRANCH  23  32
ATOM     32  O   UNL     1       0.797  11.233  20.315  0.00  0.00    +0.000 OA
ATOM     33  H   UNL     1       1.699  11.519  20.090  0.00  0.00    +0.000 HD
ENDBRANCH  23  32
ENDBRANCH  22  23
ENDBRANCH  21  22
ENDBRANCH  20  21
ENDBRANCH   1  20
TORSDOF 12
ENDMDL
MODEL 4
REMARK VINA RESULT:      -7.0      1.868      2.946
REMARK  Name = 
REMARK  16 active torsions:
REMARK  status: ('A' for Active; 'I' for Inactive)
REMARK    1  A    between atoms: C_1  and  C_2
REMARK    2  A    between atoms: C_5  and  C_6
REMARK    3  A    between atoms: C_6  and  C_7
REMARK    4  A    between atoms: C_6  and  O_8
REMARK    5  A    between atoms: C_6  and  C_9
REMARK    6  A    between atoms: C_9  and  C_10
REMARK    7  A    between atoms: C_10  and  C_11
REMARK    8  A    between atoms: C_11  and  C_12
REMARK    9  A    between atoms: C_12  and  C_13
REMARK   10  A    between atoms: C_12  and  C_14
REMARK   11  A    between atoms: C_12  and  N_15
REMARK   12  A    between atoms: N_15  and  C_16
REMARK   13  A    between atoms: C_16  and  N_18
REMARK   14  A    between atoms: N_18  and  N_19
REMARK   15  A    between atoms: C_20  and  C_21
REMARK   16  A    between atoms: C_24  and  O_25
REMARK                            x       y       z     vdW  Elec       q    Type
REMARK                         _______ _______ _______ _____ _____    ______ ____
ROOT
ATOM      1  C   UNL     1       2.734   5.993  19.017  0.00  0.00    +0.000 C 
ATOM      2  C   UNL     1       4.159   5.803  19.570  0.00  0.00    +0.000 C 
ATOM      3  C   UNL     1       1.723   6.170  20.170  0.00  0.00    +0.000 C 
ENDROOT
BRANCH   1   4
ATOM      4  N   UNL     1       2.317   4.850  18.153  0.00  0.00    +0.000 N 
ATOM      5  H   UNL     1       1.829   5.091  17.306  0.00  0.00    +0.000 HD
BRANCH   4   6
ATOM      6  C   UNL     1       2.671   3.508  18.226  0.00  0.00    +0.000 C 
ATOM      7  S   UNL     1       1.705   2.231  18.726  0.00  0.00    +0.000 S 
BRANCH   6   8
ATOM      8  N   UNL     1       3.980   3.313  17.790  0.00  0.00    +0.000 N 
ATOM      9  H   UNL     1       4.761   3.512  18.405  0.00  0.00    +0.000 HD
BRANCH   8  10
ATOM     10  N   UNL     1       4.250   3.355  16.449  0.00  0.00    +0.000 NA
ATOM     11  C   UNL     1       5.118   4.207  16.000  0.00  0.00    +0.000 C 
BRANCH  11  12
ATOM     12  C   UNL     1       6.053   5.056  16.758  0.00  0.00    +0.000 A 
ATOM     13  C   UNL     1       7.037   4.507  17.596  0.00  0.00    +0.000 A 
ATOM     14  C   UNL     1       7.872   5.336  18.328  0.00  0.00    +0.000 A 
ATOM     15  C   UNL     1       7.759   6.712  18.185  0.00  0.00    +0.000 A 
ATOM     16  C   UNL     1       6.843   7.272  17.300  0.00  0.00    +0.000 A 
ATOM     17  C   UNL     1       5.983   6.438  16.577  0.00  0.00    +0.000 A 
BRANCH  15  18
ATOM     18  O   UNL     1       8.546   7.565  18.901  0.00  0.00    +0.000 OA
ATOM     19  H   UNL     1       9.466   7.455  18.610  0.00  0.00    +0.000 HD
ENDBRANCH  15  18
ENDBRANCH  11  12
ENDBRANCH   8  10
ENDBRANCH   6   8
ENDBRANCH   4   6
ENDBRANCH   1   4
BRANCH   1  20
ATOM     20  C   UNL     1       2.669   7.325  18.182  0.00  0.00    +0.000 C 
BRANCH  20  21
ATOM     21  C   UNL     1       1.929   8.458  18.897  0.00  0.00    +0.000 C 
BRANCH  21  22
ATOM     22  C   UNL     1       1.705   9.737  18.091  0.00  0.00    +0.000 C 
BRANCH  22  23
ATOM     23  C   UNL     1       0.588  10.617  18.736  0.00  0.00    +0.000 C 
ATOM     24  C   UNL     1      -0.020   9.929  19.976  0.00  0.00    +0.000 C 
BRANCH  23  29
ATOM     25  C   UNL     1       2.297  16.284  18.653  0.00  0.00    +0.000 C 
ATOM     26  C   UNL     1       1.831  14.858  18.688  0.00  0.00    +0.000 C 
ATOM     27  C   UNL     1       0.530  14.538  18.779  0.00  0.00    +0.000 C 
ATOM     28  C   UNL     1       0.015  13.132  18.826  0.00  0.00    +0.000 C 
ATOM     29  C   UNL     1       1.102  12.059  19.040  0.00  0.00    +0.000 C 
ATOM     30  C   UNL     1       2.378  12.421  18.250  0.00  0.00    +0.000 C 
ATOM     31  C   UNL     1       2.908  13.811  18.607  0.00  0.00    +0.000 C 
ENDBRANCH  23  29
BRANCH  23  32
ATOM     32  O   UNL     1      -0.453  10.717  17.750  0.00  0.00    +0.000 OA
ATOM     33  H   UNL     1      -0.104  11.193  16.977  0.00  0.00    +0.000 HD
ENDBRANCH  23  32
ENDBRANCH  22  23
ENDBRANCH  21  22
ENDBRANCH  20  21
ENDBRANCH   1  20
TORSDOF 12
ENDMDL
MODEL 5
REMARK VINA RESULT:      -6.8      1.884      2.551
REMARK  Name = 
REMARK  16 active torsions:
REMARK  status: ('A' for Active; 'I' for Inactive)
REMARK    1  A    between atoms: C_1  and  C_2
REMARK    2  A    between atoms: C_5  and  C_6
REMARK    3  A    between atoms: C_6  and  C_7
REMARK    4  A    between atoms: C_6  and  O_8
REMARK    5  A    between atoms: C_6  and  C_9
REMARK    6  A    between atoms: C_9  and  C_10
REMARK    7  A    between atoms: C_10  and  C_11
REMARK    8  A    between atoms: C_11  and  C_12
REMARK    9  A    between atoms: C_12  and  C_13
REMARK   10  A    between atoms: C_12  and  C_14
REMARK   11  A    between atoms: C_12  and  N_15
REMARK   12  A    between atoms: N_15  and  C_16
REMARK   13  A    between atoms: C_16  and  N_18
REMARK   14  A    between atoms: N_18  and  N_19
REMARK   15  A    between atoms: C_20  and  C_21
REMARK   16  A    between atoms: C_24  and  O_25
REMARK                            x       y       z     vdW  Elec       q    Type
REMARK                         _______ _______ _______ _____ _____    ______ ____
ROOT
ATOM      1  C   UNL     1       2.441   5.905  19.288  0.00  0.00    +0.000 C 
ATOM      2  C   UNL     1       1.325   6.028  20.342  0.00  0.00    +0.000 C 
ATOM      3  C   UNL     1       2.001   4.978  18.136  0.00  0.00    +0.000 C 
ENDROOT
BRANCH   1   4
ATOM      4  N   UNL     1       3.712   5.399  19.884  0.00  0.00    +0.000 N 
ATOM      5  H   UNL     1       4.152   5.998  20.564  0.00  0.00    +0.000 HD
BRANCH   4   6
ATOM      6  C   UNL     1       4.289   4.137  19.804  0.00  0.00    +0.000 C 
ATOM      7  S   UNL     1       3.510   2.656  19.930  0.00  0.00    +0.000 S 
BRANCH   6   8
ATOM      8  N   UNL     1       5.659   4.228  19.565  0.00  0.00    +0.000 N 
ATOM      9  H   UNL     1       6.268   3.443  19.764  0.00  0.00    +0.000 HD
BRANCH   8  10
ATOM     10  N   UNL     1       6.255   5.460  19.562  0.00  0.00    +0.000 NA
ATOM     11  C   UNL     1       6.689   5.955  18.445  0.00  0.00    +0.000 C 
BRANCH  11  12
ATOM     12  C   UNL     1       6.467   5.468  17.073  0.00  0.00    +0.000 A 
ATOM     13  C   UNL     1       7.241   4.434  16.521  0.00  0.00    +0.000 A 
ATOM     14  C   UNL     1       7.035   4.029  15.212  0.00  0.00    +0.000 A 
ATOM     15  C   UNL     1       6.022   4.622  14.470  0.00  0.00    +0.000 A 
ATOM     16  C   UNL     1       5.195   5.593  15.025  0.00  0.00    +0.000 A 
ATOM     17  C   UNL     1       5.416   6.019  16.340  0.00  0.00    +0.000 A 
BRANCH  15  18
ATOM     18  O   UNL     1       5.797   4.269  13.172  0.00  0.00    +0.000 OA
ATOM     19  H   UNL     1       5.999   5.030  12.605  0.00  0.00    +0.000 HD
ENDBRANCH  15  18
ENDBRANCH  11  12
ENDBRANCH   8  10
ENDBRANCH   6   8
ENDBRANCH   4   6
ENDBRANCH   1   4
BRANCH   1  20
ATOM     20  C   UNL     1       2.700   7.312  18.633  0.00  0.00    +0.000 C 
BRANCH  20  21
ATOM     21  C   UNL     1       1.894   8.442  19.277  0.00  0.00    +0.000 C 
BRANCH  21  22
ATOM     22  C   UNL     1       1.356   9.515  18.332  0.00  0.00    +0.000 C 
BRANCH  22  23
ATOM     23  C   UNL     1       0.550  10.599  19.117  0.00  0.00    +0.000 C 
ATOM     24  C   UNL     1       1.445  11.797  19.495  0.00  0.00    +0.000 C 
BRANCH  23  29
ATOM     25  C   UNL     1      -4.884  11.343  16.888  0.00  0.00    +0.000 C 
ATOM     26  C   UNL     1      -3.512  11.184  17.476  0.00  0.00    +0.000 C 
ATOM     27  C   UNL     1      -3.167  11.755  18.641  0.00  0.00    +0.000 C 
ATOM     28  C   UNL     1      -1.810  11.634  19.264  0.00  0.00    +0.000 C 
ATOM     29  C   UNL     1      -0.734  11.029  18.340  0.00  0.00    +0.000 C 
ATOM     30  C   UNL     1      -1.332   9.888  17.490  0.00  0.00    +0.000 C 
ATOM     31  C   UNL     1      -2.550  10.342  16.683  0.00  0.00    +0.000 C 
ENDBRANCH  23  29
BRANCH  23  32
ATOM     32  O   UNL     1       0.136   9.971  20.342  0.00  0.00    +0.000 OA
ATOM     33  H   UNL     1       0.836   9.360  20.629  0.00  0.00    +0.000 HD
ENDBRANCH  23  32
ENDBRANCH  22  23
ENDBRANCH  21  22
ENDBRANCH  20  21
ENDBRANCH   1  20
TORSDOF 12
ENDMDL
MODEL 6
REMARK VINA RESULT:      -6.8      1.979      2.571
REMARK  Name = 
REMARK  16 active torsions:
REMARK  status: ('A' for Active; 'I' for Inactive)
REMARK    1  A    between atoms: C_1  and  C_2
REMARK    2  A    between atoms: C_5  and  C_6
REMARK    3  A    between atoms: C_6  and  C_7
REMARK    4  A    between atoms: C_6  and  O_8
REMARK    5  A    between atoms: C_6  and  C_9
REMARK    6  A    between atoms: C_9  and  C_10
REMARK    7  A    between atoms: C_10  and  C_11
REMARK    8  A    between atoms: C_11  and  C_12
REMARK    9  A    between atoms: C_12  and  C_13
REMARK   10  A    between atoms: C_12  and  C_14
REMARK   11  A    between atoms: C_12  and  N_15
REMARK   12  A    between atoms: N_15  and  C_16
REMARK   13  A    between atoms: C_16  and  N_18
REMARK   14  A    between atoms: N_18  and  N_19
REMARK   15  A    between atoms: C_20  and  C_21
REMARK   16  A    between atoms: C_24  and  O_25
REMARK                            x       y       z     vdW  Elec       q    Type
REMARK                         _______ _______ _______ _____ _____    ______ ____
ROOT
ATOM      1  C   UNL     1       2.477   5.371  19.492  0.00  0.00    +0.000 C 
ATOM      2  C   UNL     1       1.305   5.291  20.488  0.00  0.00    +0.000 C 
ATOM      3  C   UNL     1       2.021   4.944  18.081  0.00  0.00    +0.000 C 
ENDROOT
BRANCH   1   4
ATOM      4  N   UNL     1       3.631   4.529  19.925  0.00  0.00    +0.000 N 
ATOM      5  H   UNL     1       4.032   4.756  20.820  0.00  0.00    +0.000 HD
BRANCH   4   6
ATOM      6  C   UNL     1       4.118   3.346  19.383  0.00  0.00    +0.000 C 
ATOM      7  S   UNL     1       3.267   1.924  19.124  0.00  0.00    +0.000 S 
BRANCH   6   8
ATOM      8  N   UNL     1       5.459   3.474  19.028  0.00  0.00    +0.000 N 
ATOM      9  H   UNL     1       6.075   2.670  19.048  0.00  0.00    +0.000 HD
BRANCH   8  10
ATOM     10  N   UNL     1       6.068   4.695  19.149  0.00  0.00    +0.000 NA
ATOM     11  C   UNL     1       6.549   5.275  18.094  0.00  0.00    +0.000 C 
BRANCH  11  12
ATOM     12  C   UNL     1       6.373   4.906  16.678  0.00  0.00    +0.000 A 
ATOM     13  C   UNL     1       7.467   4.776  15.807  0.00  0.00    +0.000 A 
ATOM     14  C   UNL     1       7.264   4.471  14.471  0.00  0.00    +0.000 A 
ATOM     15  C   UNL     1       5.972   4.243  14.016  0.00  0.00    +0.000 A 
ATOM     16  C   UNL     1       4.884   4.290  14.881  0.00  0.00    +0.000 A 
ATOM     17  C   UNL     1       5.084   4.621  16.226  0.00  0.00    +0.000 A 
BRANCH  15  18
ATOM     18  O   UNL     1       5.723   3.959  12.705  0.00  0.00    +0.000 OA
ATOM     19  H   UNL     1       5.362   4.753  12.280  0.00  0.00    +0.000 HD
ENDBRANCH  15  18
ENDBRANCH  11  12
ENDBRANCH   8  10
ENDBRANCH   6   8
ENDBRANCH   4   6
ENDBRANCH   1   4
BRANCH   1  20
ATOM     20  C   UNL     1       2.949   6.866  19.356  0.00  0.00    +0.000 C 
BRANCH  20  21
ATOM     21  C   UNL     1       1.846   7.812  18.875  0.00  0.00    +0.000 C 
BRANCH  21  22
ATOM     22  C   UNL     1       1.279   8.778  19.915  0.00  0.00    +0.000 C 
BRANCH  22  23
ATOM     23  C   UNL     1       0.922  10.153  19.266  0.00  0.00    +0.000 C 
ATOM     24  C   UNL     1       1.851  10.466  18.074  0.00  0.00    +0.000 C 
BRANCH  23  29
ATOM     25  C   UNL     1      -4.406  11.250  16.931  0.00  0.00    +0.000 C 
ATOM     26  C   UNL     1      -3.053  10.940  17.503  0.00  0.00    +0.000 C 
ATOM     27  C   UNL     1      -2.225  10.052  16.929  0.00  0.00    +0.000 C 
ATOM     28  C   UNL     1      -0.871   9.702  17.465  0.00  0.00    +0.000 C 
ATOM     29  C   UNL     1      -0.590  10.230  18.887  0.00  0.00    +0.000 C 
ATOM     30  C   UNL     1      -1.182  11.644  19.064  0.00  0.00    +0.000 C 
ATOM     31  C   UNL     1      -2.680  11.689  18.753  0.00  0.00    +0.000 C 
ENDBRANCH  23  29
BRANCH  23  32
ATOM     32  O   UNL     1       1.176  11.143  20.277  0.00  0.00    +0.000 OA
ATOM     33  H   UNL     1       0.915  10.779  21.140  0.00  0.00    +0.000 HD
ENDBRANCH  23  32
ENDBRANCH  22  23
ENDBRANCH  21  22
ENDBRANCH  20  21
ENDBRANCH   1  20
TORSDOF 12
ENDMDL
MODEL 7
REMARK VINA RESULT:      -6.7      2.619      3.823
REMARK  Name = 
REMARK  16 active torsions:
REMARK  status: ('A' for Active; 'I' for Inactive)
REMARK    1  A    between atoms: C_1  and  C_2
REMARK    2  A    between atoms: C_5  and  C_6
REMARK    3  A    between atoms: C_6  and  C_7
REMARK    4  A    between atoms: C_6  and  O_8
REMARK    5  A    between atoms: C_6  and  C_9
REMARK    6  A    between atoms: C_9  and  C_10
REMARK    7  A    between atoms: C_10  and  C_11
REMARK    8  A    between atoms: C_11  and  C_12
REMARK    9  A    between atoms: C_12  and  C_13
REMARK   10  A    between atoms: C_12  and  C_14
REMARK   11  A    between atoms: C_12  and  N_15
REMARK   12  A    between atoms: N_15  and  C_16
REMARK   13  A    between atoms: C_16  and  N_18
REMARK   14  A    between atoms: N_18  and  N_19
REMARK   15  A    between atoms: C_20  and  C_21
REMARK   16  A    between atoms: C_24  and  O_25
REMARK                            x       y       z     vdW  Elec       q    Type
REMARK                         _______ _______ _______ _____ _____    ______ ____
ROOT
ATOM      1  C   UNL     1       2.725   6.895  18.523  0.00  0.00    +0.000 C 
ATOM      2  C   UNL     1       2.308   7.351  19.934  0.00  0.00    +0.000 C 
ATOM      3  C   UNL     1       1.700   5.893  17.951  0.00  0.00    +0.000 C 
ENDROOT
BRANCH   1   4
ATOM      4  N   UNL     1       4.086   6.283  18.517  0.00  0.00    +0.000 N 
ATOM      5  H   UNL     1       4.375   5.840  19.374  0.00  0.00    +0.000 HD
BRANCH   4   6
ATOM      6  C   UNL     1       4.947   6.045  17.453  0.00  0.00    +0.000 C 
ATOM      7  S   UNL     1       6.440   6.760  17.177  0.00  0.00    +0.000 S 
BRANCH   6   8
ATOM      8  N   UNL     1       4.428   5.075  16.598  0.00  0.00    +0.000 N 
ATOM      9  H   UNL     1       3.443   5.075  16.358  0.00  0.00    +0.000 HD
BRANCH   8  10
ATOM     10  N   UNL     1       5.068   3.870  16.490  0.00  0.00    +0.000 NA
ATOM     11  C   UNL     1       4.759   2.909  17.305  0.00  0.00    +0.000 C 
BRANCH  11  12
ATOM     12  C   UNL     1       3.639   2.833  18.258  0.00  0.00    +0.000 A 
ATOM     13  C   UNL     1       2.360   2.406  17.864  0.00  0.00    +0.000 A 
ATOM     14  C   UNL     1       1.317   2.389  18.777  0.00  0.00    +0.000 A 
ATOM     15  C   UNL     1       1.563   2.748  20.095  0.00  0.00    +0.000 A 
ATOM     16  C   UNL     1       2.840   3.098  20.521  0.00  0.00    +0.000 A 
ATOM     17  C   UNL     1       3.890   3.139  19.596  0.00  0.00    +0.000 A 
BRANCH  15  18
ATOM     18  O   UNL     1       0.563   2.765  21.022  0.00  0.00    +0.000 OA
ATOM     19  H   UNL     1      -0.208   3.211  20.638  0.00  0.00    +0.000 HD
ENDBRANCH  15  18
ENDBRANCH  11  12
ENDBRANCH   8  10
ENDBRANCH   6   8
ENDBRANCH   4   6
ENDBRANCH   1   4
BRANCH   1  20
ATOM     20  C   UNL     1       2.708   8.130  17.548  0.00  0.00    +0.000 C 
BRANCH  20  21
ATOM     21  C   UNL     1       2.003   9.357  18.131  0.00  0.00    +0.000 C 
BRANCH  21  22
ATOM     22  C   UNL     1       0.495   9.447  17.900  0.00  0.00    +0.000 C 
BRANCH  22  23
ATOM     23  C   UNL     1      -0.157  10.496  18.856  0.00  0.00    +0.000 C 
ATOM     24  C   UNL     1       0.848  11.602  19.239  0.00  0.00    +0.000 C 
BRANCH  23  29
ATOM     25  C   UNL     1      -5.733  11.831  17.385  0.00  0.00    +0.000 C 
ATOM     26  C   UNL     1      -4.319  11.522  17.781  0.00  0.00    +0.000 C 
ATOM     27  C   UNL     1      -3.760  12.043  18.886  0.00  0.00    +0.000 C 
ATOM     28  C   UNL     1      -2.351  11.773  19.318  0.00  0.00    +0.000 C 
ATOM     29  C   UNL     1      -1.481  11.067  18.259  0.00  0.00    +0.000 C 
ATOM     30  C   UNL     1      -2.307  10.002  17.505  0.00  0.00    +0.000 C 
ATOM     31  C   UNL     1      -3.568  10.590  16.869  0.00  0.00    +0.000 C 
ENDBRANCH  23  29
BRANCH  23  32
ATOM     32  O   UNL     1      -0.485   9.781  20.059  0.00  0.00    +0.000 OA
ATOM     33  H   UNL     1      -0.104  10.257  20.817  0.00  0.00    +0.000 HD
ENDBRANCH  23  32
ENDBRANCH  22  23
ENDBRANCH  21  22
ENDBRANCH  20  21
ENDBRANCH   1  20
TORSDOF 12
ENDMDL
MODEL 8
REMARK VINA RESULT:      -6.6      1.727      2.706
REMARK  Name = 
REMARK  16 active torsions:
REMARK  status: ('A' for Active; 'I' for Inactive)
REMARK    1  A    between atoms: C_1  and  C_2
REMARK    2  A    between atoms: C_5  and  C_6
REMARK    3  A    between atoms: C_6  and  C_7
REMARK    4  A    between atoms: C_6  and  O_8
REMARK    5  A    between atoms: C_6  and  C_9
REMARK    6  A    between atoms: C_9  and  C_10
REMARK    7  A    between atoms: C_10  and  C_11
REMARK    8  A    between atoms: C_11  and  C_12
REMARK    9  A    between atoms: C_12  and  C_13
REMARK   10  A    between atoms: C_12  and  C_14
REMARK   11  A    between atoms: C_12  and  N_15
REMARK   12  A    between atoms: N_15  and  C_16
REMARK   13  A    between atoms: C_16  and  N_18
REMARK   14  A    between atoms: N_18  and  N_19
REMARK   15  A    between atoms: C_20  and  C_21
REMARK   16  A    between atoms: C_24  and  O_25
REMARK                            x       y       z     vdW  Elec       q    Type
REMARK                         _______ _______ _______ _____ _____    ______ ____
ROOT
ATOM      1  C   UNL     1       2.799   6.060  19.040  0.00  0.00    +0.000 C 
ATOM      2  C   UNL     1       4.178   5.717  19.634  0.00  0.00    +0.000 C 
ATOM      3  C   UNL     1       1.773   6.321  20.163  0.00  0.00    +0.000 C 
ENDROOT
BRANCH   1   4
ATOM      4  N   UNL     1       2.298   4.979  18.141  0.00  0.00    +0.000 N 
ATOM      5  H   UNL     1       1.790   5.282  17.326  0.00  0.00    +0.000 HD
BRANCH   4   6
ATOM      6  C   UNL     1       2.592   3.621  18.139  0.00  0.00    +0.000 C 
ATOM      7  S   UNL     1       1.558   2.359  18.529  0.00  0.00    +0.000 S 
BRANCH   6   8
ATOM      8  N   UNL     1       3.904   3.395  17.727  0.00  0.00    +0.000 N 
ATOM      9  H   UNL     1       4.678   3.571  18.358  0.00  0.00    +0.000 HD
BRANCH   8  10
ATOM     10  N   UNL     1       4.201   3.439  16.392  0.00  0.00    +0.000 NA
ATOM     11  C   UNL     1       5.100   4.270  15.965  0.00  0.00    +0.000 C 
BRANCH  11  12
ATOM     12  C   UNL     1       6.042   5.090  16.747  0.00  0.00    +0.000 A 
ATOM     13  C   UNL     1       7.020   4.509  17.570  0.00  0.00    +0.000 A 
ATOM     14  C   UNL     1       7.862   5.310  18.326  0.00  0.00    +0.000 A 
ATOM     15  C   UNL     1       7.762   6.691  18.221  0.00  0.00    +0.000 A 
ATOM     16  C   UNL     1       6.852   7.282  17.351  0.00  0.00    +0.000 A 
ATOM     17  C   UNL     1       5.985   6.476  16.604  0.00  0.00    +0.000 A 
BRANCH  15  18
ATOM     18  O   UNL     1       8.556   7.516  18.960  0.00  0.00    +0.000 OA
ATOM     19  H   UNL     1       9.473   7.205  18.893  0.00  0.00    +0.000 HD
ENDBRANCH  15  18
ENDBRANCH  11  12
ENDBRANCH   8  10
ENDBRANCH   6   8
ENDBRANCH   4   6
ENDBRANCH   1   4
BRANCH   1  20
ATOM     20  C   UNL     1       2.898   7.405  18.229  0.00  0.00    +0.000 C 
BRANCH  20  21
ATOM     21  C   UNL     1       1.632   8.260  18.310  0.00  0.00    +0.000 C 
BRANCH  21  22
ATOM     22  C   UNL     1       1.823   9.770  18.175  0.00  0.00    +0.000 C 
BRANCH  22  23
ATOM     23  C   UNL     1       0.538  10.539  18.617  0.00  0.00    +0.000 C 
ATOM     24  C   UNL     1      -0.080   9.913  19.885  0.00  0.00    +0.000 C 
BRANCH  23  29
ATOM     25  C   UNL     1       0.806  16.233  20.215  0.00  0.00    +0.000 C 
ATOM     26  C   UNL     1       0.770  14.783  19.828  0.00  0.00    +0.000 C 
ATOM     27  C   UNL     1       1.525  13.863  20.450  0.00  0.00    +0.000 C 
ATOM     28  C   UNL     1       1.532  12.407  20.095  0.00  0.00    +0.000 C 
ATOM     29  C   UNL     1       0.813  12.068  18.774  0.00  0.00    +0.000 C 
ATOM     30  C   UNL     1      -0.461  12.926  18.617  0.00  0.00    +0.000 C 
ATOM     31  C   UNL     1      -0.165  14.424  18.706  0.00  0.00    +0.000 C 
ENDBRANCH  23  29
BRANCH  23  32
ATOM     32  O   UNL     1      -0.410  10.367  17.551  0.00  0.00    +0.000 OA
ATOM     33  H   UNL     1      -1.142  10.995  17.681  0.00  0.00    +0.000 HD
ENDBRANCH  23  32
ENDBRANCH  22  23
ENDBRANCH  21  22
ENDBRANCH  20  21
ENDBRANCH   1  20
TORSDOF 12
ENDMDL
MODEL 9
REMARK VINA RESULT:      -6.6      2.812      3.876
REMARK  Name = 
REMARK  16 active torsions:
REMARK  status: ('A' for Active; 'I' for Inactive)
REMARK    1  A    between atoms: C_1  and  C_2
REMARK    2  A    between atoms: C_5  and  C_6
REMARK    3  A    between atoms: C_6  and  C_7
REMARK    4  A    between atoms: C_6  and  O_8
REMARK    5  A    between atoms: C_6  and  C_9
REMARK    6  A    between atoms: C_9  and  C_10
REMARK    7  A    between atoms: C_10  and  C_11
REMARK    8  A    between atoms: C_11  and  C_12
REMARK    9  A    between atoms: C_12  and  C_13
REMARK   10  A    between atoms: C_12  and  C_14
REMARK   11  A    between atoms: C_12  and  N_15
REMARK   12  A    between atoms: N_15  and  C_16
REMARK   13  A    between atoms: C_16  and  N_18
REMARK   14  A    between atoms: N_18  and  N_19
REMARK   15  A    between atoms: C_20  and  C_21
REMARK   16  A    between atoms: C_24  and  O_25
REMARK                            x       y       z     vdW  Elec       q    Type
REMARK                         _______ _______ _______ _____ _____    ______ ____
ROOT
ATOM      1  C   UNL     1       2.447   5.711  19.512  0.00  0.00    +0.000 C 
ATOM      2  C   UNL     1       1.447   5.059  20.485  0.00  0.00    +0.000 C 
ATOM      3  C   UNL     1       2.087   5.367  18.051  0.00  0.00    +0.000 C 
ENDROOT
BRANCH   1   4
ATOM      4  N   UNL     1       3.851   5.291  19.797  0.00  0.00    +0.000 N 
ATOM      5  H   UNL     1       4.416   5.955  20.301  0.00  0.00    +0.000 HD
BRANCH   4   6
ATOM      6  C   UNL     1       4.450   4.046  19.656  0.00  0.00    +0.000 C 
ATOM      7  S   UNL     1       3.681   2.559  19.533  0.00  0.00    +0.000 S 
BRANCH   6   8
ATOM      8  N   UNL     1       5.837   4.163  19.594  0.00  0.00    +0.000 N 
ATOM      9  H   UNL     1       6.431   3.405  19.911  0.00  0.00    +0.000 HD
BRANCH   8  10
ATOM     10  N   UNL     1       6.402   5.409  19.607  0.00  0.00    +0.000 NA
ATOM     11  C   UNL     1       6.752   5.962  18.487  0.00  0.00    +0.000 C 
BRANCH  11  12
ATOM     12  C   UNL     1       6.454   5.526  17.112  0.00  0.00    +0.000 A 
ATOM     13  C   UNL     1       5.380   6.062  16.383  0.00  0.00    +0.000 A 
ATOM     14  C   UNL     1       5.101   5.598  15.107  0.00  0.00    +0.000 A 
ATOM     15  C   UNL     1       5.926   4.637  14.539  0.00  0.00    +0.000 A 
ATOM     16  C   UNL     1       7.041   4.152  15.216  0.00  0.00    +0.000 A 
ATOM     17  C   UNL     1       7.311   4.602  16.513  0.00  0.00    +0.000 A 
BRANCH  15  18
ATOM     18  O   UNL     1       5.677   4.138  13.294  0.00  0.00    +0.000 OA
ATOM     19  H   UNL     1       6.497   3.750  12.948  0.00  0.00    +0.000 HD
ENDBRANCH  15  18
ENDBRANCH  11  12
ENDBRANCH   8  10
ENDBRANCH   6   8
ENDBRANCH   4   6
ENDBRANCH   1   4
BRANCH   1  20
ATOM     20  C   UNL     1       2.342   7.277  19.623  0.00  0.00    +0.000 C 
BRANCH  20  21
ATOM     21  C   UNL     1       2.024   7.962  18.291  0.00  0.00    +0.000 C 
BRANCH  21  22
ATOM     22  C   UNL     1       2.231   9.475  18.241  0.00  0.00    +0.000 C 
BRANCH  22  23
ATOM     23  C   UNL     1       0.935  10.232  18.673  0.00  0.00    +0.000 C 
ATOM     24  C   UNL     1       0.419   9.726  20.035  0.00  0.00    +0.000 C 
BRANCH  23  29
ATOM     25  C   UNL     1       2.698  15.843  19.343  0.00  0.00    +0.000 C 
ATOM     26  C   UNL     1       2.270  14.419  19.140  0.00  0.00    +0.000 C 
ATOM     27  C   UNL     1       2.888  13.609  18.266  0.00  0.00    +0.000 C 
ATOM     28  C   UNL     1       2.493  12.184  18.022  0.00  0.00    +0.000 C 
ATOM     29  C   UNL     1       1.142  11.780  18.645  0.00  0.00    +0.000 C 
ATOM     30  C   UNL     1       0.971  12.433  20.033  0.00  0.00    +0.000 C 
ATOM     31  C   UNL     1       1.111  13.955  19.979  0.00  0.00    +0.000 C 
ENDBRANCH  23  29
BRANCH  23  32
ATOM     32  O   UNL     1      -0.060   9.901  17.689  0.00  0.00    +0.000 OA
ATOM     33  H   UNL     1      -0.559  10.707  17.469  0.00  0.00    +0.000 HD
ENDBRANCH  23  32
ENDBRANCH  22  23
ENDBRANCH  21  22
ENDBRANCH  20  21
ENDBRANCH   1  20
TORSDOF 12
ENDMDL
