MODEL 1
REMARK VINA RESULT:      -6.2      0.000      0.000
REMARK  Name = 
REMARK  11 active torsions:
REMARK  status: ('A' for Active; 'I' for Inactive)
REMARK    1  A    between atoms: C_1  and  C_2
REMARK    2  A    between atoms: C_2  and  O_3
REMARK    3  A    between atoms: O_3  and  C_4
REMARK    4  A    between atoms: C_7  and  C_8
REMARK    5  A    between atoms: C_8  and  S_9
REMARK    6  A    between atoms: S_9  and  C_10
REMARK    7  A    between atoms: C_10  and  C_11
REMARK    8  A    between atoms: C_10  and  C_15
REMARK    9  A    between atoms: C_11  and  C_12
REMARK   10  A    between atoms: C_12  and  O_14
REMARK   11  A    between atoms: C_15  and  O_17
REMARK                            x       y       z     vdW  Elec       q    Type
REMARK                         _______ _______ _______ _____ _____    ______ ____
ROOT
ATOM      1  S   UNL     1       2.797   5.172  19.347  0.00  0.00    +0.000 S 
ENDROOT
BRANCH   1   2
ATOM      2  C   UNL     1       4.597   5.473  19.373  0.00  0.00    +0.000 C 
BRANCH   2   6
ATOM      3  C   UNL     1       6.539   4.860  15.564  0.00  0.00    +0.000 A 
ATOM      4  C   UNL     1       5.253   5.398  15.621  0.00  0.00    +0.000 A 
ATOM      5  C   UNL     1       4.626   5.608  16.849  0.00  0.00    +0.000 A 
ATOM      6  C   UNL     1       5.268   5.250  18.044  0.00  0.00    +0.000 A 
ATOM      7  C   UNL     1       6.558   4.705  17.979  0.00  0.00    +0.000 A 
ATOM      8  C   UNL     1       7.186   4.502  16.745  0.00  0.00    +0.000 A 
BRANCH   3   9
ATOM      9  O   UNL     1       7.049   4.723  14.304  0.00  0.00    +0.000 OA
BRANCH   9  11
ATOM     10  C   UNL     1       7.021   3.922  12.068  0.00  0.00    +0.000 C 
ATOM     11  C   UNL     1       6.316   3.886  13.411  0.00  0.00    +0.000 C 
ENDBRANCH   9  11
ENDBRANCH   3   9
ENDBRANCH   2   6
ENDBRANCH   1   2
BRANCH   1  12
ATOM     12  C   UNL     1       2.721   3.353  19.067  0.00  0.00    +0.000 C 
BRANCH  12  13
ATOM     13  C   UNL     1       1.997   3.144  17.738  0.00  0.00    +0.000 C 
ATOM     14  O   UNL     1       1.309   4.011  17.203  0.00  0.00    +0.000 OA
BRANCH  13  15
ATOM     15  O   UNL     1       2.151   1.917  17.201  0.00  0.00    +0.000 OA
ATOM     16  H   UNL     1       2.720   1.315  17.724  0.00  0.00    +0.000 HD
ENDBRANCH  13  15
ENDBRANCH  12  13
BRANCH  12  17
ATOM     17  C   UNL     1       1.938   2.625  20.159  0.00  0.00    +0.000 C 
BRANCH  17  18
ATOM     18  C   UNL     1       2.722   2.625  21.448  0.00  0.00    +0.000 C 
ATOM     19  O   UNL     1       3.795   2.052  21.572  0.00  0.00    +0.000 OA
BRANCH  18  20
ATOM     20  O   UNL     1       2.120   3.268  22.469  0.00  0.00    +0.000 OA
ATOM     21  H   UNL     1       1.806   2.682  23.201  0.00  0.00    +0.000 HD
ENDBRANCH  18  20
ENDBRANCH  17  18
ENDBRANCH  12  17
ENDBRANCH   1  12
TORSDOF 10
ENDMDL
MODEL 2
REMARK VINA RESULT:      -6.1      1.022      1.560
REMARK  Name = 
REMARK  11 active torsions:
REMARK  status: ('A' for Active; 'I' for Inactive)
REMARK    1  A    between atoms: C_1  and  C_2
REMARK    2  A    between atoms: C_2  and  O_3
REMARK    3  A    between atoms: O_3  and  C_4
REMARK    4  A    between atoms: C_7  and  C_8
REMARK    5  A    between atoms: C_8  and  S_9
REMARK    6  A    between atoms: S_9  and  C_10
REMARK    7  A    between atoms: C_10  and  C_11
REMARK    8  A    between atoms: C_10  and  C_15
REMARK    9  A    between atoms: C_11  and  C_12
REMARK   10  A    between atoms: C_12  and  O_14
REMARK   11  A    between atoms: C_15  and  O_17
REMARK                            x       y       z     vdW  Elec       q    Type
REMARK                         _______ _______ _______ _____ _____    ______ ____
ROOT
ATOM      1  S   UNL     1       2.935   5.415  19.078  0.00  0.00    +0.000 S 
ENDROOT
BRANCH   1   2
ATOM      2  C   UNL     1       4.743   5.293  18.870  0.00  0.00    +0.000 C 
BRANCH   2   6
ATOM      3  C   UNL     1       5.963   4.899  14.745  0.00  0.00    +0.000 A 
ATOM      4  C   UNL     1       6.132   3.837  15.634  0.00  0.00    +0.000 A 
ATOM      5  C   UNL     1       5.729   3.956  16.964  0.00  0.00    +0.000 A 
ATOM      6  C   UNL     1       5.179   5.157  17.435  0.00  0.00    +0.000 A 
ATOM      7  C   UNL     1       5.018   6.222  16.537  0.00  0.00    +0.000 A 
ATOM      8  C   UNL     1       5.417   6.097  15.202  0.00  0.00    +0.000 A 
BRANCH   3   9
ATOM      9  O   UNL     1       6.378   4.650  13.468  0.00  0.00    +0.000 OA
BRANCH   9  11
ATOM     10  C   UNL     1       4.838   3.527  12.050  0.00  0.00    +0.000 C 
ATOM     11  C   UNL     1       6.059   3.365  12.937  0.00  0.00    +0.000 C 
ENDBRANCH   9  11
ENDBRANCH   3   9
ENDBRANCH   2   6
ENDBRANCH   1   2
BRANCH   1  12
ATOM     12  C   UNL     1       2.489   3.690  19.542  0.00  0.00    +0.000 C 
BRANCH  12  13
ATOM     13  C   UNL     1       1.965   3.016  18.275  0.00  0.00    +0.000 C 
ATOM     14  O   UNL     1       1.550   3.644  17.303  0.00  0.00    +0.000 OA
BRANCH  13  15
ATOM     15  O   UNL     1       1.967   1.668  18.313  0.00  0.00    +0.000 OA
ATOM     16  H   UNL     1       2.859   1.265  18.320  0.00  0.00    +0.000 HD
ENDBRANCH  13  15
ENDBRANCH  12  13
BRANCH  12  17
ATOM     17  C   UNL     1       1.392   3.633  20.605  0.00  0.00    +0.000 C 
BRANCH  17  18
ATOM     18  C   UNL     1       1.806   2.720  21.732  0.00  0.00    +0.000 C 
ATOM     19  O   UNL     1       1.036   2.360  22.611  0.00  0.00    +0.000 OA
BRANCH  18  20
ATOM     20  O   UNL     1       3.108   2.371  21.719  0.00  0.00    +0.000 OA
ATOM     21  H   UNL     1       3.474   2.096  22.596  0.00  0.00    +0.000 HD
ENDBRANCH  18  20
ENDBRANCH  17  18
ENDBRANCH  12  17
ENDBRANCH   1  12
TORSDOF 10
ENDMDL
MODEL 3
REMARK VINA RESULT:      -6.1      2.572      6.250
REMARK  Name = 
REMARK  11 active torsions:
REMARK  status: ('A' for Active; 'I' for Inactive)
REMARK    1  A    between atoms: C_1  and  C_2
REMARK    2  A    between atoms: C_2  and  O_3
REMARK    3  A    between atoms: O_3  and  C_4
REMARK    4  A    between atoms: C_7  and  C_8
REMARK    5  A    between atoms: C_8  and  S_9
REMARK    6  A    between atoms: S_9  and  C_10
REMARK    7  A    between atoms: C_10  and  C_11
REMARK    8  A    between atoms: C_10  and  C_15
REMARK    9  A    between atoms: C_11  and  C_12
REMARK   10  A    between atoms: C_12  and  O_14
REMARK   11  A    between atoms: C_15  and  O_17
REMARK                            x       y       z     vdW  Elec       q    Type
REMARK                         _______ _______ _______ _____ _____    ______ ____
ROOT
ATOM      1  S   UNL     1       4.903   6.654  16.223  0.00  0.00    +0.000 S 
ENDROOT
BRANCH   1   2
ATOM      2  C   UNL     1       4.012   7.223  17.710  0.00  0.00    +0.000 C 
BRANCH   2   6
ATOM      3  C   UNL     1       1.613   4.156  19.580  0.00  0.00    +0.000 A 
ATOM      4  C   UNL     1       1.888   5.345  20.255  0.00  0.00    +0.000 A 
ATOM      5  C   UNL     1       2.653   6.342  19.652  0.00  0.00    +0.000 A 
ATOM      6  C   UNL     1       3.185   6.151  18.368  0.00  0.00    +0.000 A 
ATOM      7  C   UNL     1       2.908   4.951  17.697  0.00  0.00    +0.000 A 
ATOM      8  C   UNL     1       2.135   3.955  18.303  0.00  0.00    +0.000 A 
BRANCH   3   9
ATOM      9  O   UNL     1       0.838   3.269  20.270  0.00  0.00    +0.000 OA
BRANCH   9  11
ATOM     10  C   UNL     1       2.703   2.407  21.463  0.00  0.00    +0.000 C 
ATOM     11  C   UNL     1       1.282   2.926  21.583  0.00  0.00    +0.000 C 
ENDBRANCH   9  11
ENDBRANCH   3   9
ENDBRANCH   2   6
ENDBRANCH   1   2
BRANCH   1  12
ATOM     12  C   UNL     1       6.549   6.205  16.916  0.00  0.00    +0.000 C 
BRANCH  12  13
ATOM     13  C   UNL     1       7.111   5.096  16.027  0.00  0.00    +0.000 C 
ATOM     14  O   UNL     1       7.772   5.318  15.014  0.00  0.00    +0.000 OA
BRANCH  13  15
ATOM     15  O   UNL     1       6.805   3.846  16.426  0.00  0.00    +0.000 OA
ATOM     16  H   UNL     1       6.499   3.780  17.354  0.00  0.00    +0.000 HD
ENDBRANCH  13  15
ENDBRANCH  12  13
BRANCH  12  17
ATOM     17  C   UNL     1       6.458   5.673  18.346  0.00  0.00    +0.000 C 
BRANCH  17  18
ATOM     18  C   UNL     1       7.740   5.957  19.088  0.00  0.00    +0.000 C 
ATOM     19  O   UNL     1       8.201   5.198  19.928  0.00  0.00    +0.000 OA
BRANCH  18  20
ATOM     20  O   UNL     1       8.311   7.140  18.787  0.00  0.00    +0.000 OA
ATOM     21  H   UNL     1       8.091   7.491  17.889  0.00  0.00    +0.000 HD
ENDBRANCH  18  20
ENDBRANCH  17  18
ENDBRANCH  12  17
ENDBRANCH   1  12
TORSDOF 10
ENDMDL
MODEL 4
REMARK VINA RESULT:      -6.1      1.566      2.028
REMARK  Name = 
REMARK  11 active torsions:
REMARK  status: ('A' for Active; 'I' for Inactive)
REMARK    1  A    between atoms: C_1  and  C_2
REMARK    2  A    between atoms: C_2  and  O_3
REMARK    3  A    between atoms: O_3  and  C_4
REMARK    4  A    between atoms: C_7  and  C_8
REMARK    5  A    between atoms: C_8  and  S_9
REMARK    6  A    between atoms: S_9  and  C_10
REMARK    7  A    between atoms: C_10  and  C_11
REMARK    8  A    between atoms: C_10  and  C_15
REMARK    9  A    between atoms: C_11  and  C_12
REMARK   10  A    between atoms: C_12  and  O_14
REMARK   11  A    between atoms: C_15  and  O_17
REMARK                            x       y       z     vdW  Elec       q    Type
REMARK                         _______ _______ _______ _____ _____    ______ ____
ROOT
ATOM      1  S   UNL     1       2.876   5.261  19.967  0.00  0.00    +0.000 S 
ENDROOT
BRANCH   1   2
ATOM      2  C   UNL     1       2.743   6.079  18.341  0.00  0.00    +0.000 C 
BRANCH   2   6
ATOM      3  C   UNL     1       6.213   5.479  15.839  0.00  0.00    +0.000 A 
ATOM      4  C   UNL     1       6.055   6.667  16.553  0.00  0.00    +0.000 A 
ATOM      5  C   UNL     1       4.942   6.861  17.370  0.00  0.00    +0.000 A 
ATOM      6  C   UNL     1       3.948   5.876  17.461  0.00  0.00    +0.000 A 
ATOM      7  C   UNL     1       4.110   4.687  16.736  0.00  0.00    +0.000 A 
ATOM      8  C   UNL     1       5.231   4.494  15.922  0.00  0.00    +0.000 A 
BRANCH   3   9
ATOM      9  O   UNL     1       7.354   5.405  15.092  0.00  0.00    +0.000 OA
BRANCH   9  11
ATOM     10  C   UNL     1       8.032   5.535  12.819  0.00  0.00    +0.000 C 
ATOM     11  C   UNL     1       7.248   4.730  13.839  0.00  0.00    +0.000 C 
ENDBRANCH   9  11
ENDBRANCH   3   9
ENDBRANCH   2   6
ENDBRANCH   1   2
BRANCH   1  12
ATOM     12  C   UNL     1       2.720   3.484  19.512  0.00  0.00    +0.000 C 
BRANCH  12  13
ATOM     13  C   UNL     1       1.250   3.246  19.168  0.00  0.00    +0.000 C 
ATOM     14  O   UNL     1       0.836   3.163  18.014  0.00  0.00    +0.000 OA
BRANCH  13  15
ATOM     15  O   UNL     1       0.430   3.158  20.235  0.00  0.00    +0.000 OA
ATOM     16  H   UNL     1       0.738   2.544  20.932  0.00  0.00    +0.000 HD
ENDBRANCH  13  15
ENDBRANCH  12  13
BRANCH  12  17
ATOM     17  C   UNL     1       3.101   2.550  20.660  0.00  0.00    +0.000 C 
BRANCH  17  18
ATOM     18  C   UNL     1       4.541   2.122  20.526  0.00  0.00    +0.000 C 
ATOM     19  O   UNL     1       5.151   1.557  21.422  0.00  0.00    +0.000 OA
BRANCH  18  20
ATOM     20  O   UNL     1       5.117   2.456  19.354  0.00  0.00    +0.000 OA
ATOM     21  H   UNL     1       4.502   2.841  18.683  0.00  0.00    +0.000 HD
ENDBRANCH  18  20
ENDBRANCH  17  18
ENDBRANCH  12  17
ENDBRANCH   1  12
TORSDOF 10
ENDMDL
MODEL 5
REMARK VINA RESULT:      -6.1      2.242      6.594
REMARK  Name = 
REMARK  11 active torsions:
REMARK  status: ('A' for Active; 'I' for Inactive)
REMARK    1  A    between atoms: C_1  and  C_2
REMARK    2  A    between atoms: C_2  and  O_3
REMARK    3  A    between atoms: O_3  and  C_4
REMARK    4  A    between atoms: C_7  and  C_8
REMARK    5  A    between atoms: C_8  and  S_9
REMARK    6  A    between atoms: S_9  and  C_10
REMARK    7  A    between atoms: C_10  and  C_11
REMARK    8  A    between atoms: C_10  and  C_15
REMARK    9  A    between atoms: C_11  and  C_12
REMARK   10  A    between atoms: C_12  and  O_14
REMARK   11  A    between atoms: C_15  and  O_17
REMARK                            x       y       z     vdW  Elec       q    Type
REMARK                         _______ _______ _______ _____ _____    ______ ____
ROOT
ATOM      1  S   UNL     1       5.948   6.812  17.298  0.00  0.00    +0.000 S 
ENDROOT
BRANCH   1   2
ATOM      2  C   UNL     1       4.166   6.852  16.907  0.00  0.00    +0.000 C 
BRANCH   2   6
ATOM      3  C   UNL     1       1.691   4.701  19.718  0.00  0.00    +0.000 A 
ATOM      4  C   UNL     1       2.219   5.948  20.054  0.00  0.00    +0.000 A 
ATOM      5  C   UNL     1       3.009   6.650  19.145  0.00  0.00    +0.000 A 
ATOM      6  C   UNL     1       3.313   6.099  17.892  0.00  0.00    +0.000 A 
ATOM      7  C   UNL     1       2.783   4.844  17.563  0.00  0.00    +0.000 A 
ATOM      8  C   UNL     1       1.985   4.144  18.475  0.00  0.00    +0.000 A 
BRANCH   3   9
ATOM      9  O   UNL     1       0.917   4.125  20.685  0.00  0.00    +0.000 OA
BRANCH   9  11
ATOM     10  C   UNL     1       2.534   2.705  21.694  0.00  0.00    +0.000 C 
ATOM     11  C   UNL     1       1.192   2.757  20.985  0.00  0.00    +0.000 C 
ENDBRANCH   9  11
ENDBRANCH   3   9
ENDBRANCH   2   6
ENDBRANCH   1   2
BRANCH   1  12
ATOM     12  C   UNL     1       6.360   5.041  17.008  0.00  0.00    +0.000 C 
BRANCH  12  13
ATOM     13  C   UNL     1       7.319   4.625  18.124  0.00  0.00    +0.000 C 
ATOM     14  O   UNL     1       7.116   4.874  19.311  0.00  0.00    +0.000 OA
BRANCH  13  15
ATOM     15  O   UNL     1       8.426   3.981  17.703  0.00  0.00    +0.000 OA
ATOM     16  H   UNL     1       9.260   4.473  17.848  0.00  0.00    +0.000 HD
ENDBRANCH  13  15
ENDBRANCH  12  13
BRANCH  12  17
ATOM     17  C   UNL     1       7.057   4.813  15.667  0.00  0.00    +0.000 C 
BRANCH  17  18
ATOM     18  C   UNL     1       6.092   4.212  14.676  0.00  0.00    +0.000 C 
ATOM     19  O   UNL     1       4.879   4.268  14.814  0.00  0.00    +0.000 OA
BRANCH  18  20
ATOM     20  O   UNL     1       6.677   3.565  13.648  0.00  0.00    +0.000 OA
ATOM     21  H   UNL     1       6.724   4.080  12.805  0.00  0.00    +0.000 HD
ENDBRANCH  18  20
ENDBRANCH  17  18
ENDBRANCH  12  17
ENDBRANCH   1  12
TORSDOF 10
ENDMDL
MODEL 6
REMARK VINA RESULT:      -6.0      2.811      3.825
REMARK  Name = 
REMARK  11 active torsions:
REMARK  status: ('A' for Active; 'I' for Inactive)
REMARK    1  A    between atoms: C_1  and  C_2
REMARK    2  A    between atoms: C_2  and  O_3
REMARK    3  A    between atoms: O_3  and  C_4
REMARK    4  A    between atoms: C_7  and  C_8
REMARK    5  A    between atoms: C_8  and  S_9
REMARK    6  A    between atoms: S_9  and  C_10
REMARK    7  A    between atoms: C_10  and  C_11
REMARK    8  A    between atoms: C_10  and  C_15
REMARK    9  A    between atoms: C_11  and  C_12
REMARK   10  A    between atoms: C_12  and  O_14
REMARK   11  A    between atoms: C_15  and  O_17
REMARK                            x       y       z     vdW  Elec       q    Type
REMARK                         _______ _______ _______ _____ _____    ______ ____
ROOT
ATOM      1  S   UNL     1       3.580   4.140  16.927  0.00  0.00    +0.000 S 
ENDROOT
BRANCH   1   2
ATOM      2  C   UNL     1       5.371   3.828  16.773  0.00  0.00    +0.000 C 
BRANCH   2   6
ATOM      3  C   UNL     1       7.809   7.054  18.293  0.00  0.00    +0.000 A 
ATOM      4  C   UNL     1       6.998   7.249  17.174  0.00  0.00    +0.000 A 
ATOM      5  C   UNL     1       6.202   6.214  16.687  0.00  0.00    +0.000 A 
ATOM      6  C   UNL     1       6.228   4.950  17.294  0.00  0.00    +0.000 A 
ATOM      7  C   UNL     1       7.049   4.759  18.415  0.00  0.00    +0.000 A 
ATOM      8  C   UNL     1       7.843   5.802  18.905  0.00  0.00    +0.000 A 
BRANCH   3   9
ATOM      9  O   UNL     1       8.525   8.149  18.683  0.00  0.00    +0.000 OA
BRANCH   9  11
ATOM     10  C   UNL     1       9.188  10.426  18.538  0.00  0.00    +0.000 C 
ATOM     11  C   UNL     1       8.288   9.353  17.953  0.00  0.00    +0.000 C 
ENDBRANCH   9  11
ENDBRANCH   3   9
ENDBRANCH   2   6
ENDBRANCH   1   2
BRANCH   1  12
ATOM     12  C   UNL     1       3.298   3.856  18.724  0.00  0.00    +0.000 C 
BRANCH  12  13
ATOM     13  C   UNL     1       3.824   2.455  19.035  0.00  0.00    +0.000 C 
ATOM     14  O   UNL     1       4.751   2.243  19.814  0.00  0.00    +0.000 OA
BRANCH  13  15
ATOM     15  O   UNL     1       3.205   1.462  18.366  0.00  0.00    +0.000 OA
ATOM     16  H   UNL     1       3.657   0.594  18.421  0.00  0.00    +0.000 HD
ENDBRANCH  13  15
ENDBRANCH  12  13
BRANCH  12  17
ATOM     17  C   UNL     1       1.818   3.908  19.101  0.00  0.00    +0.000 C 
BRANCH  17  18
ATOM     18  C   UNL     1       1.662   3.875  20.601  0.00  0.00    +0.000 C 
ATOM     19  O   UNL     1       2.269   4.628  21.347  0.00  0.00    +0.000 OA
BRANCH  18  20
ATOM     20  O   UNL     1       0.834   2.912  21.056  0.00  0.00    +0.000 OA
ATOM     21  H   UNL     1      -0.121   3.051  20.842  0.00  0.00    +0.000 HD
ENDBRANCH  18  20
ENDBRANCH  17  18
ENDBRANCH  12  17
ENDBRANCH   1  12
TORSDOF 10
ENDMDL
MODEL 7
REMARK VINA RESULT:      -6.0      3.296      6.645
REMARK  Name = 
REMARK  11 active torsions:
REMARK  status: ('A' for Active; 'I' for Inactive)
REMARK    1  A    between atoms: C_1  and  C_2
REMARK    2  A    between atoms: C_2  and  O_3
REMARK    3  A    between atoms: O_3  and  C_4
REMARK    4  A    between atoms: C_7  and  C_8
REMARK    5  A    between atoms: C_8  and  S_9
REMARK    6  A    between atoms: S_9  and  C_10
REMARK    7  A    between atoms: C_10  and  C_11
REMARK    8  A    between atoms: C_10  and  C_15
REMARK    9  A    between atoms: C_11  and  C_12
REMARK   10  A    between atoms: C_12  and  O_14
REMARK   11  A    between atoms: C_15  and  O_17
REMARK                            x       y       z     vdW  Elec       q    Type
REMARK                         _______ _______ _______ _____ _____    ______ ____
ROOT
ATOM      1  S   UNL     1       4.611   4.038  16.715  0.00  0.00    +0.000 S 
ENDROOT
BRANCH   1   2
ATOM      2  C   UNL     1       4.260   4.101  18.505  0.00  0.00    +0.000 C 
BRANCH   2   6
ATOM      3  C   UNL     1       1.968   7.557  19.712  0.00  0.00    +0.000 A 
ATOM      4  C   UNL     1       1.977   6.407  20.500  0.00  0.00    +0.000 A 
ATOM      5  C   UNL     1       2.724   5.293  20.120  0.00  0.00    +0.000 A 
ATOM      6  C   UNL     1       3.452   5.300  18.922  0.00  0.00    +0.000 A 
ATOM      7  C   UNL     1       3.434   6.458  18.131  0.00  0.00    +0.000 A 
ATOM      8  C   UNL     1       2.689   7.577  18.519  0.00  0.00    +0.000 A 
BRANCH   3   9
ATOM      9  O   UNL     1       1.215   8.585  20.203  0.00  0.00    +0.000 OA
BRANCH   9  11
ATOM     10  C   UNL     1      -0.235   8.979  22.043  0.00  0.00    +0.000 C 
ATOM     11  C   UNL     1       1.203   8.741  21.621  0.00  0.00    +0.000 C 
ENDBRANCH   9  11
ENDBRANCH   3   9
ENDBRANCH   2   6
ENDBRANCH   1   2
BRANCH   1  12
ATOM     12  C   UNL     1       6.190   4.978  16.605  0.00  0.00    +0.000 C 
BRANCH  12  13
ATOM     13  C   UNL     1       6.792   4.666  15.235  0.00  0.00    +0.000 C 
ATOM     14  O   UNL     1       6.412   3.732  14.531  0.00  0.00    +0.000 OA
BRANCH  13  15
ATOM     15  O   UNL     1       7.796   5.485  14.862  0.00  0.00    +0.000 OA
ATOM     16  H   UNL     1       7.853   6.316  15.377  0.00  0.00    +0.000 HD
ENDBRANCH  13  15
ENDBRANCH  12  13
BRANCH  12  17
ATOM     17  C   UNL     1       7.197   4.561  17.677  0.00  0.00    +0.000 C 
BRANCH  17  18
ATOM     18  C   UNL     1       7.459   5.710  18.618  0.00  0.00    +0.000 C 
ATOM     19  O   UNL     1       7.824   6.811  18.235  0.00  0.00    +0.000 OA
BRANCH  18  20
ATOM     20  O   UNL     1       7.305   5.410  19.924  0.00  0.00    +0.000 OA
ATOM     21  H   UNL     1       8.130   5.470  20.464  0.00  0.00    +0.000 HD
ENDBRANCH  18  20
ENDBRANCH  17  18
ENDBRANCH  12  17
ENDBRANCH   1  12
TORSDOF 10
ENDMDL
MODEL 8
REMARK VINA RESULT:      -6.0      2.409      6.769
REMARK  Name = 
REMARK  11 active torsions:
REMARK  status: ('A' for Active; 'I' for Inactive)
REMARK    1  A    between atoms: C_1  and  C_2
REMARK    2  A    between atoms: C_2  and  O_3
REMARK    3  A    between atoms: O_3  and  C_4
REMARK    4  A    between atoms: C_7  and  C_8
REMARK    5  A    between atoms: C_8  and  S_9
REMARK    6  A    between atoms: S_9  and  C_10
REMARK    7  A    between atoms: C_10  and  C_11
REMARK    8  A    between atoms: C_10  and  C_15
REMARK    9  A    between atoms: C_11  and  C_12
REMARK   10  A    between atoms: C_12  and  O_14
REMARK   11  A    between atoms: C_15  and  O_17
REMARK                            x       y       z     vdW  Elec       q    Type
REMARK                         _______ _______ _______ _____ _____    ______ ____
ROOT
ATOM      1  S   UNL     1       5.189   6.348  16.279  0.00  0.00    +0.000 S 
ENDROOT
BRANCH   1   2
ATOM      2  C   UNL     1       4.068   7.310  17.350  0.00  0.00    +0.000 C 
BRANCH   2   6
ATOM      3  C   UNL     1       1.537   4.857  19.847  0.00  0.00    +0.000 A 
ATOM      4  C   UNL     1       2.003   4.373  18.625  0.00  0.00    +0.000 A 
ATOM      5  C   UNL     1       2.829   5.157  17.821  0.00  0.00    +0.000 A 
ATOM      6  C   UNL     1       3.177   6.457  18.214  0.00  0.00    +0.000 A 
ATOM      7  C   UNL     1       2.701   6.939  19.442  0.00  0.00    +0.000 A 
ATOM      8  C   UNL     1       1.878   6.147  20.249  0.00  0.00    +0.000 A 
BRANCH   3   9
ATOM      9  O   UNL     1       0.754   3.985  20.550  0.00  0.00    +0.000 OA
BRANCH   9  11
ATOM     10  C   UNL     1       1.932   2.384  21.850  0.00  0.00    +0.000 C 
ATOM     11  C   UNL     1       1.173   2.621  20.558  0.00  0.00    +0.000 C 
ENDBRANCH   9  11
ENDBRANCH   3   9
ENDBRANCH   2   6
ENDBRANCH   1   2
BRANCH   1  12
ATOM     12  C   UNL     1       6.438   5.738  17.487  0.00  0.00    +0.000 C 
BRANCH  12  13
ATOM     13  C   UNL     1       7.432   6.878  17.704  0.00  0.00    +0.000 C 
ATOM     14  O   UNL     1       7.601   7.786  16.893  0.00  0.00    +0.000 OA
BRANCH  13  15
ATOM     15  O   UNL     1       8.136   6.799  18.851  0.00  0.00    +0.000 OA
ATOM     16  H   UNL     1       8.188   5.899  19.233  0.00  0.00    +0.000 HD
ENDBRANCH  13  15
ENDBRANCH  12  13
BRANCH  12  17
ATOM     17  C   UNL     1       7.207   4.522  16.972  0.00  0.00    +0.000 C 
BRANCH  17  18
ATOM     18  C   UNL     1       7.072   4.418  15.473  0.00  0.00    +0.000 C 
ATOM     19  O   UNL     1       7.658   5.164  14.702  0.00  0.00    +0.000 OA
BRANCH  18  20
ATOM     20  O   UNL     1       6.213   3.468  15.053  0.00  0.00    +0.000 OA
ATOM     21  H   UNL     1       6.640   2.651  14.695  0.00  0.00    +0.000 HD
ENDBRANCH  18  20
ENDBRANCH  17  18
ENDBRANCH  12  17
ENDBRANCH   1  12
TORSDOF 10
ENDMDL
MODEL 9
REMARK VINA RESULT:      -6.0      3.611      7.056
REMARK  Name = 
REMARK  11 active torsions:
REMARK  status: ('A' for Active; 'I' for Inactive)
REMARK    1  A    between atoms: C_1  and  C_2
REMARK    2  A    between atoms: C_2  and  O_3
REMARK    3  A    between atoms: O_3  and  C_4
REMARK    4  A    between atoms: C_7  and  C_8
REMARK    5  A    between atoms: C_8  and  S_9
REMARK    6  A    between atoms: S_9  and  C_10
REMARK    7  A    between atoms: C_10  and  C_11
REMARK    8  A    between atoms: C_10  and  C_15
REMARK    9  A    between atoms: C_11  and  C_12
REMARK   10  A    between atoms: C_12  and  O_14
REMARK   11  A    between atoms: C_15  and  O_17
REMARK                            x       y       z     vdW  Elec       q    Type
REMARK                         _______ _______ _______ _____ _____    ______ ____
ROOT
ATOM      1  S   UNL     1       4.861   5.198  17.021  0.00  0.00    +0.000 S 
ENDROOT
BRANCH   1   2
ATOM      2  C   UNL     1       4.202   6.895  16.901  0.00  0.00    +0.000 C 
BRANCH   2   6
ATOM      3  C   UNL     1       1.518   7.959  20.113  0.00  0.00    +0.000 A 
ATOM      4  C   UNL     1       2.222   6.755  20.152  0.00  0.00    +0.000 A 
ATOM      5  C   UNL     1       3.098   6.413  19.123  0.00  0.00    +0.000 A 
ATOM      6  C   UNL     1       3.259   7.259  18.016  0.00  0.00    +0.000 A 
ATOM      7  C   UNL     1       2.544   8.464  17.981  0.00  0.00    +0.000 A 
ATOM      8  C   UNL     1       1.671   8.808  19.019  0.00  0.00    +0.000 A 
BRANCH   3   9
ATOM      9  O   UNL     1       0.709   8.187  21.190  0.00  0.00    +0.000 OA
BRANCH   9  11
ATOM     10  C   UNL     1       0.035   9.440  23.092  0.00  0.00    +0.000 C 
ATOM     11  C   UNL     1       1.185   9.126  22.153  0.00  0.00    +0.000 C 
ENDBRANCH   9  11
ENDBRANCH   3   9
ENDBRANCH   2   6
ENDBRANCH   1   2
BRANCH   1  12
ATOM     12  C   UNL     1       6.648   5.457  16.662  0.00  0.00    +0.000 C 
BRANCH  12  13
ATOM     13  C   UNL     1       6.926   4.793  15.314  0.00  0.00    +0.000 C 
ATOM     14  O   UNL     1       6.398   3.740  14.962  0.00  0.00    +0.000 OA
BRANCH  13  15
ATOM     15  O   UNL     1       7.820   5.442  14.542  0.00  0.00    +0.000 OA
ATOM     16  H   UNL     1       7.686   5.322  13.579  0.00  0.00    +0.000 HD
ENDBRANCH  13  15
ENDBRANCH  12  13
BRANCH  12  17
ATOM     17  C   UNL     1       7.555   4.814  17.710  0.00  0.00    +0.000 C 
BRANCH  17  18
ATOM     18  C   UNL     1       7.587   5.658  18.960  0.00  0.00    +0.000 C 
ATOM     19  O   UNL     1       7.011   5.339  19.989  0.00  0.00    +0.000 OA
BRANCH  18  20
ATOM     20  O   UNL     1       8.262   6.818  18.834  0.00  0.00    +0.000 OA
ATOM     21  H   UNL     1       8.180   7.253  17.950  0.00  0.00    +0.000 HD
ENDBRANCH  18  20
ENDBRANCH  17  18
ENDBRANCH  12  17
ENDBRANCH   1  12
TORSDOF 10
ENDMDL
