MODEL 1
REMARK VINA RESULT:      -8.7      0.000      0.000
REMARK  Name = 
REMARK  6 active torsions:
REMARK  status: ('A' for Active; 'I' for Inactive)
REMARK    1  A    between atoms: C_2  and  C_3
REMARK    2  A    between atoms: C_2  and  C_20
REMARK    3  A    between atoms: C_6  and  C_7
REMARK    4  A    between atoms: N_9  and  C_10
REMARK    5  A    between atoms: C_24  and  C_26
REMARK    6  A    between atoms: C_30  and  O_31
REMARK                            x       y       z     vdW  Elec       q    Type
REMARK                         _______ _______ _______ _____ _____    ______ ____
ROOT
ATOM      1  O   UNL     1       1.964   8.901  22.252  0.00  0.00    +0.000 OA
ATOM      2  C   UNL     1       1.309   8.488  21.300  0.00  0.00    +0.000 C 
ENDROOT
BRANCH   2   3
ATOM      3  C   UNL     1      -0.189   8.741  21.135  0.00  0.00    +0.000 C 
ATOM      4  C   UNL     1      -0.490   9.692  19.974  0.00  0.00    +0.000 C 
ATOM      5  C   UNL     1      -0.178  11.148  20.308  0.00  0.00    +0.000 C 
ATOM      6  N   UNL     1      -0.826  11.544  21.555  0.00  0.00    +0.000 N 
ATOM      7  C   UNL     1      -1.751  12.589  21.522  0.00  0.00    +0.000 C 
ATOM      8  O   UNL     1      -2.117  13.114  20.469  0.00  0.00    +0.000 OA
ATOM      9  C   UNL     1      -0.476  10.715  22.708  0.00  0.00    +0.000 C 
ATOM     10  C   UNL     1      -0.786   9.247  22.448  0.00  0.00    +0.000 C 
BRANCH   7  11
ATOM     11  C   UNL     1      -2.376  13.095  22.773  0.00  0.00    +0.000 A 
ATOM     12  C   UNL     1      -1.797  14.212  23.393  0.00  0.00    +0.000 A 
ATOM     13  C   UNL     1      -2.371  14.754  24.547  0.00  0.00    +0.000 A 
ATOM     14  C   UNL     1      -3.537  14.199  25.073  0.00  0.00    +0.000 A 
ATOM     15  C   UNL     1      -4.083  13.068  24.476  0.00  0.00    +0.000 A 
ATOM     16  C   UNL     1      -3.481  12.482  23.369  0.00  0.00    +0.000 A 
BRANCH  15  17
ATOM     17  O   UNL     1      -5.232  12.500  24.940  0.00  0.00    +0.000 OA
ATOM     18  H   UNL     1      -5.843  12.374  24.196  0.00  0.00    +0.000 HD
ENDBRANCH  15  17
ENDBRANCH   7  11
ENDBRANCH   2   3
BRANCH   2  19
ATOM     19  C   UNL     1       1.987   7.656  20.281  0.00  0.00    +0.000 A 
ATOM     20  C   UNL     1       2.296   6.331  20.602  0.00  0.00    +0.000 A 
ATOM     21  C   UNL     1       2.920   5.514  19.659  0.00  0.00    +0.000 A 
ATOM     22  C   UNL     1       3.256   6.020  18.392  0.00  0.00    +0.000 A 
ATOM     23  C   UNL     1       2.944   7.350  18.084  0.00  0.00    +0.000 A 
ATOM     24  C   UNL     1       2.309   8.163  19.021  0.00  0.00    +0.000 A 
BRANCH  22  25
ATOM     25  C   UNL     1       3.921   5.207  17.394  0.00  0.00    +0.000 A 
ATOM     26  C   UNL     1       4.619   5.651  16.301  0.00  0.00    +0.000 A 
ATOM     27  N   UNL     1       5.044   4.508  15.668  0.00  0.00    +0.000 N 
ATOM     28  N   UNL     1       4.608   3.421  16.351  0.00  0.00    +0.000 NA
ATOM     29  N   UNL     1       3.932   3.840  17.410  0.00  0.00    +0.000 NA
BRANCH  27  30
ATOM     30  C   UNL     1       5.810   4.401  14.485  0.00  0.00    +0.000 A 
ATOM     31  C   UNL     1       7.008   5.114  14.341  0.00  0.00    +0.000 A 
ATOM     32  C   UNL     1       7.746   5.005  13.162  0.00  0.00    +0.000 A 
ATOM     33  C   UNL     1       7.291   4.192  12.126  0.00  0.00    +0.000 A 
ATOM     34  C   UNL     1       6.102   3.479  12.266  0.00  0.00    +0.000 A 
ATOM     35  C   UNL     1       5.361   3.576  13.443  0.00  0.00    +0.000 A 
ENDBRANCH  27  30
ENDBRANCH  22  25
ENDBRANCH   2  19
TORSDOF 6
ENDMDL
MODEL 2
REMARK VINA RESULT:      -8.6      0.138      1.181
REMARK  Name = 
REMARK  6 active torsions:
REMARK  status: ('A' for Active; 'I' for Inactive)
REMARK    1  A    between atoms: C_2  and  C_3
REMARK    2  A    between atoms: C_2  and  C_20
REMARK    3  A    between atoms: C_6  and  C_7
REMARK    4  A    between atoms: N_9  and  C_10
REMARK    5  A    between atoms: C_24  and  C_26
REMARK    6  A    between atoms: C_30  and  O_31
REMARK                            x       y       z     vdW  Elec       q    Type
REMARK                         _______ _______ _______ _____ _____    ______ ____
ROOT
ATOM      1  O   UNL     1       1.935   8.928  22.289  0.00  0.00    +0.000 OA
ATOM      2  C   UNL     1       1.290   8.506  21.334  0.00  0.00    +0.000 C 
ENDROOT
BRANCH   2   3
ATOM      3  C   UNL     1      -0.204   8.763  21.146  0.00  0.00    +0.000 C 
ATOM      4  C   UNL     1      -0.487   9.700  19.968  0.00  0.00    +0.000 C 
ATOM      5  C   UNL     1      -0.172  11.159  20.286  0.00  0.00    +0.000 C 
ATOM      6  N   UNL     1      -0.834  11.575  21.519  0.00  0.00    +0.000 N 
ATOM      7  C   UNL     1      -1.753  12.624  21.460  0.00  0.00    +0.000 C 
ATOM      8  O   UNL     1      -2.104  13.135  20.396  0.00  0.00    +0.000 OA
ATOM      9  C   UNL     1      -0.502  10.760  22.688  0.00  0.00    +0.000 C 
ATOM     10  C   UNL     1      -0.815   9.291  22.444  0.00  0.00    +0.000 C 
BRANCH   7  11
ATOM     11  C   UNL     1      -2.392  13.150  22.697  0.00  0.00    +0.000 A 
ATOM     12  C   UNL     1      -1.712  14.143  23.416  0.00  0.00    +0.000 A 
ATOM     13  C   UNL     1      -2.287  14.703  24.560  0.00  0.00    +0.000 A 
ATOM     14  C   UNL     1      -3.552  14.290  24.979  0.00  0.00    +0.000 A 
ATOM     15  C   UNL     1      -4.203  13.277  24.283  0.00  0.00    +0.000 A 
ATOM     16  C   UNL     1      -3.609  12.668  23.184  0.00  0.00    +0.000 A 
BRANCH  15  17
ATOM     17  O   UNL     1      -5.448  12.852  24.639  0.00  0.00    +0.000 OA
ATOM     18  H   UNL     1      -5.364  12.033  25.156  0.00  0.00    +0.000 HD
ENDBRANCH  15  17
ENDBRANCH   7  11
ENDBRANCH   2   3
BRANCH   2  19
ATOM     19  C   UNL     1       1.977   7.659  20.333  0.00  0.00    +0.000 A 
ATOM     20  C   UNL     1       2.340   8.233  19.111  0.00  0.00    +0.000 A 
ATOM     21  C   UNL     1       3.004   7.467  18.153  0.00  0.00    +0.000 A 
ATOM     22  C   UNL     1       3.295   6.115  18.401  0.00  0.00    +0.000 A 
ATOM     23  C   UNL     1       2.924   5.551  19.627  0.00  0.00    +0.000 A 
ATOM     24  C   UNL     1       2.272   6.318  20.590  0.00  0.00    +0.000 A 
BRANCH  22  25
ATOM     25  C   UNL     1       3.966   5.285  17.421  0.00  0.00    +0.000 A 
ATOM     26  C   UNL     1       4.607   5.705  16.284  0.00  0.00    +0.000 A 
ATOM     27  N   UNL     1       5.065   4.554  15.693  0.00  0.00    +0.000 N 
ATOM     28  N   UNL     1       4.703   3.483  16.441  0.00  0.00    +0.000 NA
ATOM     29  N   UNL     1       4.042   3.922  17.502  0.00  0.00    +0.000 NA
BRANCH  27  30
ATOM     30  C   UNL     1       5.798   4.423  14.491  0.00  0.00    +0.000 A 
ATOM     31  C   UNL     1       5.317   3.622  13.445  0.00  0.00    +0.000 A 
ATOM     32  C   UNL     1       6.059   3.496  12.269  0.00  0.00    +0.000 A 
ATOM     33  C   UNL     1       7.276   4.160  12.136  0.00  0.00    +0.000 A 
ATOM     34  C   UNL     1       7.755   4.959  13.172  0.00  0.00    +0.000 A 
ATOM     35  C   UNL     1       7.019   5.097  14.348  0.00  0.00    +0.000 A 
ENDBRANCH  27  30
ENDBRANCH  22  25
ENDBRANCH   2  19
TORSDOF 6
ENDMDL
MODEL 3
REMARK VINA RESULT:      -8.1      1.299      1.565
REMARK  Name = 
REMARK  6 active torsions:
REMARK  status: ('A' for Active; 'I' for Inactive)
REMARK    1  A    between atoms: C_2  and  C_3
REMARK    2  A    between atoms: C_2  and  C_20
REMARK    3  A    between atoms: C_6  and  C_7
REMARK    4  A    between atoms: N_9  and  C_10
REMARK    5  A    between atoms: C_24  and  C_26
REMARK    6  A    between atoms: C_30  and  O_31
REMARK                            x       y       z     vdW  Elec       q    Type
REMARK                         _______ _______ _______ _____ _____    ______ ____
ROOT
ATOM      1  O   UNL     1       0.851   8.867  21.594  0.00  0.00    +0.000 OA
ATOM      2  C   UNL     1       0.989   9.147  20.408  0.00  0.00    +0.000 C 
ENDROOT
BRANCH   2   3
ATOM      3  C   UNL     1       0.285  10.323  19.732  0.00  0.00    +0.000 C 
ATOM      4  C   UNL     1       1.170  11.571  19.674  0.00  0.00    +0.000 C 
ATOM      5  C   UNL     1       1.279  12.280  21.022  0.00  0.00    +0.000 C 
ATOM      6  N   UNL     1      -0.045  12.542  21.578  0.00  0.00    +0.000 N 
ATOM      7  C   UNL     1      -0.416  13.866  21.819  0.00  0.00    +0.000 C 
ATOM      8  O   UNL     1       0.287  14.820  21.481  0.00  0.00    +0.000 OA
ATOM      9  C   UNL     1      -0.878  11.351  21.743  0.00  0.00    +0.000 C 
ATOM     10  C   UNL     1      -1.047  10.608  20.424  0.00  0.00    +0.000 C 
BRANCH   7  11
ATOM     11  C   UNL     1      -1.716  14.189  22.466  0.00  0.00    +0.000 A 
ATOM     12  C   UNL     1      -2.822  14.427  21.638  0.00  0.00    +0.000 A 
ATOM     13  C   UNL     1      -4.076  14.691  22.195  0.00  0.00    +0.000 A 
ATOM     14  C   UNL     1      -4.237  14.697  23.581  0.00  0.00    +0.000 A 
ATOM     15  C   UNL     1      -3.127  14.500  24.396  0.00  0.00    +0.000 A 
ATOM     16  C   UNL     1      -1.864  14.303  23.850  0.00  0.00    +0.000 A 
BRANCH  15  17
ATOM     17  O   UNL     1      -3.234  14.477  25.755  0.00  0.00    +0.000 OA
ATOM     18  H   UNL     1      -4.067  14.907  26.011  0.00  0.00    +0.000 HD
ENDBRANCH  15  17
ENDBRANCH   7  11
ENDBRANCH   2   3
BRANCH   2  19
ATOM     19  C   UNL     1       1.840   8.275  19.568  0.00  0.00    +0.000 A 
ATOM     20  C   UNL     1       2.225   7.031  20.076  0.00  0.00    +0.000 A 
ATOM     21  C   UNL     1       3.013   6.177  19.304  0.00  0.00    +0.000 A 
ATOM     22  C   UNL     1       3.438   6.567  18.023  0.00  0.00    +0.000 A 
ATOM     23  C   UNL     1       3.050   7.817  17.527  0.00  0.00    +0.000 A 
ATOM     24  C   UNL     1       2.252   8.665  18.292  0.00  0.00    +0.000 A 
BRANCH  22  25
ATOM     25  C   UNL     1       4.273   5.715  17.201  0.00  0.00    +0.000 A 
ATOM     26  C   UNL     1       4.710   5.970  15.927  0.00  0.00    +0.000 A 
ATOM     27  N   UNL     1       5.452   4.867  15.583  0.00  0.00    +0.000 N 
ATOM     28  N   UNL     1       5.451   3.980  16.608  0.00  0.00    +0.000 NA
ATOM     29  N   UNL     1       4.743   4.495  17.602  0.00  0.00    +0.000 NA
BRANCH  27  30
ATOM     30  C   UNL     1       6.133   4.619  14.368  0.00  0.00    +0.000 A 
ATOM     31  C   UNL     1       7.305   5.318  14.050  0.00  0.00    +0.000 A 
ATOM     32  C   UNL     1       7.957   5.068  12.842  0.00  0.00    +0.000 A 
ATOM     33  C   UNL     1       7.442   4.129  11.951  0.00  0.00    +0.000 A 
ATOM     34  C   UNL     1       6.279   3.430  12.266  0.00  0.00    +0.000 A 
ATOM     35  C   UNL     1       5.623   3.668  13.473  0.00  0.00    +0.000 A 
ENDBRANCH  27  30
ENDBRANCH  22  25
ENDBRANCH   2  19
TORSDOF 6
ENDMDL
MODEL 4
REMARK VINA RESULT:      -7.9      3.730     12.595
REMARK  Name = 
REMARK  6 active torsions:
REMARK  status: ('A' for Active; 'I' for Inactive)
REMARK    1  A    between atoms: C_2  and  C_3
REMARK    2  A    between atoms: C_2  and  C_20
REMARK    3  A    between atoms: C_6  and  C_7
REMARK    4  A    between atoms: N_9  and  C_10
REMARK    5  A    between atoms: C_24  and  C_26
REMARK    6  A    between atoms: C_30  and  O_31
REMARK                            x       y       z     vdW  Elec       q    Type
REMARK                         _______ _______ _______ _____ _____    ______ ____
ROOT
ATOM      1  O   UNL     1       2.417  11.437  17.980  0.00  0.00    +0.000 OA
ATOM      2  C   UNL     1       1.437  11.127  18.649  0.00  0.00    +0.000 C 
ENDROOT
BRANCH   2   3
ATOM      3  C   UNL     1       0.676   9.814  18.471  0.00  0.00    +0.000 C 
ATOM      4  C   UNL     1       0.323   9.163  19.811  0.00  0.00    +0.000 C 
ATOM      5  C   UNL     1       1.523   8.495  20.476  0.00  0.00    +0.000 C 
ATOM      6  N   UNL     1       2.184   7.578  19.552  0.00  0.00    +0.000 N 
ATOM      7  C   UNL     1       2.260   6.227  19.894  0.00  0.00    +0.000 C 
ATOM      8  O   UNL     1       1.700   5.765  20.889  0.00  0.00    +0.000 OA
ATOM      9  C   UNL     1       2.627   8.196  18.302  0.00  0.00    +0.000 C 
ATOM     10  C   UNL     1       1.468   8.863  17.574  0.00  0.00    +0.000 C 
BRANCH   7  11
ATOM     11  C   UNL     1       2.999   5.263  19.035  0.00  0.00    +0.000 A 
ATOM     12  C   UNL     1       2.291   4.618  18.010  0.00  0.00    +0.000 A 
ATOM     13  C   UNL     1       2.947   3.736  17.147  0.00  0.00    +0.000 A 
ATOM     14  C   UNL     1       4.316   3.511  17.288  0.00  0.00    +0.000 A 
ATOM     15  C   UNL     1       5.003   4.123  18.331  0.00  0.00    +0.000 A 
ATOM     16  C   UNL     1       4.345   4.948  19.234  0.00  0.00    +0.000 A 
BRANCH  15  17
ATOM     17  O   UNL     1       6.345   3.950  18.500  0.00  0.00    +0.000 OA
ATOM     18  H   UNL     1       6.778   4.820  18.482  0.00  0.00    +0.000 HD
ENDBRANCH  15  17
ENDBRANCH   7  11
ENDBRANCH   2   3
BRANCH   2  19
ATOM     19  C   UNL     1       0.926  12.092  19.649  0.00  0.00    +0.000 A 
ATOM     20  C   UNL     1      -0.456  12.191  19.833  0.00  0.00    +0.000 A 
ATOM     21  C   UNL     1      -0.969  13.079  20.779  0.00  0.00    +0.000 A 
ATOM     22  C   UNL     1      -0.106  13.888  21.536  0.00  0.00    +0.000 A 
ATOM     23  C   UNL     1       1.276  13.782  21.340  0.00  0.00    +0.000 A 
ATOM     24  C   UNL     1       1.791  12.886  20.404  0.00  0.00    +0.000 A 
BRANCH  22  25
ATOM     25  C   UNL     1      -0.604  14.834  22.514  0.00  0.00    +0.000 A 
ATOM     26  C   UNL     1      -1.910  15.203  22.713  0.00  0.00    +0.000 A 
ATOM     27  N   UNL     1      -1.864  16.121  23.732  0.00  0.00    +0.000 N 
ATOM     28  N   UNL     1      -0.578  16.304  24.123  0.00  0.00    +0.000 NA
ATOM     29  N   UNL     1       0.194  15.514  23.391  0.00  0.00    +0.000 NA
BRANCH  27  30
ATOM     30  C   UNL     1      -2.941  16.816  24.329  0.00  0.00    +0.000 A 
ATOM     31  C   UNL     1      -2.709  17.942  25.132  0.00  0.00    +0.000 A 
ATOM     32  C   UNL     1      -3.783  18.608  25.722  0.00  0.00    +0.000 A 
ATOM     33  C   UNL     1      -5.085  18.154  25.518  0.00  0.00    +0.000 A 
ATOM     34  C   UNL     1      -5.319  17.038  24.718  0.00  0.00    +0.000 A 
ATOM     35  C   UNL     1      -4.253  16.368  24.119  0.00  0.00    +0.000 A 
ENDBRANCH  27  30
ENDBRANCH  22  25
ENDBRANCH   2  19
TORSDOF 6
ENDMDL
MODEL 5
REMARK VINA RESULT:      -7.8      1.291      1.482
REMARK  Name = 
REMARK  6 active torsions:
REMARK  status: ('A' for Active; 'I' for Inactive)
REMARK    1  A    between atoms: C_2  and  C_3
REMARK    2  A    between atoms: C_2  and  C_20
REMARK    3  A    between atoms: C_6  and  C_7
REMARK    4  A    between atoms: N_9  and  C_10
REMARK    5  A    between atoms: C_24  and  C_26
REMARK    6  A    between atoms: C_30  and  O_31
REMARK                            x       y       z     vdW  Elec       q    Type
REMARK                         _______ _______ _______ _____ _____    ______ ____
ROOT
ATOM      1  O   UNL     1       1.493   8.637  22.254  0.00  0.00    +0.000 OA
ATOM      2  C   UNL     1       1.114   8.591  21.088  0.00  0.00    +0.000 C 
ENDROOT
BRANCH   2   3
ATOM      3  C   UNL     1      -0.136   9.306  20.580  0.00  0.00    +0.000 C 
ATOM      4  C   UNL     1       0.190  10.346  19.503  0.00  0.00    +0.000 C 
ATOM      5  C   UNL     1       0.807  11.617  20.080  0.00  0.00    +0.000 C 
ATOM      6  N   UNL     1      -0.019  12.151  21.159  0.00  0.00    +0.000 N 
ATOM      7  C   UNL     1      -0.551  13.434  21.019  0.00  0.00    +0.000 C 
ATOM      8  O   UNL     1      -0.439  14.085  19.979  0.00  0.00    +0.000 OA
ATOM      9  C   UNL     1      -0.262  11.212  22.255  0.00  0.00    +0.000 C 
ATOM     10  C   UNL     1      -0.901   9.926  21.748  0.00  0.00    +0.000 C 
BRANCH   7  11
ATOM     11  C   UNL     1      -1.325  14.064  22.123  0.00  0.00    +0.000 A 
ATOM     12  C   UNL     1      -2.716  14.168  21.975  0.00  0.00    +0.000 A 
ATOM     13  C   UNL     1      -3.494  14.712  23.000  0.00  0.00    +0.000 A 
ATOM     14  C   UNL     1      -2.893  15.133  24.185  0.00  0.00    +0.000 A 
ATOM     15  C   UNL     1      -1.509  15.063  24.309  0.00  0.00    +0.000 A 
ATOM     16  C   UNL     1      -0.721  14.586  23.269  0.00  0.00    +0.000 A 
BRANCH  15  17
ATOM     17  O   UNL     1      -0.874  15.443  25.455  0.00  0.00    +0.000 OA
ATOM     18  H   UNL     1      -1.050  16.385  25.612  0.00  0.00    +0.000 HD
ENDBRANCH  15  17
ENDBRANCH   7  11
ENDBRANCH   2   3
BRANCH   2  19
ATOM     19  C   UNL     1       1.872   7.757  20.128  0.00  0.00    +0.000 A 
ATOM     20  C   UNL     1       2.200   6.449  20.497  0.00  0.00    +0.000 A 
ATOM     21  C   UNL     1       2.899   5.631  19.609  0.00  0.00    +0.000 A 
ATOM     22  C   UNL     1       3.294   6.119  18.352  0.00  0.00    +0.000 A 
ATOM     23  C   UNL     1       2.963   7.432  17.997  0.00  0.00    +0.000 A 
ATOM     24  C   UNL     1       2.253   8.246  18.877  0.00  0.00    +0.000 A 
BRANCH  22  25
ATOM     25  C   UNL     1       4.038   5.305  17.413  0.00  0.00    +0.000 A 
ATOM     26  C   UNL     1       4.584   5.710  16.223  0.00  0.00    +0.000 A 
ATOM     27  N   UNL     1       5.170   4.581  15.704  0.00  0.00    +0.000 N 
ATOM     28  N   UNL     1       4.973   3.538  16.546  0.00  0.00    +0.000 NA
ATOM     29  N   UNL     1       4.293   3.974  17.596  0.00  0.00    +0.000 NA
BRANCH  27  30
ATOM     30  C   UNL     1       5.877   4.448  14.487  0.00  0.00    +0.000 A 
ATOM     31  C   UNL     1       7.117   5.078  14.307  0.00  0.00    +0.000 A 
ATOM     32  C   UNL     1       7.795   4.945  13.095  0.00  0.00    +0.000 A 
ATOM     33  C   UNL     1       7.240   4.190  12.063  0.00  0.00    +0.000 A 
ATOM     34  C   UNL     1       6.011   3.560  12.240  0.00  0.00    +0.000 A 
ATOM     35  C   UNL     1       5.328   3.682  13.449  0.00  0.00    +0.000 A 
ENDBRANCH  27  30
ENDBRANCH  22  25
ENDBRANCH   2  19
TORSDOF 6
ENDMDL
MODEL 6
REMARK VINA RESULT:      -7.8      4.108      5.934
REMARK  Name = 
REMARK  6 active torsions:
REMARK  status: ('A' for Active; 'I' for Inactive)
REMARK    1  A    between atoms: C_2  and  C_3
REMARK    2  A    between atoms: C_2  and  C_20
REMARK    3  A    between atoms: C_6  and  C_7
REMARK    4  A    between atoms: N_9  and  C_10
REMARK    5  A    between atoms: C_24  and  C_26
REMARK    6  A    between atoms: C_30  and  O_31
REMARK                            x       y       z     vdW  Elec       q    Type
REMARK                         _______ _______ _______ _____ _____    ______ ____
ROOT
ATOM      1  O   UNL     1      -2.039  11.888  19.179  0.00  0.00    +0.000 OA
ATOM      2  C   UNL     1      -0.948  11.879  19.739  0.00  0.00    +0.000 C 
ENDROOT
BRANCH   2   3
ATOM      3  C   UNL     1      -0.442  13.022  20.617  0.00  0.00    +0.000 C 
ATOM      4  C   UNL     1      -1.001  14.379  20.180  0.00  0.00    +0.000 C 
ATOM      5  C   UNL     1      -0.329  14.915  18.919  0.00  0.00    +0.000 C 
ATOM      6  N   UNL     1       1.123  14.915  19.067  0.00  0.00    +0.000 N 
ATOM      7  C   UNL     1       1.802  16.133  18.977  0.00  0.00    +0.000 C 
ATOM      8  O   UNL     1       1.213  17.211  18.886  0.00  0.00    +0.000 OA
ATOM      9  C   UNL     1       1.700  13.609  19.383  0.00  0.00    +0.000 C 
ATOM     10  C   UNL     1       1.087  13.026  20.649  0.00  0.00    +0.000 C 
BRANCH   7  11
ATOM     11  C   UNL     1       3.287  16.184  19.030  0.00  0.00    +0.000 A 
ATOM     12  C   UNL     1       3.883  17.026  19.980  0.00  0.00    +0.000 A 
ATOM     13  C   UNL     1       5.274  17.079  20.102  0.00  0.00    +0.000 A 
ATOM     14  C   UNL     1       6.077  16.276  19.292  0.00  0.00    +0.000 A 
ATOM     15  C   UNL     1       5.481  15.474  18.325  0.00  0.00    +0.000 A 
ATOM     16  C   UNL     1       4.102  15.465  18.152  0.00  0.00    +0.000 A 
BRANCH  15  17
ATOM     17  O   UNL     1       6.219  14.656  17.522  0.00  0.00    +0.000 OA
ATOM     18  H   UNL     1       7.092  15.059  17.381  0.00  0.00    +0.000 HD
ENDBRANCH  15  17
ENDBRANCH   7  11
ENDBRANCH   2   3
BRANCH   2  19
ATOM     19  C   UNL     1      -0.046  10.726  19.516  0.00  0.00    +0.000 A 
ATOM     20  C   UNL     1       0.281   9.916  20.606  0.00  0.00    +0.000 A 
ATOM     21  C   UNL     1       1.114   8.811  20.427  0.00  0.00    +0.000 A 
ATOM     22  C   UNL     1       1.642   8.518  19.158  0.00  0.00    +0.000 A 
ATOM     23  C   UNL     1       1.310   9.340  18.075  0.00  0.00    +0.000 A 
ATOM     24  C   UNL     1       0.467  10.436  18.250  0.00  0.00    +0.000 A 
BRANCH  22  25
ATOM     25  C   UNL     1       2.526   7.391  18.939  0.00  0.00    +0.000 A 
ATOM     26  C   UNL     1       3.450   7.251  17.936  0.00  0.00    +0.000 A 
ATOM     27  N   UNL     1       4.020   6.021  18.152  0.00  0.00    +0.000 N 
ATOM     28  N   UNL     1       3.451   5.441  19.238  0.00  0.00    +0.000 NA
ATOM     29  N   UNL     1       2.547   6.275  19.729  0.00  0.00    +0.000 NA
BRANCH  27  30
ATOM     30  C   UNL     1       5.037   5.387  17.402  0.00  0.00    +0.000 A 
ATOM     31  C   UNL     1       4.750   4.801  16.161  0.00  0.00    +0.000 A 
ATOM     32  C   UNL     1       5.763   4.170  15.439  0.00  0.00    +0.000 A 
ATOM     33  C   UNL     1       7.058   4.117  15.952  0.00  0.00    +0.000 A 
ATOM     34  C   UNL     1       7.347   4.701  17.183  0.00  0.00    +0.000 A 
ATOM     35  C   UNL     1       6.343   5.340  17.909  0.00  0.00    +0.000 A 
ENDBRANCH  27  30
ENDBRANCH  22  25
ENDBRANCH   2  19
TORSDOF 6
ENDMDL
MODEL 7
REMARK VINA RESULT:      -7.8      1.113      1.672
REMARK  Name = 
REMARK  6 active torsions:
REMARK  status: ('A' for Active; 'I' for Inactive)
REMARK    1  A    between atoms: C_2  and  C_3
REMARK    2  A    between atoms: C_2  and  C_20
REMARK    3  A    between atoms: C_6  and  C_7
REMARK    4  A    between atoms: N_9  and  C_10
REMARK    5  A    between atoms: C_24  and  C_26
REMARK    6  A    between atoms: C_30  and  O_31
REMARK                            x       y       z     vdW  Elec       q    Type
REMARK                         _______ _______ _______ _____ _____    ______ ____
ROOT
ATOM      1  O   UNL     1       1.199   8.829  22.129  0.00  0.00    +0.000 OA
ATOM      2  C   UNL     1       1.027   8.930  20.918  0.00  0.00    +0.000 C 
ENDROOT
BRANCH   2   3
ATOM      3  C   UNL     1       0.014   9.885  20.288  0.00  0.00    +0.000 C 
ATOM      4  C   UNL     1       0.683  11.131  19.699  0.00  0.00    +0.000 C 
ATOM      5  C   UNL     1       1.113  12.131  20.768  0.00  0.00    +0.000 C 
ATOM      6  N   UNL     1       0.001  12.446  21.660  0.00  0.00    +0.000 N 
ATOM      7  C   UNL     1      -0.435  13.770  21.739  0.00  0.00    +0.000 C 
ATOM      8  O   UNL     1       0.011  14.657  21.009  0.00  0.00    +0.000 OA
ATOM      9  C   UNL     1      -0.594  11.284  22.320  0.00  0.00    +0.000 C 
ATOM     10  C   UNL     1      -1.067  10.253  21.303  0.00  0.00    +0.000 C 
BRANCH   7  11
ATOM     11  C   UNL     1      -1.504  14.166  22.695  0.00  0.00    +0.000 A 
ATOM     12  C   UNL     1      -1.122  14.530  23.995  0.00  0.00    +0.000 A 
ATOM     13  C   UNL     1      -2.081  14.953  24.919  0.00  0.00    +0.000 A 
ATOM     14  C   UNL     1      -3.422  15.036  24.544  0.00  0.00    +0.000 A 
ATOM     15  C   UNL     1      -3.798  14.636  23.266  0.00  0.00    +0.000 A 
ATOM     16  C   UNL     1      -2.860  14.151  22.363  0.00  0.00    +0.000 A 
BRANCH  15  17
ATOM     17  O   UNL     1      -5.093  14.717  22.845  0.00  0.00    +0.000 OA
ATOM     18  H   UNL     1      -5.625  15.132  23.544  0.00  0.00    +0.000 HD
ENDBRANCH  15  17
ENDBRANCH   7  11
ENDBRANCH   2   3
BRANCH   2  19
ATOM     19  C   UNL     1       1.799   8.047  20.016  0.00  0.00    +0.000 A 
ATOM     20  C   UNL     1       2.136   8.523  18.746  0.00  0.00    +0.000 A 
ATOM     21  C   UNL     1       2.878   7.723  17.877  0.00  0.00    +0.000 A 
ATOM     22  C   UNL     1       3.276   6.432  18.265  0.00  0.00    +0.000 A 
ATOM     23  C   UNL     1       2.930   5.966  19.539  0.00  0.00    +0.000 A 
ATOM     24  C   UNL     1       2.199   6.769  20.412  0.00  0.00    +0.000 A 
BRANCH  22  25
ATOM     25  C   UNL     1       4.031   5.566  17.382  0.00  0.00    +0.000 A 
ATOM     26  C   UNL     1       4.587   5.903  16.175  0.00  0.00    +0.000 A 
ATOM     27  N   UNL     1       5.182   4.748  15.728  0.00  0.00    +0.000 N 
ATOM     28  N   UNL     1       4.980   3.755  16.629  0.00  0.00    +0.000 NA
ATOM     29  N   UNL     1       4.288   4.249  17.644  0.00  0.00    +0.000 NA
BRANCH  27  30
ATOM     30  C   UNL     1       5.900   4.546  14.528  0.00  0.00    +0.000 A 
ATOM     31  C   UNL     1       5.403   3.694  13.532  0.00  0.00    +0.000 A 
ATOM     32  C   UNL     1       6.132   3.497  12.358  0.00  0.00    +0.000 A 
ATOM     33  C   UNL     1       7.353   4.143  12.177  0.00  0.00    +0.000 A 
ATOM     34  C   UNL     1       7.848   4.994  13.162  0.00  0.00    +0.000 A 
ATOM     35  C   UNL     1       7.125   5.202  14.337  0.00  0.00    +0.000 A 
ENDBRANCH  27  30
ENDBRANCH  22  25
ENDBRANCH   2  19
TORSDOF 6
ENDMDL
MODEL 8
REMARK VINA RESULT:      -7.8      3.232      4.396
REMARK  Name = 
REMARK  6 active torsions:
REMARK  status: ('A' for Active; 'I' for Inactive)
REMARK    1  A    between atoms: C_2  and  C_3
REMARK    2  A    between atoms: C_2  and  C_20
REMARK    3  A    between atoms: C_6  and  C_7
REMARK    4  A    between atoms: N_9  and  C_10
REMARK    5  A    between atoms: C_24  and  C_26
REMARK    6  A    between atoms: C_30  and  O_31
REMARK                            x       y       z     vdW  Elec       q    Type
REMARK                         _______ _______ _______ _____ _____    ______ ____
ROOT
ATOM      1  O   UNL     1      -0.885   9.811  19.999  0.00  0.00    +0.000 OA
ATOM      2  C   UNL     1       0.315  10.051  20.089  0.00  0.00    +0.000 C 
ENDROOT
BRANCH   2   3
ATOM      3  C   UNL     1       0.878  11.273  20.812  0.00  0.00    +0.000 C 
ATOM      4  C   UNL     1      -0.193  12.010  21.622  0.00  0.00    +0.000 C 
ATOM      5  C   UNL     1      -1.131  12.835  20.745  0.00  0.00    +0.000 C 
ATOM      6  N   UNL     1      -0.374  13.716  19.861  0.00  0.00    +0.000 N 
ATOM      7  C   UNL     1      -0.567  15.095  19.970  0.00  0.00    +0.000 C 
ATOM      8  O   UNL     1      -1.267  15.596  20.852  0.00  0.00    +0.000 OA
ATOM      9  C   UNL     1       0.586  13.028  18.998  0.00  0.00    +0.000 C 
ATOM     10  C   UNL     1       1.571  12.202  19.816  0.00  0.00    +0.000 C 
BRANCH   7  11
ATOM     11  C   UNL     1       0.109  16.036  19.038  0.00  0.00    +0.000 A 
ATOM     12  C   UNL     1      -0.695  16.869  18.246  0.00  0.00    +0.000 A 
ATOM     13  C   UNL     1      -0.111  17.802  17.386  0.00  0.00    +0.000 A 
ATOM     14  C   UNL     1       1.277  17.925  17.328  0.00  0.00    +0.000 A 
ATOM     15  C   UNL     1       2.069  17.070  18.087  0.00  0.00    +0.000 A 
ATOM     16  C   UNL     1       1.497  16.094  18.894  0.00  0.00    +0.000 A 
BRANCH  15  17
ATOM     17  O   UNL     1       3.429  17.163  18.081  0.00  0.00    +0.000 OA
ATOM     18  H   UNL     1       3.709  17.713  18.832  0.00  0.00    +0.000 HD
ENDBRANCH  15  17
ENDBRANCH   7  11
ENDBRANCH   2   3
BRANCH   2  19
ATOM     19  C   UNL     1       1.271   9.140  19.421  0.00  0.00    +0.000 A 
ATOM     20  C   UNL     1       1.737   8.028  20.129  0.00  0.00    +0.000 A 
ATOM     21  C   UNL     1       2.626   7.141  19.523  0.00  0.00    +0.000 A 
ATOM     22  C   UNL     1       3.072   7.366  18.209  0.00  0.00    +0.000 A 
ATOM     23  C   UNL     1       2.600   8.485  17.512  0.00  0.00    +0.000 A 
ATOM     24  C   UNL     1       1.702   9.366  18.112  0.00  0.00    +0.000 A 
BRANCH  22  25
ATOM     25  C   UNL     1       4.009   6.476  17.555  0.00  0.00    +0.000 A 
ATOM     26  C   UNL     1       4.317   6.440  16.220  0.00  0.00    +0.000 A 
ATOM     27  N   UNL     1       5.239   5.430  16.099  0.00  0.00    +0.000 N 
ATOM     28  N   UNL     1       5.468   4.875  17.315  0.00  0.00    +0.000 NA
ATOM     29  N   UNL     1       4.729   5.515  18.209  0.00  0.00    +0.000 NA
BRANCH  27  30
ATOM     30  C   UNL     1       5.887   4.976  14.927  0.00  0.00    +0.000 A 
ATOM     31  C   UNL     1       7.153   5.463  14.576  0.00  0.00    +0.000 A 
ATOM     32  C   UNL     1       7.772   5.012  13.409  0.00  0.00    +0.000 A 
ATOM     33  C   UNL     1       7.132   4.083  12.592  0.00  0.00    +0.000 A 
ATOM     34  C   UNL     1       5.874   3.594  12.940  0.00  0.00    +0.000 A 
ATOM     35  C   UNL     1       5.250   4.034  14.107  0.00  0.00    +0.000 A 
ENDBRANCH  27  30
ENDBRANCH  22  25
ENDBRANCH   2  19
TORSDOF 6
ENDMDL
MODEL 9
REMARK VINA RESULT:      -7.7      3.473      5.090
REMARK  Name = 
REMARK  6 active torsions:
REMARK  status: ('A' for Active; 'I' for Inactive)
REMARK    1  A    between atoms: C_2  and  C_3
REMARK    2  A    between atoms: C_2  and  C_20
REMARK    3  A    between atoms: C_6  and  C_7
REMARK    4  A    between atoms: N_9  and  C_10
REMARK    5  A    between atoms: C_24  and  C_26
REMARK    6  A    between atoms: C_30  and  O_31
REMARK                            x       y       z     vdW  Elec       q    Type
REMARK                         _______ _______ _______ _____ _____    ______ ____
ROOT
ATOM      1  O   UNL     1      -1.690  11.720  23.313  0.00  0.00    +0.000 OA
ATOM      2  C   UNL     1      -1.220  11.874  22.190  0.00  0.00    +0.000 C 
ENDROOT
BRANCH   2   3
ATOM      3  C   UNL     1      -1.453  13.124  21.345  0.00  0.00    +0.000 C 
ATOM      4  C   UNL     1      -2.026  14.281  22.168  0.00  0.00    +0.000 C 
ATOM      5  C   UNL     1      -3.507  14.099  22.489  0.00  0.00    +0.000 C 
ATOM      6  N   UNL     1      -4.271  13.828  21.276  0.00  0.00    +0.000 N 
ATOM      7  C   UNL     1      -5.284  14.717  20.913  0.00  0.00    +0.000 C 
ATOM      8  O   UNL     1      -5.484  15.772  21.517  0.00  0.00    +0.000 OA
ATOM      9  C   UNL     1      -3.811  12.663  20.520  0.00  0.00    +0.000 C 
ATOM     10  C   UNL     1      -2.341  12.792  20.146  0.00  0.00    +0.000 C 
BRANCH   7  11
ATOM     11  C   UNL     1      -6.154  14.445  19.738  0.00  0.00    +0.000 A 
ATOM     12  C   UNL     1      -6.753  13.180  19.640  0.00  0.00    +0.000 A 
ATOM     13  C   UNL     1      -7.614  12.888  18.579  0.00  0.00    +0.000 A 
ATOM     14  C   UNL     1      -7.900  13.862  17.623  0.00  0.00    +0.000 A 
ATOM     15  C   UNL     1      -7.272  15.101  17.705  0.00  0.00    +0.000 A 
ATOM     16  C   UNL     1      -6.363  15.377  18.718  0.00  0.00    +0.000 A 
BRANCH  15  17
ATOM     17  O   UNL     1      -7.533  16.094  16.807  0.00  0.00    +0.000 OA
ATOM     18  H   UNL     1      -8.469  16.048  16.552  0.00  0.00    +0.000 HD
ENDBRANCH  15  17
ENDBRANCH   7  11
ENDBRANCH   2   3
BRANCH   2  19
ATOM     19  C   UNL     1      -0.427  10.774  21.597  0.00  0.00    +0.000 A 
ATOM     20  C   UNL     1      -0.393   9.545  22.260  0.00  0.00    +0.000 A 
ATOM     21  C   UNL     1       0.331   8.482  21.719  0.00  0.00    +0.000 A 
ATOM     22  C   UNL     1       1.042   8.645  20.518  0.00  0.00    +0.000 A 
ATOM     23  C   UNL     1       1.003   9.883  19.865  0.00  0.00    +0.000 A 
ATOM     24  C   UNL     1       0.270  10.941  20.398  0.00  0.00    +0.000 A 
BRANCH  22  25
ATOM     25  C   UNL     1       1.820   7.570  19.937  0.00  0.00    +0.000 A 
ATOM     26  C   UNL     1       2.513   7.599  18.755  0.00  0.00    +0.000 A 
ATOM     27  N   UNL     1       3.069   6.349  18.642  0.00  0.00    +0.000 N 
ATOM     28  N   UNL     1       2.714   5.595  19.711  0.00  0.00    +0.000 NA
ATOM     29  N   UNL     1       1.961   6.336  20.510  0.00  0.00    +0.000 NA
BRANCH  27  30
ATOM     30  C   UNL     1       3.886   5.849  17.602  0.00  0.00    +0.000 A 
ATOM     31  C   UNL     1       4.587   6.724  16.760  0.00  0.00    +0.000 A 
ATOM     32  C   UNL     1       5.379   6.212  15.732  0.00  0.00    +0.000 A 
ATOM     33  C   UNL     1       5.473   4.836  15.539  0.00  0.00    +0.000 A 
ATOM     34  C   UNL     1       4.781   3.964  16.376  0.00  0.00    +0.000 A 
ATOM     35  C   UNL     1       3.990   4.464  17.410  0.00  0.00    +0.000 A 
ENDBRANCH  27  30
ENDBRANCH  22  25
ENDBRANCH   2  19
TORSDOF 6
ENDMDL
