MODEL 1
REMARK VINA RESULT:      -6.8      0.000      0.000
REMARK  Name = 
REMARK  1 active torsions:
REMARK  status: ('A' for Active; 'I' for Inactive)
REMARK    1  A    between atoms: C_2  and  C_9
REMARK                            x       y       z     vdW  Elec       q    Type
REMARK                         _______ _______ _______ _____ _____    ______ ____
ROOT
ATOM      1  O   UNL     1       4.919   5.902  17.785  0.00  0.00    +0.000 OA
ATOM      2  C   UNL     1       4.387   4.879  17.361  0.00  0.00    +0.000 C 
ATOM      3  N   UNL     1       4.731   4.227  16.194  0.00  0.00    +0.000 N 
ATOM      4  C   UNL     1       5.800   4.600  15.400  0.00  0.00    +0.000 A 
ATOM      5  C   UNL     1       6.043   4.105  14.095  0.00  0.00    +0.000 A 
ATOM      6  C   UNL     1       7.184   4.748  13.689  0.00  0.00    +0.000 A 
ATOM      7  O   UNL     1       7.622   5.553  14.684  0.00  0.00    +0.000 OA
ATOM      8  N   UNL     1       6.757   5.465  15.753  0.00  0.00    +0.000 NA
ATOM      9  H   UNL     1       4.137   3.473  15.879  0.00  0.00    +0.000 HD
ENDROOT
BRANCH   2  10
ATOM     10  C   UNL     1       3.272   4.282  18.071  0.00  0.00    +0.000 A 
ATOM     11  C   UNL     1       1.980   4.046  17.639  0.00  0.00    +0.000 A 
ATOM     12  C   UNL     1       1.275   3.503  18.737  0.00  0.00    +0.000 A 
ATOM     13  C   UNL     1       2.177   3.440  19.774  0.00  0.00    +0.000 A 
ATOM     14 BR   UNL     1       1.779   2.839  21.494  0.00  0.00    +0.000 Br
ATOM     15  O   UNL     1       3.402   3.887  19.376  0.00  0.00    +0.000 OA
ENDBRANCH   2  10
TORSDOF 1
ENDMDL
MODEL 2
REMARK VINA RESULT:      -6.8      1.170      1.170
REMARK  Name = 
REMARK  1 active torsions:
REMARK  status: ('A' for Active; 'I' for Inactive)
REMARK    1  A    between atoms: C_2  and  C_9
REMARK                            x       y       z     vdW  Elec       q    Type
REMARK                         _______ _______ _______ _____ _____    ______ ____
ROOT
ATOM      1  O   UNL     1       5.806   4.645  18.373  0.00  0.00    +0.000 OA
ATOM      2  C   UNL     1       5.074   3.873  17.761  0.00  0.00    +0.000 C 
ATOM      3  N   UNL     1       5.113   3.648  16.399  0.00  0.00    +0.000 N 
ATOM      4  C   UNL     1       6.065   4.202  15.563  0.00  0.00    +0.000 A 
ATOM      5  C   UNL     1       6.003   4.179  14.148  0.00  0.00    +0.000 A 
ATOM      6  C   UNL     1       7.130   4.846  13.742  0.00  0.00    +0.000 A 
ATOM      7  O   UNL     1       7.843   5.222  14.828  0.00  0.00    +0.000 OA
ATOM      8  N   UNL     1       7.177   4.824  15.967  0.00  0.00    +0.000 NA
ATOM      9  H   UNL     1       4.375   3.093  15.989  0.00  0.00    +0.000 HD
ENDROOT
BRANCH   2  10
ATOM     10  C   UNL     1       4.031   3.142  18.456  0.00  0.00    +0.000 A 
ATOM     11  C   UNL     1       3.265   2.076  18.023  0.00  0.00    +0.000 A 
ATOM     12  C   UNL     1       2.355   1.778  19.061  0.00  0.00    +0.000 A 
ATOM     13  C   UNL     1       2.618   2.679  20.068  0.00  0.00    +0.000 A 
ATOM     14 BR   UNL     1       1.683   2.778  21.678  0.00  0.00    +0.000 Br
ATOM     15  O   UNL     1       3.653   3.498  19.724  0.00  0.00    +0.000 OA
ENDBRANCH   2  10
TORSDOF 1
ENDMDL
MODEL 3
REMARK VINA RESULT:      -6.5      1.313      1.415
REMARK  Name = 
REMARK  1 active torsions:
REMARK  status: ('A' for Active; 'I' for Inactive)
REMARK    1  A    between atoms: C_2  and  C_9
REMARK                            x       y       z     vdW  Elec       q    Type
REMARK                         _______ _______ _______ _____ _____    ______ ____
ROOT
ATOM      1  O   UNL     1       6.045   5.622  18.892  0.00  0.00    +0.000 OA
ATOM      2  C   UNL     1       5.003   5.174  18.421  0.00  0.00    +0.000 C 
ATOM      3  N   UNL     1       4.813   4.818  17.101  0.00  0.00    +0.000 N 
ATOM      4  C   UNL     1       5.823   4.830  16.156  0.00  0.00    +0.000 A 
ATOM      5  C   UNL     1       5.619   4.692  14.761  0.00  0.00    +0.000 A 
ATOM      6  C   UNL     1       6.876   4.775  14.219  0.00  0.00    +0.000 A 
ATOM      7  O   UNL     1       7.782   4.922  15.212  0.00  0.00    +0.000 OA
ATOM      8  N   UNL     1       7.126   4.960  16.423  0.00  0.00    +0.000 NA
ATOM      9  H   UNL     1       3.876   4.588  16.802  0.00  0.00    +0.000 HD
ENDROOT
BRANCH   2  10
ATOM     10  C   UNL     1       3.824   5.027  19.254  0.00  0.00    +0.000 A 
ATOM     11  C   UNL     1       2.904   5.979  19.652  0.00  0.00    +0.000 A 
ATOM     12  C   UNL     1       1.985   5.328  20.505  0.00  0.00    +0.000 A 
ATOM     13  C   UNL     1       2.397   4.017  20.578  0.00  0.00    +0.000 A 
ATOM     14 BR   UNL     1       1.572   2.699  21.608  0.00  0.00    +0.000 Br
ATOM     15  O   UNL     1       3.500   3.814  19.802  0.00  0.00    +0.000 OA
ENDBRANCH   2  10
TORSDOF 1
ENDMDL
MODEL 4
REMARK VINA RESULT:      -6.4      1.149      1.466
REMARK  Name = 
REMARK  1 active torsions:
REMARK  status: ('A' for Active; 'I' for Inactive)
REMARK    1  A    between atoms: C_2  and  C_9
REMARK                            x       y       z     vdW  Elec       q    Type
REMARK                         _______ _______ _______ _____ _____    ______ ____
ROOT
ATOM      1  O   UNL     1       6.000   5.809  17.981  0.00  0.00    +0.000 OA
ATOM      2  C   UNL     1       5.420   4.765  17.694  0.00  0.00    +0.000 C 
ATOM      3  N   UNL     1       5.487   4.127  16.473  0.00  0.00    +0.000 N 
ATOM      4  C   UNL     1       6.310   4.541  15.441  0.00  0.00    +0.000 A 
ATOM      5  C   UNL     1       6.239   4.054  14.112  0.00  0.00    +0.000 A 
ATOM      6  C   UNL     1       7.217   4.742  13.441  0.00  0.00    +0.000 A 
ATOM      7  O   UNL     1       7.857   5.566  14.302  0.00  0.00    +0.000 OA
ATOM      8  N   UNL     1       7.290   5.444  15.552  0.00  0.00    +0.000 NA
ATOM      9  H   UNL     1       4.864   3.349  16.309  0.00  0.00    +0.000 HD
ENDROOT
BRANCH   2  10
ATOM     10  C   UNL     1       4.540   4.126  18.654  0.00  0.00    +0.000 A 
ATOM     11  C   UNL     1       4.761   3.015  19.446  0.00  0.00    +0.000 A 
ATOM     12  C   UNL     1       3.564   2.774  20.156  0.00  0.00    +0.000 A 
ATOM     13  C   UNL     1       2.682   3.751  19.757  0.00  0.00    +0.000 A 
ATOM     14 BR   UNL     1       0.918   3.896  20.344  0.00  0.00    +0.000 Br
ATOM     15  O   UNL     1       3.270   4.596  18.863  0.00  0.00    +0.000 OA
ENDBRANCH   2  10
TORSDOF 1
ENDMDL
MODEL 5
REMARK VINA RESULT:      -6.4      1.383      1.531
REMARK  Name = 
REMARK  1 active torsions:
REMARK  status: ('A' for Active; 'I' for Inactive)
REMARK    1  A    between atoms: C_2  and  C_9
REMARK                            x       y       z     vdW  Elec       q    Type
REMARK                         _______ _______ _______ _____ _____    ______ ____
ROOT
ATOM      1  O   UNL     1       3.945   7.051  17.312  0.00  0.00    +0.000 OA
ATOM      2  C   UNL     1       3.890   5.898  17.731  0.00  0.00    +0.000 C 
ATOM      3  N   UNL     1       4.531   4.813  17.167  0.00  0.00    +0.000 N 
ATOM      4  C   UNL     1       5.408   4.916  16.103  0.00  0.00    +0.000 A 
ATOM      5  C   UNL     1       5.903   3.816  15.360  0.00  0.00    +0.000 A 
ATOM      6  C   UNL     1       6.716   4.379  14.410  0.00  0.00    +0.000 A 
ATOM      7  O   UNL     1       6.739   5.721  14.578  0.00  0.00    +0.000 OA
ATOM      8  N   UNL     1       5.920   6.059  15.634  0.00  0.00    +0.000 NA
ATOM      9  H   UNL     1       4.305   3.893  17.518  0.00  0.00    +0.000 HD
ENDROOT
BRANCH   2  10
ATOM     10  C   UNL     1       3.064   5.572  18.878  0.00  0.00    +0.000 A 
ATOM     11  C   UNL     1       2.332   6.408  19.701  0.00  0.00    +0.000 A 
ATOM     12  C   UNL     1       1.758   5.594  20.703  0.00  0.00    +0.000 A 
ATOM     13  C   UNL     1       2.172   4.310  20.435  0.00  0.00    +0.000 A 
ATOM     14 BR   UNL     1       1.747   2.817  21.468  0.00  0.00    +0.000 Br
ATOM     15  O   UNL     1       2.946   4.278  19.313  0.00  0.00    +0.000 OA
ENDBRANCH   2  10
TORSDOF 1
ENDMDL
MODEL 6
REMARK VINA RESULT:      -6.4      3.370      6.155
REMARK  Name = 
REMARK  1 active torsions:
REMARK  status: ('A' for Active; 'I' for Inactive)
REMARK    1  A    between atoms: C_2  and  C_9
REMARK                            x       y       z     vdW  Elec       q    Type
REMARK                         _______ _______ _______ _____ _____    ______ ____
ROOT
ATOM      1  O   UNL     1       5.398   3.296  19.267  0.00  0.00    +0.000 OA
ATOM      2  C   UNL     1       4.556   3.833  18.552  0.00  0.00    +0.000 C 
ATOM      3  N   UNL     1       3.203   3.890  18.820  0.00  0.00    +0.000 N 
ATOM      4  C   UNL     1       2.640   3.428  19.995  0.00  0.00    +0.000 A 
ATOM      5  C   UNL     1       1.249   3.263  20.209  0.00  0.00    +0.000 A 
ATOM      6  C   UNL     1       1.152   2.778  21.488  0.00  0.00    +0.000 A 
ATOM      7  O   UNL     1       2.389   2.682  22.026  0.00  0.00    +0.000 OA
ATOM      8  N   UNL     1       3.321   3.084  21.094  0.00  0.00    +0.000 NA
ATOM      9  H   UNL     1       2.591   4.239  18.097  0.00  0.00    +0.000 HD
ENDROOT
BRANCH   2  10
ATOM     10  C   UNL     1       4.940   4.432  17.288  0.00  0.00    +0.000 A 
ATOM     11  C   UNL     1       4.889   5.755  16.890  0.00  0.00    +0.000 A 
ATOM     12  C   UNL     1       5.320   5.794  15.545  0.00  0.00    +0.000 A 
ATOM     13  C   UNL     1       5.609   4.494  15.201  0.00  0.00    +0.000 A 
ATOM     14 BR   UNL     1       6.185   3.944  13.514  0.00  0.00    +0.000 Br
ATOM     15  O   UNL     1       5.407   3.658  16.258  0.00  0.00    +0.000 OA
ENDBRANCH   2  10
TORSDOF 1
ENDMDL
MODEL 7
REMARK VINA RESULT:      -6.4      1.196      1.365
REMARK  Name = 
REMARK  1 active torsions:
REMARK  status: ('A' for Active; 'I' for Inactive)
REMARK    1  A    between atoms: C_2  and  C_9
REMARK                            x       y       z     vdW  Elec       q    Type
REMARK                         _______ _______ _______ _____ _____    ______ ____
ROOT
ATOM      1  O   UNL     1       5.527   6.613  17.638  0.00  0.00    +0.000 OA
ATOM      2  C   UNL     1       4.829   5.627  17.415  0.00  0.00    +0.000 C 
ATOM      3  N   UNL     1       4.961   4.786  16.329  0.00  0.00    +0.000 N 
ATOM      4  C   UNL     1       5.979   4.896  15.400  0.00  0.00    +0.000 A 
ATOM      5  C   UNL     1       6.018   4.204  14.164  0.00  0.00    +0.000 A 
ATOM      6  C   UNL     1       7.182   4.621  13.571  0.00  0.00    +0.000 A 
ATOM      7  O   UNL     1       7.821   5.482  14.396  0.00  0.00    +0.000 OA
ATOM      8  N   UNL     1       7.070   5.658  15.538  0.00  0.00    +0.000 NA
ATOM      9  H   UNL     1       4.247   4.087  16.180  0.00  0.00    +0.000 HD
ENDROOT
BRANCH   2  10
ATOM     10  C   UNL     1       3.728   5.293  18.298  0.00  0.00    +0.000 A 
ATOM     11  C   UNL     1       3.294   5.932  19.445  0.00  0.00    +0.000 A 
ATOM     12  C   UNL     1       2.224   5.167  19.960  0.00  0.00    +0.000 A 
ATOM     13  C   UNL     1       2.067   4.106  19.099  0.00  0.00    +0.000 A 
ATOM     14 BR   UNL     1       0.816   2.738  19.313  0.00  0.00    +0.000 Br
ATOM     15  O   UNL     1       2.957   4.183  18.069  0.00  0.00    +0.000 OA
ENDBRANCH   2  10
TORSDOF 1
ENDMDL
MODEL 8
REMARK VINA RESULT:      -6.2      3.235      6.008
REMARK  Name = 
REMARK  1 active torsions:
REMARK  status: ('A' for Active; 'I' for Inactive)
REMARK    1  A    between atoms: C_2  and  C_9
REMARK                            x       y       z     vdW  Elec       q    Type
REMARK                         _______ _______ _______ _____ _____    ______ ____
ROOT
ATOM      1  O   UNL     1       5.582   4.232  19.277  0.00  0.00    +0.000 OA
ATOM      2  C   UNL     1       5.011   4.210  18.190  0.00  0.00    +0.000 C 
ATOM      3  N   UNL     1       3.652   4.053  18.007  0.00  0.00    +0.000 N 
ATOM      4  C   UNL     1       2.745   4.002  19.049  0.00  0.00    +0.000 A 
ATOM      5  C   UNL     1       1.387   3.619  18.915  0.00  0.00    +0.000 A 
ATOM      6  C   UNL     1       0.878   3.700  20.185  0.00  0.00    +0.000 A 
ATOM      7  O   UNL     1       1.845   4.129  21.028  0.00  0.00    +0.000 OA
ATOM      8  N   UNL     1       3.013   4.316  20.321  0.00  0.00    +0.000 NA
ATOM      9  H   UNL     1       3.313   3.917  17.065  0.00  0.00    +0.000 HD
ENDROOT
BRANCH   2  10
ATOM     10  C   UNL     1       5.772   4.302  16.958  0.00  0.00    +0.000 A 
ATOM     11  C   UNL     1       6.993   4.906  16.722  0.00  0.00    +0.000 A 
ATOM     12  C   UNL     1       7.259   4.763  15.342  0.00  0.00    +0.000 A 
ATOM     13  C   UNL     1       6.187   4.081  14.816  0.00  0.00    +0.000 A 
ATOM     14 BR   UNL     1       5.981   3.648  13.014  0.00  0.00    +0.000 Br
ATOM     15  O   UNL     1       5.286   3.772  15.792  0.00  0.00    +0.000 OA
ENDBRANCH   2  10
TORSDOF 1
ENDMDL
MODEL 9
REMARK VINA RESULT:      -6.2      1.758      2.215
REMARK  Name = 
REMARK  1 active torsions:
REMARK  status: ('A' for Active; 'I' for Inactive)
REMARK    1  A    between atoms: C_2  and  C_9
REMARK                            x       y       z     vdW  Elec       q    Type
REMARK                         _______ _______ _______ _____ _____    ______ ____
ROOT
ATOM      1  O   UNL     1       6.552   6.124  16.530  0.00  0.00    +0.000 OA
ATOM      2  C   UNL     1       5.963   5.053  16.415  0.00  0.00    +0.000 C 
ATOM      3  N   UNL     1       5.931   4.280  15.272  0.00  0.00    +0.000 N 
ATOM      4  C   UNL     1       6.655   4.576  14.132  0.00  0.00    +0.000 A 
ATOM      5  C   UNL     1       6.475   3.942  12.877  0.00  0.00    +0.000 A 
ATOM      6  C   UNL     1       7.382   4.552  12.049  0.00  0.00    +0.000 A 
ATOM      7  O   UNL     1       8.084   5.469  12.753  0.00  0.00    +0.000 OA
ATOM      8  N   UNL     1       7.630   5.488  14.053  0.00  0.00    +0.000 NA
ATOM      9  H   UNL     1       5.305   3.487  15.252  0.00  0.00    +0.000 HD
ENDROOT
BRANCH   2  10
ATOM     10  C   UNL     1       5.178   4.524  17.514  0.00  0.00    +0.000 A 
ATOM     11  C   UNL     1       5.367   4.663  18.877  0.00  0.00    +0.000 A 
ATOM     12  C   UNL     1       4.358   3.903  19.509  0.00  0.00    +0.000 A 
ATOM     13  C   UNL     1       3.612   3.345  18.497  0.00  0.00    +0.000 A 
ATOM     14 BR   UNL     1       2.162   2.200  18.752  0.00  0.00    +0.000 Br
ATOM     15  O   UNL     1       4.083   3.735  17.278  0.00  0.00    +0.000 OA
ENDBRANCH   2  10
TORSDOF 1
ENDMDL
